MODEL 1
REMARK VINA RESULT:      -6.1      0.000      0.000
REMARK  Name = 196249
REMARK  11 active torsions:
REMARK  status: ('A' for Active; 'I' for Inactive)
REMARK    1  A    between atoms: C_1  and  C_8
REMARK    2  A    between atoms: C_1  and  N_15
REMARK    3  A    between atoms: C_1  and  C_27
REMARK    4  A    between atoms: C_4  and  C_11
REMARK    5  A    between atoms: C_16  and  C_18
REMARK    6  A    between atoms: C_18  and  O_19
REMARK    7  A    between atoms: C_18  and  C_21
REMARK    8  A    between atoms: C_21  and  C_22
REMARK    9  A    between atoms: C_22  and  C_24
REMARK   10  A    between atoms: C_24  and  O_25
REMARK   11  A    between atoms: C_27  and  C_30
REMARK                            x       y       z     vdW  Elec       q    Type
REMARK                         _______ _______ _______ _____ _____    ______ ____
ROOT
ATOM      1  C   UNL     1     -32.130  28.687   4.610  0.00  0.00    +0.155 C 
ENDROOT
BRANCH   1   8
ATOM      2  O   UNL     1     -31.628  28.740   6.937  0.00  0.00    -0.273 OA
ATOM      3  N   UNL     1     -29.882  28.277   5.490  0.00  0.00    -0.272 N 
ATOM      4  C   UNL     1     -28.894  27.970   6.516  0.00  0.00    +0.152 C 
ATOM      5  C   UNL     1     -27.761  27.277   5.767  0.00  0.00    +0.031 C 
ATOM      6  C   UNL     1     -27.841  27.878   4.366  0.00  0.00    +0.024 C 
ATOM      7  C   UNL     1     -29.335  28.067   4.152  0.00  0.00    +0.094 C 
ATOM      8  C   UNL     1     -31.203  28.570   5.792  0.00  0.00    +0.244 C 
BRANCH   4  11
ATOM      9  O   UNL     1     -27.844  30.116   6.450  0.00  0.00    -0.274 OA
ATOM     10  N   UNL     1     -28.775  29.420   8.435  0.00  0.00    -0.327 N 
ATOM     11  C   UNL     1     -28.452  29.275   7.107  0.00  0.00    +0.237 C 
ATOM     12  H   UNL     1     -28.529  30.245   8.915  0.00  0.00    +0.145 HD
ATOM     13  H   UNL     1     -29.253  28.701   8.906  0.00  0.00    +0.145 HD
ENDBRANCH   4  11
ENDBRANCH   1   8
BRANCH   1  15
ATOM     14  O   UNL     1     -32.819  26.044   3.691  0.00  0.00    -0.272 OA
ATOM     15  N   UNL     1     -33.285  27.910   4.992  0.00  0.00    -0.296 N 
ATOM     16  C   UNL     1     -33.534  26.638   4.494  0.00  0.00    +0.250 C 
ATOM     17  H   UNL     1     -33.923  28.297   5.633  0.00  0.00    +0.150 HD
BRANCH  16  18
ATOM     18  C   UNL     1     -34.809  26.038   5.071  0.00  0.00    +0.187 C 
BRANCH  18  19
ATOM     19  O   UNL     1     -35.867  26.938   4.772  0.00  0.00    -0.376 OA
ATOM     20  H   UNL     1     -36.558  26.860   5.447  0.00  0.00    +0.211 HD
ENDBRANCH  18  19
BRANCH  18  21
ATOM     21  C   UNL     1     -35.113  24.649   4.497  0.00  0.00    +0.050 C 
BRANCH  21  22
ATOM     22  C   UNL     1     -34.811  23.510   5.476  0.00  0.00    +0.112 C 
BRANCH  22  24
ATOM     23  O   UNL     1     -35.091  21.092   5.404  0.00  0.00    -0.250 OA
ATOM     24  C   UNL     1     -35.483  22.209   5.098  0.00  0.00    +0.314 C 
BRANCH  24  25
ATOM     25  O   UNL     1     -36.590  22.425   4.339  0.00  0.00    -0.480 OA
ATOM     26  H   UNL     1     -36.615  22.128   3.452  0.00  0.00    +0.295 HD
ENDBRANCH  24  25
ENDBRANCH  22  24
ENDBRANCH  21  22
ENDBRANCH  18  21
ENDBRANCH  16  18
ENDBRANCH   1  15
BRANCH   1  27
ATOM     27  C   UNL     1     -32.465  30.152   4.328  0.00  0.00    +0.071 C 
BRANCH  27  30
ATOM     28  N   UNL     1     -34.789  30.826   3.742  0.00  0.00    -0.319 N 
ATOM     29  N   UNL     1     -34.969  30.305   1.590  0.00  0.00    -0.315 N 
ATOM     30  C   UNL     1     -33.613  30.299   3.358  0.00  0.00    +0.040 C 
ATOM     31  C   UNL     1     -33.717  29.982   2.051  0.00  0.00    +0.069 C 
ATOM     32  C   UNL     1     -35.590  30.811   2.633  0.00  0.00    +0.182 C 
ATOM     33  H   UNL     1     -35.027  31.154   4.640  0.00  0.00    +0.148 HD
ATOM     34  H   UNL     1     -35.324  30.187   0.680  0.00  0.00    +0.148 HD
ENDBRANCH  27  30
ENDBRANCH   1  27
TORSDOF 11
ENDMDL
MODEL 2
REMARK VINA RESULT:      -6.1      4.698      8.198
REMARK  Name = 196249
REMARK  11 active torsions:
REMARK  status: ('A' for Active; 'I' for Inactive)
REMARK    1  A    between atoms: C_1  and  C_8
REMARK    2  A    between atoms: C_1  and  N_15
REMARK    3  A    between atoms: C_1  and  C_27
REMARK    4  A    between atoms: C_4  and  C_11
REMARK    5  A    between atoms: C_16  and  C_18
REMARK    6  A    between atoms: C_18  and  O_19
REMARK    7  A    between atoms: C_18  and  C_21
REMARK    8  A    between atoms: C_21  and  C_22
REMARK    9  A    between atoms: C_22  and  C_24
REMARK   10  A    between atoms: C_24  and  O_25
REMARK   11  A    between atoms: C_27  and  C_30
REMARK                            x       y       z     vdW  Elec       q    Type
REMARK                         _______ _______ _______ _____ _____    ______ ____
ROOT
ATOM      1  C   UNL     1     -35.760  23.230   3.340  0.00  0.00    +0.155 C 
ENDROOT
BRANCH   1   8
ATOM      2  O   UNL     1     -35.426  20.911   3.764  0.00  0.00    -0.273 OA
ATOM      3  N   UNL     1     -35.670  21.556   1.555  0.00  0.00    -0.272 N 
ATOM      4  C   UNL     1     -35.702  20.212   0.993  0.00  0.00    +0.152 C 
ATOM      5  C   UNL     1     -36.230  20.399  -0.426  0.00  0.00    +0.031 C 
ATOM      6  C   UNL     1     -35.769  21.807  -0.793  0.00  0.00    +0.024 C 
ATOM      7  C   UNL     1     -35.881  22.566   0.521  0.00  0.00    +0.094 C 
ATOM      8  C   UNL     1     -35.605  21.791   2.920  0.00  0.00    +0.244 C 
BRANCH   4  11
ATOM      9  O   UNL     1     -33.324  20.450   0.957  0.00  0.00    -0.274 OA
ATOM     10  N   UNL     1     -34.206  18.326   1.035  0.00  0.00    -0.327 N 
ATOM     11  C   UNL     1     -34.294  19.698   0.998  0.00  0.00    +0.237 C 
ATOM     12  H   UNL     1     -33.322  17.890   1.043  0.00  0.00    +0.145 HD
ATOM     13  H   UNL     1     -35.024  17.781   1.054  0.00  0.00    +0.145 HD
ENDBRANCH   4  11
ENDBRANCH   1   8
BRANCH   1  15
ATOM     14  O   UNL     1     -37.329  25.470   2.430  0.00  0.00    -0.272 OA
ATOM     15  N   UNL     1     -37.187  23.403   3.479  0.00  0.00    -0.296 N 
ATOM     16  C   UNL     1     -37.858  24.522   3.006  0.00  0.00    +0.250 C 
ATOM     17  H   UNL     1     -37.705  22.698   3.928  0.00  0.00    +0.150 HD
BRANCH  16  18
ATOM     18  C   UNL     1     -39.356  24.444   3.270  0.00  0.00    +0.187 C 
BRANCH  18  19
ATOM     19  O   UNL     1     -39.780  25.744   3.658  0.00  0.00    -0.376 OA
ATOM     20  H   UNL     1     -39.986  25.747   4.605  0.00  0.00    +0.211 HD
ENDBRANCH  18  19
BRANCH  18  21
ATOM     21  C   UNL     1     -40.142  23.970   2.042  0.00  0.00    +0.050 C 
BRANCH  21  22
ATOM     22  C   UNL     1     -39.357  22.996   1.159  0.00  0.00    +0.112 C 
BRANCH  22  24
ATOM     23  O   UNL     1     -40.644  20.950   0.863  0.00  0.00    -0.250 OA
ATOM     24  C   UNL     1     -39.724  21.549   1.400  0.00  0.00    +0.314 C 
BRANCH  24  25
ATOM     25  O   UNL     1     -38.908  20.978   2.326  0.00  0.00    -0.480 OA
ATOM     26  H   UNL     1     -38.466  20.177   2.130  0.00  0.00    +0.295 HD
ENDBRANCH  24  25
ENDBRANCH  22  24
ENDBRANCH  21  22
ENDBRANCH  18  21
ENDBRANCH  16  18
ENDBRANCH   1  15
BRANCH   1  27
ATOM     27  C   UNL     1     -34.999  23.499   4.638  0.00  0.00    +0.071 C 
BRANCH  27  30
ATOM     28  N   UNL     1     -34.372  25.690   3.636  0.00  0.00    -0.319 N 
ATOM     29  N   UNL     1     -33.795  26.931   5.385  0.00  0.00    -0.315 N 
ATOM     30  C   UNL     1     -34.518  24.927   4.733  0.00  0.00    +0.040 C 
ATOM     31  C   UNL     1     -34.170  25.677   5.799  0.00  0.00    +0.069 C 
ATOM     32  C   UNL     1     -33.928  26.907   4.077  0.00  0.00    +0.182 C 
ATOM     33  H   UNL     1     -34.547  25.428   2.703  0.00  0.00    +0.148 HD
ATOM     34  H   UNL     1     -33.495  27.684   5.944  0.00  0.00    +0.148 HD
ENDBRANCH  27  30
ENDBRANCH   1  27
TORSDOF 11
ENDMDL
MODEL 3
REMARK VINA RESULT:      -6.1      4.616      7.799
REMARK  Name = 196249
REMARK  11 active torsions:
REMARK  status: ('A' for Active; 'I' for Inactive)
REMARK    1  A    between atoms: C_1  and  C_8
REMARK    2  A    between atoms: C_1  and  N_15
REMARK    3  A    between atoms: C_1  and  C_27
REMARK    4  A    between atoms: C_4  and  C_11
REMARK    5  A    between atoms: C_16  and  C_18
REMARK    6  A    between atoms: C_18  and  O_19
REMARK    7  A    between atoms: C_18  and  C_21
REMARK    8  A    between atoms: C_21  and  C_22
REMARK    9  A    between atoms: C_22  and  C_24
REMARK   10  A    between atoms: C_24  and  O_25
REMARK   11  A    between atoms: C_27  and  C_30
REMARK                            x       y       z     vdW  Elec       q    Type
REMARK                         _______ _______ _______ _____ _____    ______ ____
ROOT
ATOM      1  C   UNL     1     -37.359  25.456   1.822  0.00  0.00    +0.155 C 
ENDROOT
BRANCH   1   8
ATOM      2  O   UNL     1     -37.947  24.639   3.980  0.00  0.00    -0.273 OA
ATOM      3  N   UNL     1     -36.484  23.356   2.727  0.00  0.00    -0.272 N 
ATOM      4  C   UNL     1     -36.441  22.218   3.638  0.00  0.00    +0.152 C 
ATOM      5  C   UNL     1     -35.815  21.093   2.821  0.00  0.00    +0.031 C 
ATOM      6  C   UNL     1     -34.918  21.829   1.830  0.00  0.00    +0.024 C 
ATOM      7  C   UNL     1     -35.703  23.095   1.521  0.00  0.00    +0.094 C 
ATOM      8  C   UNL     1     -37.301  24.453   2.946  0.00  0.00    +0.244 C 
BRANCH   4  11
ATOM      9  O   UNL     1     -34.612  23.366   4.664  0.00  0.00    -0.274 OA
ATOM     10  N   UNL     1     -35.948  22.042   5.989  0.00  0.00    -0.327 N 
ATOM     11  C   UNL     1     -35.573  22.613   4.795  0.00  0.00    +0.237 C 
ATOM     12  H   UNL     1     -35.441  22.240   6.810  0.00  0.00    +0.145 HD
ATOM     13  H   UNL     1     -36.723  21.436   6.022  0.00  0.00    +0.145 HD
ENDBRANCH   4  11
ENDBRANCH   1   8
BRANCH   1  15
ATOM     14  O   UNL     1     -38.775  23.818  -0.079  0.00  0.00    -0.272 OA
ATOM     15  N   UNL     1     -38.762  25.529   1.490  0.00  0.00    -0.296 N 
ATOM     16  C   UNL     1     -39.358  24.693   0.556  0.00  0.00    +0.250 C 
ATOM     17  H   UNL     1     -39.320  26.200   1.944  0.00  0.00    +0.150 HD
BRANCH  16  18
ATOM     18  C   UNL     1     -40.848  24.973   0.407  0.00  0.00    +0.187 C 
BRANCH  18  19
ATOM     19  O   UNL     1     -41.538  23.922   1.071  0.00  0.00    -0.376 OA
ATOM     20  H   UNL     1     -42.462  23.908   0.779  0.00  0.00    +0.211 HD
ENDBRANCH  18  19
BRANCH  18  21
ATOM     21  C   UNL     1     -41.250  26.330   0.996  0.00  0.00    +0.050 C 
BRANCH  21  22
ATOM     22  C   UNL     1     -42.090  26.213   2.271  0.00  0.00    +0.112 C 
BRANCH  22  24
ATOM     23  O   UNL     1     -42.041  27.865   4.059  0.00  0.00    -0.250 OA
ATOM     24  C   UNL     1     -41.497  26.959   3.444  0.00  0.00    +0.314 C 
BRANCH  24  25
ATOM     25  O   UNL     1     -40.245  26.514   3.733  0.00  0.00    -0.480 OA
ATOM     26  H   UNL     1     -40.009  25.627   3.547  0.00  0.00    +0.295 HD
ENDBRANCH  24  25
ENDBRANCH  22  24
ENDBRANCH  21  22
ENDBRANCH  18  21
ENDBRANCH  16  18
ENDBRANCH   1  15
BRANCH   1  27
ATOM     27  C   UNL     1     -36.781  26.799   2.265  0.00  0.00    +0.071 C 
BRANCH  27  30
ATOM     28  N   UNL     1     -35.504  26.849   4.402  0.00  0.00    -0.319 N 
ATOM     29  N   UNL     1     -33.442  26.279   3.805  0.00  0.00    -0.315 N 
ATOM     30  C   UNL     1     -35.516  26.639   3.074  0.00  0.00    +0.040 C 
ATOM     31  C   UNL     1     -34.265  26.292   2.707  0.00  0.00    +0.069 C 
ATOM     32  C   UNL     1     -34.219  26.619   4.810  0.00  0.00    +0.182 C 
ATOM     33  H   UNL     1     -36.266  27.115   4.967  0.00  0.00    +0.148 HD
ATOM     34  H   UNL     1     -32.483  26.062   3.834  0.00  0.00    +0.148 HD
ENDBRANCH  27  30
ENDBRANCH   1  27
TORSDOF 11
ENDMDL
MODEL 4
REMARK VINA RESULT:      -6.0      5.829      9.234
REMARK  Name = 196249
REMARK  11 active torsions:
REMARK  status: ('A' for Active; 'I' for Inactive)
REMARK    1  A    between atoms: C_1  and  C_8
REMARK    2  A    between atoms: C_1  and  N_15
REMARK    3  A    between atoms: C_1  and  C_27
REMARK    4  A    between atoms: C_4  and  C_11
REMARK    5  A    between atoms: C_16  and  C_18
REMARK    6  A    between atoms: C_18  and  O_19
REMARK    7  A    between atoms: C_18  and  C_21
REMARK    8  A    between atoms: C_21  and  C_22
REMARK    9  A    between atoms: C_22  and  C_24
REMARK   10  A    between atoms: C_24  and  O_25
REMARK   11  A    between atoms: C_27  and  C_30
REMARK                            x       y       z     vdW  Elec       q    Type
REMARK                         _______ _______ _______ _____ _____    ______ ____
ROOT
ATOM      1  C   UNL     1     -35.359  20.471   1.810  0.00  0.00    +0.155 C 
ENDROOT
BRANCH   1   8
ATOM      2  O   UNL     1     -34.370  21.788   0.090  0.00  0.00    -0.273 OA
ATOM      3  N   UNL     1     -33.270  19.844   0.696  0.00  0.00    -0.272 N 
ATOM      4  C   UNL     1     -32.084  20.063  -0.122  0.00  0.00    +0.152 C 
ATOM      5  C   UNL     1     -31.057  19.071   0.412  0.00  0.00    +0.031 C 
ATOM      6  C   UNL     1     -31.914  17.923   0.941  0.00  0.00    +0.024 C 
ATOM      7  C   UNL     1     -33.140  18.631   1.499  0.00  0.00    +0.094 C 
ATOM      8  C   UNL     1     -34.294  20.774   0.786  0.00  0.00    +0.244 C 
BRANCH   4  11
ATOM      9  O   UNL     1     -33.431  19.060  -1.822  0.00  0.00    -0.274 OA
ATOM     10  N   UNL     1     -31.621  20.323  -2.471  0.00  0.00    -0.327 N 
ATOM     11  C   UNL     1     -32.463  19.761  -1.540  0.00  0.00    +0.237 C 
ATOM     12  H   UNL     1     -31.786  20.184  -3.432  0.00  0.00    +0.145 HD
ATOM     13  H   UNL     1     -30.855  20.865  -2.177  0.00  0.00    +0.145 HD
ENDBRANCH   4  11
ENDBRANCH   1   8
BRANCH   1  15
ATOM     14  O   UNL     1     -35.247  21.101   4.619  0.00  0.00    -0.272 OA
ATOM     15  N   UNL     1     -35.629  21.749   2.423  0.00  0.00    -0.296 N 
ATOM     16  C   UNL     1     -35.549  21.958   3.792  0.00  0.00    +0.250 C 
ATOM     17  H   UNL     1     -35.881  22.505   1.845  0.00  0.00    +0.150 HD
BRANCH  16  18
ATOM     18  C   UNL     1     -35.870  23.399   4.170  0.00  0.00    +0.187 C 
BRANCH  18  19
ATOM     19  O   UNL     1     -37.280  23.549   4.084  0.00  0.00    -0.376 OA
ATOM     20  H   UNL     1     -37.495  24.473   3.886  0.00  0.00    +0.211 HD
ENDBRANCH  18  19
BRANCH  18  21
ATOM     21  C   UNL     1     -35.381  23.756   5.579  0.00  0.00    +0.050 C 
BRANCH  21  22
ATOM     22  C   UNL     1     -34.565  25.051   5.626  0.00  0.00    +0.112 C 
BRANCH  22  24
ATOM     23  O   UNL     1     -34.853  27.109   4.355  0.00  0.00    -0.250 OA
ATOM     24  C   UNL     1     -35.318  26.246   5.086  0.00  0.00    +0.314 C 
BRANCH  24  25
ATOM     25  O   UNL     1     -36.600  26.270   5.538  0.00  0.00    -0.480 OA
ATOM     26  H   UNL     1     -37.141  27.017   5.374  0.00  0.00    +0.295 HD
ENDBRANCH  24  25
ENDBRANCH  22  24
ENDBRANCH  21  22
ENDBRANCH  18  21
ENDBRANCH  16  18
ENDBRANCH   1  15
BRANCH   1  27
ATOM     27  C   UNL     1     -36.590  19.857   1.143  0.00  0.00    +0.071 C 
BRANCH  27  30
ATOM     28  N   UNL     1     -38.547  20.969   2.208  0.00  0.00    -0.319 N 
ATOM     29  N   UNL     1     -39.340  22.295   0.613  0.00  0.00    -0.315 N 
ATOM     30  C   UNL     1     -37.764  20.807   1.127  0.00  0.00    +0.040 C 
ATOM     31  C   UNL     1     -38.242  21.611   0.155  0.00  0.00    +0.069 C 
ATOM     32  C   UNL     1     -39.498  21.886   1.852  0.00  0.00    +0.182 C 
ATOM     33  H   UNL     1     -38.456  20.518   3.079  0.00  0.00    +0.148 HD
ATOM     34  H   UNL     1     -39.888  22.949   0.122  0.00  0.00    +0.148 HD
ENDBRANCH  27  30
ENDBRANCH   1  27
TORSDOF 11
ENDMDL
MODEL 5
REMARK VINA RESULT:      -6.0      5.752      9.670
REMARK  Name = 196249
REMARK  11 active torsions:
REMARK  status: ('A' for Active; 'I' for Inactive)
REMARK    1  A    between atoms: C_1  and  C_8
REMARK    2  A    between atoms: C_1  and  N_15
REMARK    3  A    between atoms: C_1  and  C_27
REMARK    4  A    between atoms: C_4  and  C_11
REMARK    5  A    between atoms: C_16  and  C_18
REMARK    6  A    between atoms: C_18  and  O_19
REMARK    7  A    between atoms: C_18  and  C_21
REMARK    8  A    between atoms: C_21  and  C_22
REMARK    9  A    between atoms: C_22  and  C_24
REMARK   10  A    between atoms: C_24  and  O_25
REMARK   11  A    between atoms: C_27  and  C_30
REMARK                            x       y       z     vdW  Elec       q    Type
REMARK                         _______ _______ _______ _____ _____    ______ ____
ROOT
ATOM      1  C   UNL     1     -38.381  24.009   2.202  0.00  0.00    +0.155 C 
ENDROOT
BRANCH   1   8
ATOM      2  O   UNL     1     -40.097  24.726   3.689  0.00  0.00    -0.273 OA
ATOM      3  N   UNL     1     -40.155  25.558   1.530  0.00  0.00    -0.272 N 
ATOM      4  C   UNL     1     -41.248  26.498   1.744  0.00  0.00    +0.152 C 
ATOM      5  C   UNL     1     -41.206  27.422   0.532  0.00  0.00    +0.031 C 
ATOM      6  C   UNL     1     -40.625  26.539  -0.569  0.00  0.00    +0.024 C 
ATOM      7  C   UNL     1     -39.623  25.668   0.174  0.00  0.00    +0.094 C 
ATOM      8  C   UNL     1     -39.619  24.794   2.555  0.00  0.00    +0.244 C 
BRANCH   4  11
ATOM      9  O   UNL     1     -42.629  24.622   1.206  0.00  0.00    -0.274 OA
ATOM     10  N   UNL     1     -43.520  26.290   2.517  0.00  0.00    -0.327 N 
ATOM     11  C   UNL     1     -42.515  25.698   1.788  0.00  0.00    +0.237 C 
ATOM     12  H   UNL     1     -44.392  25.842   2.607  0.00  0.00    +0.145 HD
ATOM     13  H   UNL     1     -43.366  27.161   2.949  0.00  0.00    +0.145 HD
ENDBRANCH   4  11
ENDBRANCH   1   8
BRANCH   1  15
ATOM     14  O   UNL     1     -36.481  26.137   1.794  0.00  0.00    -0.272 OA
ATOM     15  N   UNL     1     -37.390  24.477   3.141  0.00  0.00    -0.296 N 
ATOM     16  C   UNL     1     -36.514  25.515   2.853  0.00  0.00    +0.250 C 
ATOM     17  H   UNL     1     -37.333  24.043   4.022  0.00  0.00    +0.150 HD
BRANCH  16  18
ATOM     18  C   UNL     1     -35.583  25.817   4.021  0.00  0.00    +0.187 C 
BRANCH  18  19
ATOM     19  O   UNL     1     -35.728  27.197   4.324  0.00  0.00    -0.376 OA
ATOM     20  H   UNL     1     -34.966  27.496   4.844  0.00  0.00    +0.211 HD
ENDBRANCH  18  19
BRANCH  18  21
ATOM     21  C   UNL     1     -35.899  24.964   5.256  0.00  0.00    +0.050 C 
BRANCH  21  22
ATOM     22  C   UNL     1     -34.792  23.963   5.599  0.00  0.00    +0.112 C 
BRANCH  22  24
ATOM     23  O   UNL     1     -34.757  21.635   6.316  0.00  0.00    -0.250 OA
ATOM     24  C   UNL     1     -35.288  22.536   5.682  0.00  0.00    +0.314 C 
BRANCH  24  25
ATOM     25  O   UNL     1     -36.408  22.355   4.934  0.00  0.00    -0.480 OA
ATOM     26  H   UNL     1     -36.640  22.983   4.279  0.00  0.00    +0.295 HD
ENDBRANCH  24  25
ENDBRANCH  22  24
ENDBRANCH  21  22
ENDBRANCH  18  21
ENDBRANCH  16  18
ENDBRANCH   1  15
BRANCH   1  27
ATOM     27  C   UNL     1     -38.644  22.507   2.313  0.00  0.00    +0.071 C 
BRANCH  27  30
ATOM     28  N   UNL     1     -37.077  20.577   2.463  0.00  0.00    -0.319 N 
ATOM     29  N   UNL     1     -35.747  20.832   0.703  0.00  0.00    -0.315 N 
ATOM     30  C   UNL     1     -37.479  21.685   1.815  0.00  0.00    +0.040 C 
ATOM     31  C   UNL     1     -36.674  21.843   0.745  0.00  0.00    +0.069 C 
ATOM     32  C   UNL     1     -36.017  20.087   1.752  0.00  0.00    +0.182 C 
ATOM     33  H   UNL     1     -37.466  20.197   3.284  0.00  0.00    +0.148 HD
ATOM     34  H   UNL     1     -35.037  20.694   0.035  0.00  0.00    +0.148 HD
ENDBRANCH  27  30
ENDBRANCH   1  27
TORSDOF 11
ENDMDL
MODEL 6
REMARK VINA RESULT:      -6.0      5.163      8.694
REMARK  Name = 196249
REMARK  11 active torsions:
REMARK  status: ('A' for Active; 'I' for Inactive)
REMARK    1  A    between atoms: C_1  and  C_8
REMARK    2  A    between atoms: C_1  and  N_15
REMARK    3  A    between atoms: C_1  and  C_27
REMARK    4  A    between atoms: C_4  and  C_11
REMARK    5  A    between atoms: C_16  and  C_18
REMARK    6  A    between atoms: C_18  and  O_19
REMARK    7  A    between atoms: C_18  and  C_21
REMARK    8  A    between atoms: C_21  and  C_22
REMARK    9  A    between atoms: C_22  and  C_24
REMARK   10  A    between atoms: C_24  and  O_25
REMARK   11  A    between atoms: C_27  and  C_30
REMARK                            x       y       z     vdW  Elec       q    Type
REMARK                         _______ _______ _______ _____ _____    ______ ____
ROOT
ATOM      1  C   UNL     1     -37.354  24.579   3.447  0.00  0.00    +0.155 C 
ENDROOT
BRANCH   1   8
ATOM      2  O   UNL     1     -38.338  22.463   2.978  0.00  0.00    -0.273 OA
ATOM      3  N   UNL     1     -36.334  22.951   1.929  0.00  0.00    -0.272 N 
ATOM      4  C   UNL     1     -36.302  21.771   1.075  0.00  0.00    +0.152 C 
ATOM      5  C   UNL     1     -35.237  22.079   0.028  0.00  0.00    +0.031 C 
ATOM      6  C   UNL     1     -34.280  23.015   0.761  0.00  0.00    +0.024 C 
ATOM      7  C   UNL     1     -35.203  23.833   1.652  0.00  0.00    +0.094 C 
ATOM      8  C   UNL     1     -37.400  23.234   2.768  0.00  0.00    +0.244 C 
BRANCH   4  11
ATOM      9  O   UNL     1     -34.750  20.423   2.295  0.00  0.00    -0.274 OA
ATOM     10  N   UNL     1     -36.961  19.785   2.268  0.00  0.00    -0.327 N 
ATOM     11  C   UNL     1     -35.911  20.610   1.939  0.00  0.00    +0.237 C 
ATOM     12  H   UNL     1     -36.807  18.995   2.835  0.00  0.00    +0.145 HD
ATOM     13  H   UNL     1     -37.866  19.986   1.939  0.00  0.00    +0.145 HD
ENDBRANCH   4  11
ENDBRANCH   1   8
BRANCH   1  15
ATOM     14  O   UNL     1     -38.865  26.568   2.010  0.00  0.00    -0.272 OA
ATOM     15  N   UNL     1     -38.742  24.922   3.642  0.00  0.00    -0.296 N 
ATOM     16  C   UNL     1     -39.388  25.899   2.897  0.00  0.00    +0.250 C 
ATOM     17  H   UNL     1     -39.254  24.442   4.333  0.00  0.00    +0.150 HD
BRANCH  16  18
ATOM     18  C   UNL     1     -40.850  26.049   3.296  0.00  0.00    +0.187 C 
BRANCH  18  19
ATOM     19  O   UNL     1     -40.931  27.161   4.178  0.00  0.00    -0.376 OA
ATOM     20  H   UNL     1     -40.244  27.805   3.948  0.00  0.00    +0.211 HD
ENDBRANCH  18  19
BRANCH  18  21
ATOM     21  C   UNL     1     -41.767  26.261   2.086  0.00  0.00    +0.050 C 
BRANCH  21  22
ATOM     22  C   UNL     1     -43.062  27.003   2.430  0.00  0.00    +0.112 C 
BRANCH  22  24
ATOM     23  O   UNL     1     -43.797  28.731   0.878  0.00  0.00    -0.250 OA
ATOM     24  C   UNL     1     -43.122  28.395   1.841  0.00  0.00    +0.314 C 
BRANCH  24  25
ATOM     25  O   UNL     1     -42.300  29.250   2.505  0.00  0.00    -0.480 OA
ATOM     26  H   UNL     1     -42.364  29.334   3.435  0.00  0.00    +0.295 HD
ENDBRANCH  24  25
ENDBRANCH  22  24
ENDBRANCH  21  22
ENDBRANCH  18  21
ENDBRANCH  16  18
ENDBRANCH   1  15
BRANCH   1  27
ATOM     27  C   UNL     1     -36.571  24.497   4.757  0.00  0.00    +0.071 C 
BRANCH  27  30
ATOM     28  N   UNL     1     -34.511  25.463   5.769  0.00  0.00    -0.319 N 
ATOM     29  N   UNL     1     -34.119  27.277   4.549  0.00  0.00    -0.315 N 
ATOM     30  C   UNL     1     -35.478  25.536   4.837  0.00  0.00    +0.040 C 
ATOM     31  C   UNL     1     -35.244  26.636   4.094  0.00  0.00    +0.069 C 
ATOM     32  C   UNL     1     -33.701  26.545   5.558  0.00  0.00    +0.182 C 
ATOM     33  H   UNL     1     -34.407  24.772   6.462  0.00  0.00    +0.148 HD
ATOM     34  H   UNL     1     -33.712  28.102   4.197  0.00  0.00    +0.148 HD
ENDBRANCH  27  30
ENDBRANCH   1  27
TORSDOF 11
ENDMDL
MODEL 7
REMARK VINA RESULT:      -5.9      5.886      9.861
REMARK  Name = 196249
REMARK  11 active torsions:
REMARK  status: ('A' for Active; 'I' for Inactive)
REMARK    1  A    between atoms: C_1  and  C_8
REMARK    2  A    between atoms: C_1  and  N_15
REMARK    3  A    between atoms: C_1  and  C_27
REMARK    4  A    between atoms: C_4  and  C_11
REMARK    5  A    between atoms: C_16  and  C_18
REMARK    6  A    between atoms: C_18  and  O_19
REMARK    7  A    between atoms: C_18  and  C_21
REMARK    8  A    between atoms: C_21  and  C_22
REMARK    9  A    between atoms: C_22  and  C_24
REMARK   10  A    between atoms: C_24  and  O_25
REMARK   11  A    between atoms: C_27  and  C_30
REMARK                            x       y       z     vdW  Elec       q    Type
REMARK                         _______ _______ _______ _____ _____    ______ ____
ROOT
ATOM      1  C   UNL     1     -38.239  23.044   2.406  0.00  0.00    +0.155 C 
ENDROOT
BRANCH   1   8
ATOM      2  O   UNL     1     -39.534  24.584   3.679  0.00  0.00    -0.273 OA
ATOM      3  N   UNL     1     -39.331  24.996   1.411  0.00  0.00    -0.272 N 
ATOM      4  C   UNL     1     -39.995  26.293   1.418  0.00  0.00    +0.152 C 
ATOM      5  C   UNL     1     -39.643  26.916   0.071  0.00  0.00    +0.031 C 
ATOM      6  C   UNL     1     -39.454  25.706  -0.841  0.00  0.00    +0.024 C 
ATOM      7  C   UNL     1     -38.827  24.669   0.079  0.00  0.00    +0.094 C 
ATOM      8  C   UNL     1     -39.091  24.276   2.571  0.00  0.00    +0.244 C 
BRANCH   4  11
ATOM      9  O   UNL     1     -41.960  24.938   1.293  0.00  0.00    -0.274 OA
ATOM     10  N   UNL     1     -42.191  27.135   1.938  0.00  0.00    -0.327 N 
ATOM     11  C   UNL     1     -41.467  26.035   1.542  0.00  0.00    +0.237 C 
ATOM     12  H   UNL     1     -43.167  27.067   2.051  0.00  0.00    +0.145 HD
ATOM     13  H   UNL     1     -41.734  27.989   2.111  0.00  0.00    +0.145 HD
ENDBRANCH   4  11
ENDBRANCH   1   8
BRANCH   1  15
ATOM     14  O   UNL     1     -35.663  21.802   2.766  0.00  0.00    -0.272 OA
ATOM     15  N   UNL     1     -37.466  22.988   3.624  0.00  0.00    -0.296 N 
ATOM     16  C   UNL     1     -36.228  22.364   3.701  0.00  0.00    +0.250 C 
ATOM     17  H   UNL     1     -37.832  23.409   4.435  0.00  0.00    +0.150 HD
BRANCH  16  18
ATOM     18  C   UNL     1     -35.624  22.463   5.096  0.00  0.00    +0.187 C 
BRANCH  18  19
ATOM     19  O   UNL     1     -34.980  21.224   5.361  0.00  0.00    -0.376 OA
ATOM     20  H   UNL     1     -34.123  21.390   5.784  0.00  0.00    +0.211 HD
ENDBRANCH  18  19
BRANCH  18  21
ATOM     21  C   UNL     1     -34.626  23.620   5.219  0.00  0.00    +0.050 C 
BRANCH  21  22
ATOM     22  C   UNL     1     -35.182  24.820   5.992  0.00  0.00    +0.112 C 
BRANCH  22  24
ATOM     23  O   UNL     1     -35.009  26.833   4.632  0.00  0.00    -0.250 OA
ATOM     24  C   UNL     1     -35.687  25.924   5.090  0.00  0.00    +0.314 C 
BRANCH  24  25
ATOM     25  O   UNL     1     -37.021  25.804   4.858  0.00  0.00    -0.480 OA
ATOM     26  H   UNL     1     -37.413  24.955   4.806  0.00  0.00    +0.295 HD
ENDBRANCH  24  25
ENDBRANCH  22  24
ENDBRANCH  21  22
ENDBRANCH  18  21
ENDBRANCH  16  18
ENDBRANCH   1  15
BRANCH   1  27
ATOM     27  C   UNL     1     -39.112  21.807   2.198  0.00  0.00    +0.071 C 
BRANCH  27  30
ATOM     28  N   UNL     1     -37.589  20.162   1.114  0.00  0.00    -0.319 N 
ATOM     29  N   UNL     1     -38.386  19.978  -0.951  0.00  0.00    -0.315 N 
ATOM     30  C   UNL     1     -38.655  20.976   1.022  0.00  0.00    +0.040 C 
ATOM     31  C   UNL     1     -39.143  20.867  -0.230  0.00  0.00    +0.069 C 
ATOM     32  C   UNL     1     -37.458  19.570  -0.113  0.00  0.00    +0.182 C 
ATOM     33  H   UNL     1     -37.017  20.020   1.903  0.00  0.00    +0.148 HD
ATOM     34  H   UNL     1     -38.510  19.703  -1.888  0.00  0.00    +0.148 HD
ENDBRANCH  27  30
ENDBRANCH   1  27
TORSDOF 11
ENDMDL
MODEL 8
REMARK VINA RESULT:      -5.9      3.300      7.991
REMARK  Name = 196249
REMARK  11 active torsions:
REMARK  status: ('A' for Active; 'I' for Inactive)
REMARK    1  A    between atoms: C_1  and  C_8
REMARK    2  A    between atoms: C_1  and  N_15
REMARK    3  A    between atoms: C_1  and  C_27
REMARK    4  A    between atoms: C_4  and  C_11
REMARK    5  A    between atoms: C_16  and  C_18
REMARK    6  A    between atoms: C_18  and  O_19
REMARK    7  A    between atoms: C_18  and  C_21
REMARK    8  A    between atoms: C_21  and  C_22
REMARK    9  A    between atoms: C_22  and  C_24
REMARK   10  A    between atoms: C_24  and  O_25
REMARK   11  A    between atoms: C_27  and  C_30
REMARK                            x       y       z     vdW  Elec       q    Type
REMARK                         _______ _______ _______ _____ _____    ______ ____
ROOT
ATOM      1  C   UNL     1     -34.606  25.658   3.865  0.00  0.00    +0.155 C 
ENDROOT
BRANCH   1   8
ATOM      2  O   UNL     1     -36.606  26.169   5.053  0.00  0.00    -0.273 OA
ATOM      3  N   UNL     1     -36.804  25.737   2.788  0.00  0.00    -0.272 N 
ATOM      4  C   UNL     1     -38.217  26.077   2.678  0.00  0.00    +0.152 C 
ATOM      5  C   UNL     1     -38.467  26.215   1.180  0.00  0.00    +0.031 C 
ATOM      6  C   UNL     1     -37.442  25.268   0.561  0.00  0.00    +0.024 C 
ATOM      7  C   UNL     1     -36.240  25.401   1.483  0.00  0.00    +0.094 C 
ATOM      8  C   UNL     1     -36.093  25.883   3.969  0.00  0.00    +0.244 C 
BRANCH   4  11
ATOM      9  O   UNL     1     -38.583  23.779   3.227  0.00  0.00    -0.274 OA
ATOM     10  N   UNL     1     -40.190  25.311   3.828  0.00  0.00    -0.327 N 
ATOM     11  C   UNL     1     -38.992  24.937   3.267  0.00  0.00    +0.237 C 
ATOM     12  H   UNL     1     -40.773  24.634   4.243  0.00  0.00    +0.145 HD
ATOM     13  H   UNL     1     -40.465  26.256   3.815  0.00  0.00    +0.145 HD
ENDBRANCH   4  11
ENDBRANCH   1   8
BRANCH   1  15
ATOM     14  O   UNL     1     -32.987  26.912   1.838  0.00  0.00    -0.272 OA
ATOM     15  N   UNL     1     -34.047  26.988   3.902  0.00  0.00    -0.296 N 
ATOM     16  C   UNL     1     -33.275  27.508   2.872  0.00  0.00    +0.250 C 
ATOM     17  H   UNL     1     -34.220  27.550   4.692  0.00  0.00    +0.150 HD
BRANCH  16  18
ATOM     18  C   UNL     1     -32.825  28.935   3.161  0.00  0.00    +0.187 C 
BRANCH  18  19
ATOM     19  O   UNL     1     -33.892  29.580   3.842  0.00  0.00    -0.376 OA
ATOM     20  H   UNL     1     -34.396  30.120   3.214  0.00  0.00    +0.211 HD
ENDBRANCH  18  19
BRANCH  18  21
ATOM     21  C   UNL     1     -31.546  28.984   4.005  0.00  0.00    +0.050 C 
BRANCH  21  22
ATOM     22  C   UNL     1     -31.806  29.307   5.479  0.00  0.00    +0.112 C 
BRANCH  22  24
ATOM     23  O   UNL     1     -32.861  27.507   6.736  0.00  0.00    -0.250 OA
ATOM     24  C   UNL     1     -31.847  28.078   6.358  0.00  0.00    +0.314 C 
BRANCH  24  25
ATOM     25  O   UNL     1     -30.597  27.679   6.713  0.00  0.00    -0.480 OA
ATOM     26  H   UNL     1     -30.324  27.732   7.607  0.00  0.00    +0.295 HD
ENDBRANCH  24  25
ENDBRANCH  22  24
ENDBRANCH  21  22
ENDBRANCH  18  21
ENDBRANCH  16  18
ENDBRANCH   1  15
BRANCH   1  27
ATOM     27  C   UNL     1     -34.113  24.772   5.008  0.00  0.00    +0.071 C 
BRANCH  27  30
ATOM     28  N   UNL     1     -35.050  22.790   3.828  0.00  0.00    -0.319 N 
ATOM     29  N   UNL     1     -35.661  21.429   5.474  0.00  0.00    -0.315 N 
ATOM     30  C   UNL     1     -34.750  23.403   4.987  0.00  0.00    +0.040 C 
ATOM     31  C   UNL     1     -35.119  22.579   5.989  0.00  0.00    +0.069 C 
ATOM     32  C   UNL     1     -35.605  21.587   4.169  0.00  0.00    +0.182 C 
ATOM     33  H   UNL     1     -34.902  23.136   2.918  0.00  0.00    +0.148 HD
ATOM     34  H   UNL     1     -36.013  20.655   5.970  0.00  0.00    +0.148 HD
ENDBRANCH  27  30
ENDBRANCH   1  27
TORSDOF 11
ENDMDL
MODEL 9
REMARK VINA RESULT:      -5.9      4.732      8.075
REMARK  Name = 196249
REMARK  11 active torsions:
REMARK  status: ('A' for Active; 'I' for Inactive)
REMARK    1  A    between atoms: C_1  and  C_8
REMARK    2  A    between atoms: C_1  and  N_15
REMARK    3  A    between atoms: C_1  and  C_27
REMARK    4  A    between atoms: C_4  and  C_11
REMARK    5  A    between atoms: C_16  and  C_18
REMARK    6  A    between atoms: C_18  and  O_19
REMARK    7  A    between atoms: C_18  and  C_21
REMARK    8  A    between atoms: C_21  and  C_22
REMARK    9  A    between atoms: C_22  and  C_24
REMARK   10  A    between atoms: C_24  and  O_25
REMARK   11  A    between atoms: C_27  and  C_30
REMARK                            x       y       z     vdW  Elec       q    Type
REMARK                         _______ _______ _______ _____ _____    ______ ____
ROOT
ATOM      1  C   UNL     1     -35.047  22.497   1.512  0.00  0.00    +0.155 C 
ENDROOT
BRANCH   1   8
ATOM      2  O   UNL     1     -34.695  24.822   1.140  0.00  0.00    -0.273 OA
ATOM      3  N   UNL     1     -35.218  24.165   3.296  0.00  0.00    -0.272 N 
ATOM      4  C   UNL     1     -35.343  25.507   3.852  0.00  0.00    +0.152 C 
ATOM      5  C   UNL     1     -36.050  25.307   5.189  0.00  0.00    +0.031 C 
ATOM      6  C   UNL     1     -35.621  23.905   5.611  0.00  0.00    +0.024 C 
ATOM      7  C   UNL     1     -35.547  23.149   4.293  0.00  0.00    +0.094 C 
ATOM      8  C   UNL     1     -34.970  23.937   1.952  0.00  0.00    +0.244 C 
BRANCH   4  11
ATOM      9  O   UNL     1     -32.965  25.315   3.994  0.00  0.00    -0.274 OA
ATOM     10  N   UNL     1     -33.908  27.398   4.258  0.00  0.00    -0.327 N 
ATOM     11  C   UNL     1     -33.955  26.042   4.033  0.00  0.00    +0.237 C 
ATOM     12  H   UNL     1     -33.040  27.845   4.388  0.00  0.00    +0.145 HD
ATOM     13  H   UNL     1     -34.741  27.920   4.289  0.00  0.00    +0.145 HD
ENDBRANCH   4  11
ENDBRANCH   1   8
BRANCH   1  15
ATOM     14  O   UNL     1     -36.763  20.256   2.093  0.00  0.00    -0.272 OA
ATOM     15  N   UNL     1     -36.422  22.329   1.104  0.00  0.00    -0.296 N 
ATOM     16  C   UNL     1     -37.172  21.208   1.433  0.00  0.00    +0.250 C 
ATOM     17  H   UNL     1     -36.845  23.038   0.569  0.00  0.00    +0.150 HD
BRANCH  16  18
ATOM     18  C   UNL     1     -38.592  21.291   0.889  0.00  0.00    +0.187 C 
BRANCH  18  19
ATOM     19  O   UNL     1     -38.938  19.994   0.424  0.00  0.00    -0.376 OA
ATOM     20  H   UNL     1     -38.133  19.466   0.313  0.00  0.00    +0.211 HD
ENDBRANCH  18  19
BRANCH  18  21
ATOM     21  C   UNL     1     -39.596  21.764   1.948  0.00  0.00    +0.050 C 
BRANCH  21  22
ATOM     22  C   UNL     1     -40.011  23.228   1.778  0.00  0.00    +0.112 C 
BRANCH  22  24
ATOM     23  O   UNL     1     -39.078  24.429   3.681  0.00  0.00    -0.250 OA
ATOM     24  C   UNL     1     -39.082  24.193   2.482  0.00  0.00    +0.314 C 
BRANCH  24  25
ATOM     25  O   UNL     1     -38.244  24.804   1.603  0.00  0.00    -0.480 OA
ATOM     26  H   UNL     1     -38.358  25.711   1.401  0.00  0.00    +0.295 HD
ENDBRANCH  24  25
ENDBRANCH  22  24
ENDBRANCH  21  22
ENDBRANCH  18  21
ENDBRANCH  16  18
ENDBRANCH   1  15
BRANCH   1  27
ATOM     27  C   UNL     1     -34.053  22.222   0.385  0.00  0.00    +0.071 C 
BRANCH  27  30
ATOM     28  N   UNL     1     -33.916  19.894   1.258  0.00  0.00    -0.319 N 
ATOM     29  N   UNL     1     -31.968  19.151   0.489  0.00  0.00    -0.315 N 
ATOM     30  C   UNL     1     -33.359  20.891   0.546  0.00  0.00    +0.040 C 
ATOM     31  C   UNL     1     -32.177  20.443   0.077  0.00  0.00    +0.069 C 
ATOM     32  C   UNL     1     -33.034  18.850   1.198  0.00  0.00    +0.182 C 
ATOM     33  H   UNL     1     -34.781  19.913   1.727  0.00  0.00    +0.148 HD
ATOM     34  H   UNL     1     -31.194  18.575   0.296  0.00  0.00    +0.148 HD
ENDBRANCH  27  30
ENDBRANCH   1  27
TORSDOF 11
ENDMDL
