MODEL 1
REMARK VINA RESULT:      -6.0      0.000      0.000
REMARK  Name = 54733865
REMARK  17 active torsions:
REMARK  status: ('A' for Active; 'I' for Inactive)
REMARK    1  A    between atoms: C_1  and  C_2
REMARK    2  A    between atoms: C_1  and  C_20
REMARK    3  A    between atoms: C_2  and  O_4
REMARK    4  A    between atoms: C_2  and  C_6
REMARK    5  A    between atoms: C_6  and  C_7
REMARK    6  A    between atoms: C_7  and  C_8
REMARK    7  A    between atoms: C_8  and  C_11
REMARK    8  A    between atoms: N_10  and  C_15
REMARK    9  A    between atoms: C_15  and  C_17
REMARK   10  A    between atoms: C_17  and  O_18
REMARK   11  A    between atoms: C_20  and  C_21
REMARK   12  A    between atoms: C_22  and  C_24
REMARK   13  A    between atoms: C_24  and  C_25
REMARK   14  A    between atoms: C_25  and  C_26
REMARK   15  A    between atoms: C_26  and  C_27
REMARK   16  A    between atoms: C_27  and  C_31
REMARK   17  A    between atoms: C_33  and  O_37
REMARK                            x       y       z     vdW  Elec       q    Type
REMARK                         _______ _______ _______ _____ _____    ______ ____
ROOT
ATOM      1  C   UNL     1     -33.545  25.710   3.158  0.00  0.00    +0.032 C 
ENDROOT
BRANCH   1   2
ATOM      2  C   UNL     1     -34.143  26.435   4.385  0.00  0.00    +0.089 C 
ATOM      3  C   UNL     1     -33.096  27.299   5.101  0.00  0.00    +0.029 C 
BRANCH   2   4
ATOM      4  O   UNL     1     -35.181  27.303   3.923  0.00  0.00    -0.387 OA
ATOM      5  H   UNL     1     -34.787  28.087   3.508  0.00  0.00    +0.210 HD
ENDBRANCH   2   4
BRANCH   2   6
ATOM      6  C   UNL     1     -34.746  25.433   5.400  0.00  0.00    +0.027 C 
BRANCH   6   7
ATOM      7  C   UNL     1     -34.311  23.973   5.199  0.00  0.00    +0.007 C 
BRANCH   7   8
ATOM      8  C   UNL     1     -35.455  22.977   5.416  0.00  0.00    +0.031 C 
BRANCH   8  11
ATOM      9  O   UNL     1     -37.815  24.012   3.876  0.00  0.00    -0.270 OA
ATOM     10  N   UNL     1     -37.432  22.272   2.336  0.00  0.00    -0.262 N 
ATOM     11  C   UNL     1     -36.029  22.444   4.147  0.00  0.00    +0.029 C 
ATOM     12  C   UNL     1     -35.642  21.399   3.405  0.00  0.00    -0.004 C 
ATOM     13  C   UNL     1     -36.487  21.193   2.196  0.00  0.00    +0.121 C 
ATOM     14  C   UNL     1     -37.204  23.038   3.469  0.00  0.00    +0.245 C 
BRANCH  10  15
ATOM     15  C   UNL     1     -38.502  22.528   1.395  0.00  0.00    +0.204 C 
BRANCH  15  17
ATOM     16  O   UNL     1     -39.547  20.705   0.220  0.00  0.00    -0.248 OA
ATOM     17  C   UNL     1     -39.446  21.362   1.249  0.00  0.00    +0.334 C 
BRANCH  17  18
ATOM     18  O   UNL     1     -40.173  21.111   2.363  0.00  0.00    -0.479 OA
ATOM     19  H   UNL     1     -40.879  20.496   2.332  0.00  0.00    +0.295 HD
ENDBRANCH  17  18
ENDBRANCH  15  17
ENDBRANCH  10  15
ENDBRANCH   8  11
ENDBRANCH   7   8
ENDBRANCH   6   7
ENDBRANCH   2   6
ENDBRANCH   1   2
BRANCH   1  20
ATOM     20  C   UNL     1     -34.412  25.780   1.892  0.00  0.00    +0.028 C 
BRANCH  20  21
ATOM     21  C   UNL     1     -34.571  24.419   1.270  0.00  0.00    -0.035 C 
ATOM     22  C   UNL     1     -33.747  23.821   0.388  0.00  0.00    -0.048 C 
ATOM     23  C   UNL     1     -32.482  24.437  -0.143  0.00  0.00    +0.026 C 
BRANCH  22  24
ATOM     24  C   UNL     1     -34.047  22.419  -0.105  0.00  0.00    +0.022 C 
BRANCH  24  25
ATOM     25  C   UNL     1     -32.827  21.486  -0.140  0.00  0.00    +0.005 C 
BRANCH  25  26
ATOM     26  C   UNL     1     -33.028  20.206   0.684  0.00  0.00    +0.005 C 
BRANCH  26  27
ATOM     27  C   UNL     1     -33.485  18.993  -0.155  0.00  0.00    +0.025 C 
ATOM     28  C   UNL     1     -32.881  19.113  -1.561  0.00  0.00    +0.005 C 
BRANCH  27  31
ATOM     29  O   UNL     1     -35.059  16.475  -0.499  0.00  0.00    -0.418 OA
ATOM     30  O   UNL     1     -35.917  14.365  -0.805  0.00  0.00    -0.245 OA
ATOM     31  C   UNL     1     -34.990  18.830  -0.129  0.00  0.00    +0.014 C 
ATOM     32  C   UNL     1     -35.689  17.699  -0.284  0.00  0.00    +0.178 C 
ATOM     33  C   UNL     1     -37.098  17.497  -0.267  0.00  0.00    +0.170 C 
ATOM     34  C   UNL     1     -37.385  16.216  -0.461  0.00  0.00    +0.091 C 
ATOM     35  C   UNL     1     -36.076  15.560  -0.610  0.00  0.00    +0.345 C 
ATOM     36  C   UNL     1     -38.680  15.505  -0.530  0.00  0.00    +0.041 C 
BRANCH  33  37
ATOM     37  O   UNL     1     -38.003  18.501  -0.078  0.00  0.00    -0.503 OA
ATOM     38  H   UNL     1     -38.448  18.876  -0.812  0.00  0.00    +0.292 HD
ENDBRANCH  33  37
ENDBRANCH  27  31
ENDBRANCH  26  27
ENDBRANCH  25  26
ENDBRANCH  24  25
ENDBRANCH  22  24
ENDBRANCH  20  21
ENDBRANCH   1  20
TORSDOF 17
ENDMDL
MODEL 2
REMARK VINA RESULT:      -5.8      4.943      8.436
REMARK  Name = 54733865
REMARK  17 active torsions:
REMARK  status: ('A' for Active; 'I' for Inactive)
REMARK    1  A    between atoms: C_1  and  C_2
REMARK    2  A    between atoms: C_1  and  C_20
REMARK    3  A    between atoms: C_2  and  O_4
REMARK    4  A    between atoms: C_2  and  C_6
REMARK    5  A    between atoms: C_6  and  C_7
REMARK    6  A    between atoms: C_7  and  C_8
REMARK    7  A    between atoms: C_8  and  C_11
REMARK    8  A    between atoms: N_10  and  C_15
REMARK    9  A    between atoms: C_15  and  C_17
REMARK   10  A    between atoms: C_17  and  O_18
REMARK   11  A    between atoms: C_20  and  C_21
REMARK   12  A    between atoms: C_22  and  C_24
REMARK   13  A    between atoms: C_24  and  C_25
REMARK   14  A    between atoms: C_25  and  C_26
REMARK   15  A    between atoms: C_26  and  C_27
REMARK   16  A    between atoms: C_27  and  C_31
REMARK   17  A    between atoms: C_33  and  O_37
REMARK                            x       y       z     vdW  Elec       q    Type
REMARK                         _______ _______ _______ _____ _____    ______ ____
ROOT
ATOM      1  C   UNL     1     -36.727  28.004   1.254  0.00  0.00    +0.032 C 
ENDROOT
BRANCH   1   2
ATOM      2  C   UNL     1     -36.306  29.469   0.998  0.00  0.00    +0.089 C 
ATOM      3  C   UNL     1     -37.287  30.188   0.062  0.00  0.00    +0.029 C 
BRANCH   2   4
ATOM      4  O   UNL     1     -36.317  30.158   2.251  0.00  0.00    -0.387 OA
ATOM      5  H   UNL     1     -36.283  31.114   2.095  0.00  0.00    +0.210 HD
ENDBRANCH   2   4
BRANCH   2   6
ATOM      6  C   UNL     1     -34.882  29.555   0.394  0.00  0.00    +0.027 C 
BRANCH   6   7
ATOM      7  C   UNL     1     -33.899  30.429   1.189  0.00  0.00    +0.007 C 
BRANCH   7   8
ATOM      8  C   UNL     1     -32.621  29.680   1.580  0.00  0.00    +0.031 C 
BRANCH   8  11
ATOM      9  O   UNL     1     -30.062  28.864   2.922  0.00  0.00    -0.270 OA
ATOM     10  N   UNL     1     -30.934  29.792   4.902  0.00  0.00    -0.262 N 
ATOM     11  C   UNL     1     -32.226  29.879   3.005  0.00  0.00    +0.029 C 
ATOM     12  C   UNL     1     -32.901  30.455   4.007  0.00  0.00    -0.004 C 
ATOM     13  C   UNL     1     -32.153  30.454   5.294  0.00  0.00    +0.121 C 
ATOM     14  C   UNL     1     -30.929  29.433   3.563  0.00  0.00    +0.245 C 
BRANCH  10  15
ATOM     15  C   UNL     1     -29.837  29.529   5.809  0.00  0.00    +0.204 C 
BRANCH  15  17
ATOM     16  O   UNL     1     -28.740  27.394   5.999  0.00  0.00    -0.248 OA
ATOM     17  C   UNL     1     -29.736  28.078   6.204  0.00  0.00    +0.334 C 
BRANCH  17  18
ATOM     18  O   UNL     1     -30.851  27.601   6.804  0.00  0.00    -0.479 OA
ATOM     19  H   UNL     1     -31.502  28.196   7.121  0.00  0.00    +0.295 HD
ENDBRANCH  17  18
ENDBRANCH  15  17
ENDBRANCH  10  15
ENDBRANCH   8  11
ENDBRANCH   7   8
ENDBRANCH   6   7
ENDBRANCH   2   6
ENDBRANCH   1   2
BRANCH   1  20
ATOM     20  C   UNL     1     -35.557  27.032   1.462  0.00  0.00    +0.028 C 
BRANCH  20  21
ATOM     21  C   UNL     1     -35.134  26.997   2.906  0.00  0.00    -0.035 C 
ATOM     22  C   UNL     1     -33.942  26.610   3.400  0.00  0.00    -0.048 C 
ATOM     23  C   UNL     1     -32.792  26.128   2.558  0.00  0.00    +0.026 C 
BRANCH  22  24
ATOM     24  C   UNL     1     -33.676  26.680   4.891  0.00  0.00    +0.022 C 
BRANCH  24  25
ATOM     25  C   UNL     1     -34.592  25.785   5.739  0.00  0.00    +0.005 C 
BRANCH  25  26
ATOM     26  C   UNL     1     -34.333  24.287   5.523  0.00  0.00    +0.005 C 
BRANCH  26  27
ATOM     27  C   UNL     1     -35.619  23.433   5.491  0.00  0.00    +0.025 C 
ATOM     28  C   UNL     1     -35.383  22.156   6.309  0.00  0.00    +0.005 C 
BRANCH  27  31
ATOM     29  O   UNL     1     -37.717  24.938   3.983  0.00  0.00    -0.418 OA
ATOM     30  O   UNL     1     -39.365  26.308   3.153  0.00  0.00    -0.245 OA
ATOM     31  C   UNL     1     -36.095  23.192   4.073  0.00  0.00    +0.014 C 
ATOM     32  C   UNL     1     -37.035  23.870   3.404  0.00  0.00    +0.178 C 
ATOM     33  C   UNL     1     -37.514  23.680   2.077  0.00  0.00    +0.170 C 
ATOM     34  C   UNL     1     -38.457  24.569   1.793  0.00  0.00    +0.091 C 
ATOM     35  C   UNL     1     -38.588  25.377   3.017  0.00  0.00    +0.345 C 
ATOM     36  C   UNL     1     -39.256  24.788   0.568  0.00  0.00    +0.041 C 
BRANCH  33  37
ATOM     37  O   UNL     1     -37.048  22.710   1.237  0.00  0.00    -0.503 OA
ATOM     38  H   UNL     1     -36.233  22.286   1.417  0.00  0.00    +0.292 HD
ENDBRANCH  33  37
ENDBRANCH  27  31
ENDBRANCH  26  27
ENDBRANCH  25  26
ENDBRANCH  24  25
ENDBRANCH  22  24
ENDBRANCH  20  21
ENDBRANCH   1  20
TORSDOF 17
ENDMDL
MODEL 3
REMARK VINA RESULT:      -5.8      4.676      8.199
REMARK  Name = 54733865
REMARK  17 active torsions:
REMARK  status: ('A' for Active; 'I' for Inactive)
REMARK    1  A    between atoms: C_1  and  C_2
REMARK    2  A    between atoms: C_1  and  C_20
REMARK    3  A    between atoms: C_2  and  O_4
REMARK    4  A    between atoms: C_2  and  C_6
REMARK    5  A    between atoms: C_6  and  C_7
REMARK    6  A    between atoms: C_7  and  C_8
REMARK    7  A    between atoms: C_8  and  C_11
REMARK    8  A    between atoms: N_10  and  C_15
REMARK    9  A    between atoms: C_15  and  C_17
REMARK   10  A    between atoms: C_17  and  O_18
REMARK   11  A    between atoms: C_20  and  C_21
REMARK   12  A    between atoms: C_22  and  C_24
REMARK   13  A    between atoms: C_24  and  C_25
REMARK   14  A    between atoms: C_25  and  C_26
REMARK   15  A    between atoms: C_26  and  C_27
REMARK   16  A    between atoms: C_27  and  C_31
REMARK   17  A    between atoms: C_33  and  O_37
REMARK                            x       y       z     vdW  Elec       q    Type
REMARK                         _______ _______ _______ _____ _____    ______ ____
ROOT
ATOM      1  C   UNL     1     -37.027  27.450   1.288  0.00  0.00    +0.032 C 
ENDROOT
BRANCH   1   2
ATOM      2  C   UNL     1     -36.544  28.761   0.628  0.00  0.00    +0.089 C 
ATOM      3  C   UNL     1     -35.439  28.504  -0.405  0.00  0.00    +0.029 C 
BRANCH   2   4
ATOM      4  O   UNL     1     -37.654  29.346  -0.058  0.00  0.00    -0.387 OA
ATOM      5  H   UNL     1     -38.463  29.210   0.460  0.00  0.00    +0.210 HD
ENDBRANCH   2   4
BRANCH   2   6
ATOM      6  C   UNL     1     -36.021  29.770   1.681  0.00  0.00    +0.027 C 
BRANCH   6   7
ATOM      7  C   UNL     1     -34.493  29.929   1.716  0.00  0.00    +0.007 C 
BRANCH   7   8
ATOM      8  C   UNL     1     -33.976  30.399   3.079  0.00  0.00    +0.031 C 
BRANCH   8  11
ATOM      9  O   UNL     1     -32.542  30.182   5.708  0.00  0.00    -0.270 OA
ATOM     10  N   UNL     1     -30.602  29.658   4.481  0.00  0.00    -0.262 N 
ATOM     11  C   UNL     1     -32.541  30.067   3.319  0.00  0.00    +0.029 C 
ATOM     12  C   UNL     1     -31.568  29.792   2.442  0.00  0.00    -0.004 C 
ATOM     13  C   UNL     1     -30.258  29.509   3.089  0.00  0.00    +0.121 C 
ATOM     14  C   UNL     1     -31.936  29.986   4.668  0.00  0.00    +0.245 C 
BRANCH  10  15
ATOM     15  C   UNL     1     -29.658  29.484   5.564  0.00  0.00    +0.204 C 
BRANCH  15  17
ATOM     16  O   UNL     1     -28.560  27.342   5.617  0.00  0.00    -0.248 OA
ATOM     17  C   UNL     1     -29.498  28.044   5.977  0.00  0.00    +0.334 C 
BRANCH  17  18
ATOM     18  O   UNL     1     -30.490  27.598   6.783  0.00  0.00    -0.479 OA
ATOM     19  H   UNL     1     -30.815  28.145   7.471  0.00  0.00    +0.295 HD
ENDBRANCH  17  18
ENDBRANCH  15  17
ENDBRANCH  10  15
ENDBRANCH   8  11
ENDBRANCH   7   8
ENDBRANCH   6   7
ENDBRANCH   2   6
ENDBRANCH   1   2
BRANCH   1  20
ATOM     20  C   UNL     1     -35.923  26.408   1.520  0.00  0.00    +0.028 C 
BRANCH  20  21
ATOM     21  C   UNL     1     -35.371  26.507   2.916  0.00  0.00    -0.035 C 
ATOM     22  C   UNL     1     -34.077  26.471   3.288  0.00  0.00    -0.048 C 
ATOM     23  C   UNL     1     -32.924  26.320   2.334  0.00  0.00    +0.026 C 
BRANCH  22  24
ATOM     24  C   UNL     1     -33.700  26.628   4.749  0.00  0.00    +0.022 C 
BRANCH  24  25
ATOM     25  C   UNL     1     -34.400  25.638   5.691  0.00  0.00    +0.005 C 
BRANCH  25  26
ATOM     26  C   UNL     1     -34.244  24.176   5.249  0.00  0.00    +0.005 C 
BRANCH  26  27
ATOM     27  C   UNL     1     -35.533  23.340   5.404  0.00  0.00    +0.025 C 
ATOM     28  C   UNL     1     -35.259  22.189   6.382  0.00  0.00    +0.005 C 
BRANCH  27  31
ATOM     29  O   UNL     1     -37.925  24.417   3.969  0.00  0.00    -0.418 OA
ATOM     30  O   UNL     1     -39.800  25.484   3.178  0.00  0.00    -0.245 OA
ATOM     31  C   UNL     1     -36.083  22.905   4.061  0.00  0.00    +0.014 C 
ATOM     32  C   UNL     1     -37.155  23.392   3.425  0.00  0.00    +0.178 C 
ATOM     33  C   UNL     1     -37.708  23.016   2.167  0.00  0.00    +0.170 C 
ATOM     34  C   UNL     1     -38.780  23.749   1.895  0.00  0.00    +0.091 C 
ATOM     35  C   UNL     1     -38.920  24.648   3.052  0.00  0.00    +0.345 C 
ATOM     36  C   UNL     1     -39.695  23.746   0.734  0.00  0.00    +0.041 C 
BRANCH  33  37
ATOM     37  O   UNL     1     -37.185  22.035   1.375  0.00  0.00    -0.503 OA
ATOM     38  H   UNL     1     -36.291  21.776   1.477  0.00  0.00    +0.292 HD
ENDBRANCH  33  37
ENDBRANCH  27  31
ENDBRANCH  26  27
ENDBRANCH  25  26
ENDBRANCH  24  25
ENDBRANCH  22  24
ENDBRANCH  20  21
ENDBRANCH   1  20
TORSDOF 17
ENDMDL
MODEL 4
REMARK VINA RESULT:      -5.7      4.218      8.117
REMARK  Name = 54733865
REMARK  17 active torsions:
REMARK  status: ('A' for Active; 'I' for Inactive)
REMARK    1  A    between atoms: C_1  and  C_2
REMARK    2  A    between atoms: C_1  and  C_20
REMARK    3  A    between atoms: C_2  and  O_4
REMARK    4  A    between atoms: C_2  and  C_6
REMARK    5  A    between atoms: C_6  and  C_7
REMARK    6  A    between atoms: C_7  and  C_8
REMARK    7  A    between atoms: C_8  and  C_11
REMARK    8  A    between atoms: N_10  and  C_15
REMARK    9  A    between atoms: C_15  and  C_17
REMARK   10  A    between atoms: C_17  and  O_18
REMARK   11  A    between atoms: C_20  and  C_21
REMARK   12  A    between atoms: C_22  and  C_24
REMARK   13  A    between atoms: C_24  and  C_25
REMARK   14  A    between atoms: C_25  and  C_26
REMARK   15  A    between atoms: C_26  and  C_27
REMARK   16  A    between atoms: C_27  and  C_31
REMARK   17  A    between atoms: C_33  and  O_37
REMARK                            x       y       z     vdW  Elec       q    Type
REMARK                         _______ _______ _______ _____ _____    ______ ____
ROOT
ATOM      1  C   UNL     1     -35.863  29.314   1.894  0.00  0.00    +0.032 C 
ENDROOT
BRANCH   1   2
ATOM      2  C   UNL     1     -35.547  30.756   2.352  0.00  0.00    +0.089 C 
ATOM      3  C   UNL     1     -36.600  31.755   1.854  0.00  0.00    +0.029 C 
BRANCH   2   4
ATOM      4  O   UNL     1     -35.566  30.780   3.782  0.00  0.00    -0.387 OA
ATOM      5  H   UNL     1     -34.710  30.476   4.122  0.00  0.00    +0.210 HD
ENDBRANCH   2   4
BRANCH   2   6
ATOM      6  C   UNL     1     -34.150  31.215   1.864  0.00  0.00    +0.027 C 
BRANCH   6   7
ATOM      7  C   UNL     1     -33.217  31.722   2.975  0.00  0.00    +0.007 C 
BRANCH   7   8
ATOM      8  C   UNL     1     -31.866  30.999   2.992  0.00  0.00    +0.031 C 
BRANCH   8  11
ATOM      9  O   UNL     1     -29.148  30.578   4.196  0.00  0.00    -0.270 OA
ATOM     10  N   UNL     1     -30.240  29.647   6.062  0.00  0.00    -0.262 N 
ATOM     11  C   UNL     1     -31.530  30.398   4.315  0.00  0.00    +0.029 C 
ATOM     12  C   UNL     1     -32.339  29.910   5.264  0.00  0.00    -0.004 C 
ATOM     13  C   UNL     1     -31.605  29.393   6.451  0.00  0.00    +0.121 C 
ATOM     14  C   UNL     1     -30.144  30.238   4.812  0.00  0.00    +0.245 C 
BRANCH  10  15
ATOM     15  C   UNL     1     -29.097  29.321   6.887  0.00  0.00    +0.204 C 
BRANCH  15  17
ATOM     16  O   UNL     1     -27.524  27.893   5.754  0.00  0.00    -0.248 OA
ATOM     17  C   UNL     1     -28.470  27.998   6.525  0.00  0.00    +0.334 C 
BRANCH  17  18
ATOM     18  O   UNL     1     -29.054  26.938   7.130  0.00  0.00    -0.479 OA
ATOM     19  H   UNL     1     -29.238  26.162   6.639  0.00  0.00    +0.295 HD
ENDBRANCH  17  18
ENDBRANCH  15  17
ENDBRANCH  10  15
ENDBRANCH   8  11
ENDBRANCH   7   8
ENDBRANCH   6   7
ENDBRANCH   2   6
ENDBRANCH   1   2
BRANCH   1  20
ATOM     20  C   UNL     1     -34.685  28.336   2.008  0.00  0.00    +0.028 C 
BRANCH  20  21
ATOM     21  C   UNL     1     -34.665  27.669   3.357  0.00  0.00    -0.035 C 
ATOM     22  C   UNL     1     -33.892  26.637   3.747  0.00  0.00    -0.048 C 
ATOM     23  C   UNL     1     -32.882  25.953   2.867  0.00  0.00    +0.026 C 
BRANCH  22  24
ATOM     24  C   UNL     1     -33.978  26.116   5.169  0.00  0.00    +0.022 C 
BRANCH  24  25
ATOM     25  C   UNL     1     -34.514  24.681   5.285  0.00  0.00    +0.005 C 
BRANCH  25  26
ATOM     26  C   UNL     1     -36.042  24.601   5.159  0.00  0.00    +0.005 C 
BRANCH  26  27
ATOM     27  C   UNL     1     -36.532  24.308   3.725  0.00  0.00    +0.025 C 
ATOM     28  C   UNL     1     -37.864  25.038   3.501  0.00  0.00    +0.005 C 
BRANCH  27  31
ATOM     29  O   UNL     1     -34.877  22.767   1.769  0.00  0.00    -0.418 OA
ATOM     30  O   UNL     1     -33.442  21.932   0.180  0.00  0.00    -0.245 OA
ATOM     31  C   UNL     1     -36.576  22.821   3.441  0.00  0.00    +0.014 C 
ATOM     32  C   UNL     1     -35.832  22.137   2.563  0.00  0.00    +0.178 C 
ATOM     33  C   UNL     1     -35.838  20.745   2.264  0.00  0.00    +0.170 C 
ATOM     34  C   UNL     1     -34.941  20.470   1.326  0.00  0.00    +0.091 C 
ATOM     35  C   UNL     1     -34.324  21.767   1.008  0.00  0.00    +0.345 C 
ATOM     36  C   UNL     1     -34.567  19.195   0.678  0.00  0.00    +0.041 C 
BRANCH  33  37
ATOM     37  O   UNL     1     -36.664  19.845   2.872  0.00  0.00    -0.503 OA
ATOM     38  H   UNL     1     -37.534  20.095   3.114  0.00  0.00    +0.292 HD
ENDBRANCH  33  37
ENDBRANCH  27  31
ENDBRANCH  26  27
ENDBRANCH  25  26
ENDBRANCH  24  25
ENDBRANCH  22  24
ENDBRANCH  20  21
ENDBRANCH   1  20
TORSDOF 17
ENDMDL
MODEL 5
REMARK VINA RESULT:      -5.7      3.759      7.344
REMARK  Name = 54733865
REMARK  17 active torsions:
REMARK  status: ('A' for Active; 'I' for Inactive)
REMARK    1  A    between atoms: C_1  and  C_2
REMARK    2  A    between atoms: C_1  and  C_20
REMARK    3  A    between atoms: C_2  and  O_4
REMARK    4  A    between atoms: C_2  and  C_6
REMARK    5  A    between atoms: C_6  and  C_7
REMARK    6  A    between atoms: C_7  and  C_8
REMARK    7  A    between atoms: C_8  and  C_11
REMARK    8  A    between atoms: N_10  and  C_15
REMARK    9  A    between atoms: C_15  and  C_17
REMARK   10  A    between atoms: C_17  and  O_18
REMARK   11  A    between atoms: C_20  and  C_21
REMARK   12  A    between atoms: C_22  and  C_24
REMARK   13  A    between atoms: C_24  and  C_25
REMARK   14  A    between atoms: C_25  and  C_26
REMARK   15  A    between atoms: C_26  and  C_27
REMARK   16  A    between atoms: C_27  and  C_31
REMARK   17  A    between atoms: C_33  and  O_37
REMARK                            x       y       z     vdW  Elec       q    Type
REMARK                         _______ _______ _______ _____ _____    ______ ____
ROOT
ATOM      1  C   UNL     1     -35.078  26.153   1.575  0.00  0.00    +0.032 C 
ENDROOT
BRANCH   1   2
ATOM      2  C   UNL     1     -36.194  27.068   1.024  0.00  0.00    +0.089 C 
ATOM      3  C   UNL     1     -37.088  26.333   0.017  0.00  0.00    +0.029 C 
BRANCH   2   4
ATOM      4  O   UNL     1     -37.017  27.472   2.123  0.00  0.00    -0.387 OA
ATOM      5  H   UNL     1     -37.723  26.820   2.254  0.00  0.00    +0.210 HD
ENDBRANCH   2   4
BRANCH   2   6
ATOM      6  C   UNL     1     -35.611  28.334   0.347  0.00  0.00    +0.027 C 
BRANCH   6   7
ATOM      7  C   UNL     1     -35.594  29.588   1.236  0.00  0.00    +0.007 C 
BRANCH   7   8
ATOM      8  C   UNL     1     -34.269  30.353   1.158  0.00  0.00    +0.031 C 
BRANCH   8  11
ATOM      9  O   UNL     1     -34.096  30.771   4.126  0.00  0.00    -0.270 OA
ATOM     10  N   UNL     1     -32.130  29.477   4.082  0.00  0.00    -0.262 N 
ATOM     11  C   UNL     1     -33.231  29.842   2.100  0.00  0.00    +0.029 C 
ATOM     12  C   UNL     1     -32.149  29.092   1.855  0.00  0.00    -0.004 C 
ATOM     13  C   UNL     1     -31.356  28.791   3.078  0.00  0.00    +0.121 C 
ATOM     14  C   UNL     1     -33.244  30.111   3.556  0.00  0.00    +0.245 C 
BRANCH  10  15
ATOM     15  C   UNL     1     -31.780  29.501   5.487  0.00  0.00    +0.204 C 
BRANCH  15  17
ATOM     16  O   UNL     1     -32.962  27.543   6.239  0.00  0.00    -0.248 OA
ATOM     17  C   UNL     1     -31.902  28.150   6.145  0.00  0.00    +0.334 C 
BRANCH  17  18
ATOM     18  O   UNL     1     -30.730  27.674   6.624  0.00  0.00    -0.479 OA
ATOM     19  H   UNL     1     -30.374  28.018   7.420  0.00  0.00    +0.295 HD
ENDBRANCH  17  18
ENDBRANCH  15  17
ENDBRANCH  10  15
ENDBRANCH   8  11
ENDBRANCH   7   8
ENDBRANCH   6   7
ENDBRANCH   2   6
ENDBRANCH   1   2
BRANCH   1  20
ATOM     20  C   UNL     1     -34.560  26.545   2.966  0.00  0.00    +0.028 C 
BRANCH  20  21
ATOM     21  C   UNL     1     -34.278  25.326   3.802  0.00  0.00    -0.035 C 
ATOM     22  C   UNL     1     -34.887  24.960   4.946  0.00  0.00    -0.048 C 
ATOM     23  C   UNL     1     -35.993  25.739   5.605  0.00  0.00    +0.026 C 
BRANCH  22  24
ATOM     24  C   UNL     1     -34.498  23.668   5.637  0.00  0.00    +0.022 C 
BRANCH  24  25
ATOM     25  C   UNL     1     -35.554  22.557   5.541  0.00  0.00    +0.005 C 
BRANCH  25  26
ATOM     26  C   UNL     1     -35.133  21.409   4.612  0.00  0.00    +0.005 C 
BRANCH  26  27
ATOM     27  C   UNL     1     -35.896  21.384   3.270  0.00  0.00    +0.025 C 
ATOM     28  C   UNL     1     -34.886  21.174   2.133  0.00  0.00    +0.005 C 
BRANCH  27  31
ATOM     29  O   UNL     1     -38.585  21.535   1.972  0.00  0.00    -0.418 OA
ATOM     30  O   UNL     1     -40.604  21.265   0.907  0.00  0.00    -0.245 OA
ATOM     31  C   UNL     1     -36.780  22.603   3.107  0.00  0.00    +0.014 C 
ATOM     32  C   UNL     1     -37.983  22.664   2.524  0.00  0.00    +0.178 C 
ATOM     33  C   UNL     1     -38.848  23.781   2.348  0.00  0.00    +0.170 C 
ATOM     34  C   UNL     1     -39.955  23.415   1.716  0.00  0.00    +0.091 C 
ATOM     35  C   UNL     1     -39.787  21.973   1.474  0.00  0.00    +0.345 C 
ATOM     36  C   UNL     1     -41.144  24.191   1.300  0.00  0.00    +0.041 C 
BRANCH  33  37
ATOM     37  O   UNL     1     -38.550  25.042   2.779  0.00  0.00    -0.503 OA
ATOM     38  H   UNL     1     -38.160  25.658   2.192  0.00  0.00    +0.292 HD
ENDBRANCH  33  37
ENDBRANCH  27  31
ENDBRANCH  26  27
ENDBRANCH  25  26
ENDBRANCH  24  25
ENDBRANCH  22  24
ENDBRANCH  20  21
ENDBRANCH   1  20
TORSDOF 17
ENDMDL
MODEL 6
REMARK VINA RESULT:      -5.7      3.247      9.017
REMARK  Name = 54733865
REMARK  17 active torsions:
REMARK  status: ('A' for Active; 'I' for Inactive)
REMARK    1  A    between atoms: C_1  and  C_2
REMARK    2  A    between atoms: C_1  and  C_20
REMARK    3  A    between atoms: C_2  and  O_4
REMARK    4  A    between atoms: C_2  and  C_6
REMARK    5  A    between atoms: C_6  and  C_7
REMARK    6  A    between atoms: C_7  and  C_8
REMARK    7  A    between atoms: C_8  and  C_11
REMARK    8  A    between atoms: N_10  and  C_15
REMARK    9  A    between atoms: C_15  and  C_17
REMARK   10  A    between atoms: C_17  and  O_18
REMARK   11  A    between atoms: C_20  and  C_21
REMARK   12  A    between atoms: C_22  and  C_24
REMARK   13  A    between atoms: C_24  and  C_25
REMARK   14  A    between atoms: C_25  and  C_26
REMARK   15  A    between atoms: C_26  and  C_27
REMARK   16  A    between atoms: C_27  and  C_31
REMARK   17  A    between atoms: C_33  and  O_37
REMARK                            x       y       z     vdW  Elec       q    Type
REMARK                         _______ _______ _______ _____ _____    ______ ____
ROOT
ATOM      1  C   UNL     1     -33.233  26.919   3.889  0.00  0.00    +0.032 C 
ENDROOT
BRANCH   1   2
ATOM      2  C   UNL     1     -34.061  26.257   5.014  0.00  0.00    +0.089 C 
ATOM      3  C   UNL     1     -33.475  26.553   6.401  0.00  0.00    +0.029 C 
BRANCH   2   4
ATOM      4  O   UNL     1     -35.381  26.807   4.972  0.00  0.00    -0.387 OA
ATOM      5  H   UNL     1     -35.385  27.671   5.413  0.00  0.00    +0.210 HD
ENDBRANCH   2   4
BRANCH   2   6
ATOM      6  C   UNL     1     -34.154  24.722   4.825  0.00  0.00    +0.027 C 
BRANCH   6   7
ATOM      7  C   UNL     1     -35.483  24.098   5.282  0.00  0.00    +0.007 C 
BRANCH   7   8
ATOM      8  C   UNL     1     -35.496  22.572   5.155  0.00  0.00    +0.031 C 
BRANCH   8  11
ATOM      9  O   UNL     1     -37.825  23.623   3.580  0.00  0.00    -0.270 OA
ATOM     10  N   UNL     1     -37.343  21.970   1.974  0.00  0.00    -0.262 N 
ATOM     11  C   UNL     1     -36.011  22.087   3.842  0.00  0.00    +0.029 C 
ATOM     12  C   UNL     1     -35.570  21.090   3.065  0.00  0.00    -0.004 C 
ATOM     13  C   UNL     1     -36.366  20.923   1.818  0.00  0.00    +0.121 C 
ATOM     14  C   UNL     1     -37.176  22.685   3.150  0.00  0.00    +0.245 C 
BRANCH  10  15
ATOM     15  C   UNL     1     -38.385  22.246   1.008  0.00  0.00    +0.204 C 
BRANCH  15  17
ATOM     16  O   UNL     1     -39.843  20.600   0.027  0.00  0.00    -0.248 OA
ATOM     17  C   UNL     1     -39.487  21.217   1.024  0.00  0.00    +0.334 C 
BRANCH  17  18
ATOM     18  O   UNL     1     -40.046  21.041   2.243  0.00  0.00    -0.479 OA
ATOM     19  H   UNL     1     -40.978  21.061   2.338  0.00  0.00    +0.295 HD
ENDBRANCH  17  18
ENDBRANCH  15  17
ENDBRANCH  10  15
ENDBRANCH   8  11
ENDBRANCH   7   8
ENDBRANCH   6   7
ENDBRANCH   2   6
ENDBRANCH   1   2
BRANCH   1  20
ATOM     20  C   UNL     1     -33.690  26.563   2.468  0.00  0.00    +0.028 C 
BRANCH  20  21
ATOM     21  C   UNL     1     -34.127  27.791   1.717  0.00  0.00    -0.035 C 
ATOM     22  C   UNL     1     -35.387  28.167   1.425  0.00  0.00    -0.048 C 
ATOM     23  C   UNL     1     -36.615  27.391   1.816  0.00  0.00    +0.026 C 
BRANCH  22  24
ATOM     24  C   UNL     1     -35.643  29.468   0.690  0.00  0.00    +0.022 C 
BRANCH  24  25
ATOM     25  C   UNL     1     -36.036  30.642   1.600  0.00  0.00    +0.005 C 
BRANCH  25  26
ATOM     26  C   UNL     1     -35.283  30.640   2.938  0.00  0.00    +0.005 C 
BRANCH  26  27
ATOM     27  C   UNL     1     -34.103  31.634   2.987  0.00  0.00    +0.025 C 
ATOM     28  C   UNL     1     -34.275  32.658   1.857  0.00  0.00    +0.005 C 
BRANCH  27  31
ATOM     29  O   UNL     1     -32.641  30.488   5.330  0.00  0.00    -0.418 OA
ATOM     30  O   UNL     1     -31.823  29.740   7.343  0.00  0.00    -0.245 OA
ATOM     31  C   UNL     1     -32.768  30.919   2.988  0.00  0.00    +0.014 C 
ATOM     32  C   UNL     1     -32.119  30.408   4.041  0.00  0.00    +0.178 C 
ATOM     33  C   UNL     1     -30.868  29.730   4.091  0.00  0.00    +0.170 C 
ATOM     34  C   UNL     1     -30.578  29.382   5.338  0.00  0.00    +0.091 C 
ATOM     35  C   UNL     1     -31.717  29.869   6.134  0.00  0.00    +0.345 C 
ATOM     36  C   UNL     1     -29.414  28.671   5.908  0.00  0.00    +0.041 C 
BRANCH  33  37
ATOM     37  O   UNL     1     -30.096  29.487   2.991  0.00  0.00    -0.503 OA
ATOM     38  H   UNL     1     -29.664  28.661   2.895  0.00  0.00    +0.292 HD
ENDBRANCH  33  37
ENDBRANCH  27  31
ENDBRANCH  26  27
ENDBRANCH  25  26
ENDBRANCH  24  25
ENDBRANCH  22  24
ENDBRANCH  20  21
ENDBRANCH   1  20
TORSDOF 17
ENDMDL
MODEL 7
REMARK VINA RESULT:      -5.7      2.313      5.471
REMARK  Name = 54733865
REMARK  17 active torsions:
REMARK  status: ('A' for Active; 'I' for Inactive)
REMARK    1  A    between atoms: C_1  and  C_2
REMARK    2  A    between atoms: C_1  and  C_20
REMARK    3  A    between atoms: C_2  and  O_4
REMARK    4  A    between atoms: C_2  and  C_6
REMARK    5  A    between atoms: C_6  and  C_7
REMARK    6  A    between atoms: C_7  and  C_8
REMARK    7  A    between atoms: C_8  and  C_11
REMARK    8  A    between atoms: N_10  and  C_15
REMARK    9  A    between atoms: C_15  and  C_17
REMARK   10  A    between atoms: C_17  and  O_18
REMARK   11  A    between atoms: C_20  and  C_21
REMARK   12  A    between atoms: C_22  and  C_24
REMARK   13  A    between atoms: C_24  and  C_25
REMARK   14  A    between atoms: C_25  and  C_26
REMARK   15  A    between atoms: C_26  and  C_27
REMARK   16  A    between atoms: C_27  and  C_31
REMARK   17  A    between atoms: C_33  and  O_37
REMARK                            x       y       z     vdW  Elec       q    Type
REMARK                         _______ _______ _______ _____ _____    ______ ____
ROOT
ATOM      1  C   UNL     1     -35.359  21.188   2.821  0.00  0.00    +0.032 C 
ENDROOT
BRANCH   1   2
ATOM      2  C   UNL     1     -35.886  22.613   3.103  0.00  0.00    +0.089 C 
ATOM      3  C   UNL     1     -36.137  23.394   1.806  0.00  0.00    +0.029 C 
BRANCH   2   4
ATOM      4  O   UNL     1     -37.135  22.495   3.789  0.00  0.00    -0.387 OA
ATOM      5  H   UNL     1     -37.681  21.821   3.354  0.00  0.00    +0.210 HD
ENDBRANCH   2   4
BRANCH   2   6
ATOM      6  C   UNL     1     -34.904  23.418   3.991  0.00  0.00    +0.027 C 
BRANCH   6   7
ATOM      7  C   UNL     1     -35.465  23.825   5.363  0.00  0.00    +0.007 C 
BRANCH   7   8
ATOM      8  C   UNL     1     -35.956  25.276   5.398  0.00  0.00    +0.031 C 
BRANCH   8  11
ATOM      9  O   UNL     1     -33.339  26.278   6.477  0.00  0.00    -0.270 OA
ATOM     10  N   UNL     1     -33.144  27.557   4.510  0.00  0.00    -0.262 N 
ATOM     11  C   UNL     1     -35.009  26.240   4.765  0.00  0.00    +0.029 C 
ATOM     12  C   UNL     1     -35.095  26.878   3.591  0.00  0.00    -0.004 C 
ATOM     13  C   UNL     1     -33.931  27.765   3.320  0.00  0.00    +0.121 C 
ATOM     14  C   UNL     1     -33.737  26.667   5.392  0.00  0.00    +0.245 C 
BRANCH  10  15
ATOM     15  C   UNL     1     -31.875  28.207   4.756  0.00  0.00    +0.204 C 
BRANCH  15  17
ATOM     16  O   UNL     1     -32.297  30.400   5.657  0.00  0.00    -0.248 OA
ATOM     17  C   UNL     1     -31.948  29.241   5.850  0.00  0.00    +0.334 C 
BRANCH  17  18
ATOM     18  O   UNL     1     -31.588  28.769   7.067  0.00  0.00    -0.479 OA
ATOM     19  H   UNL     1     -32.180  28.838   7.789  0.00  0.00    +0.295 HD
ENDBRANCH  17  18
ENDBRANCH  15  17
ENDBRANCH  10  15
ENDBRANCH   8  11
ENDBRANCH   7   8
ENDBRANCH   6   7
ENDBRANCH   2   6
ENDBRANCH   1   2
BRANCH   1  20
ATOM     20  C   UNL     1     -34.930  20.944   1.367  0.00  0.00    +0.028 C 
BRANCH  20  21
ATOM     21  C   UNL     1     -33.843  19.906   1.291  0.00  0.00    -0.035 C 
ATOM     22  C   UNL     1     -32.692  19.975   0.596  0.00  0.00    -0.048 C 
ATOM     23  C   UNL     1     -32.284  21.148  -0.253  0.00  0.00    +0.026 C 
BRANCH  22  24
ATOM     24  C   UNL     1     -31.687  18.842   0.669  0.00  0.00    +0.022 C 
BRANCH  24  25
ATOM     25  C   UNL     1     -32.312  17.458   0.905  0.00  0.00    +0.005 C 
BRANCH  25  26
ATOM     26  C   UNL     1     -32.040  16.475  -0.242  0.00  0.00    +0.005 C 
BRANCH  26  27
ATOM     27  C   UNL     1     -33.186  16.392  -1.274  0.00  0.00    +0.025 C 
ATOM     28  C   UNL     1     -32.820  17.260  -2.486  0.00  0.00    +0.005 C 
BRANCH  27  31
ATOM     29  O   UNL     1     -35.825  15.099  -1.820  0.00  0.00    -0.418 OA
ATOM     30  O   UNL     1     -37.654  13.882  -2.497  0.00  0.00    -0.245 OA
ATOM     31  C   UNL     1     -34.526  16.720  -0.649  0.00  0.00    +0.014 C 
ATOM     32  C   UNL     1     -35.705  16.137  -0.899  0.00  0.00    +0.178 C 
ATOM     33  C   UNL     1     -36.985  16.409  -0.339  0.00  0.00    +0.170 C 
ATOM     34  C   UNL     1     -37.900  15.601  -0.859  0.00  0.00    +0.091 C 
ATOM     35  C   UNL     1     -37.156  14.760  -1.811  0.00  0.00    +0.345 C 
ATOM     36  C   UNL     1     -39.353  15.487  -0.614  0.00  0.00    +0.041 C 
BRANCH  33  37
ATOM     37  O   UNL     1     -37.209  17.375   0.600  0.00  0.00    -0.503 OA
ATOM     38  H   UNL     1     -37.171  18.280   0.360  0.00  0.00    +0.292 HD
ENDBRANCH  33  37
ENDBRANCH  27  31
ENDBRANCH  26  27
ENDBRANCH  25  26
ENDBRANCH  24  25
ENDBRANCH  22  24
ENDBRANCH  20  21
ENDBRANCH   1  20
TORSDOF 17
ENDMDL
MODEL 8
REMARK VINA RESULT:      -5.7      3.680      9.002
REMARK  Name = 54733865
REMARK  17 active torsions:
REMARK  status: ('A' for Active; 'I' for Inactive)
REMARK    1  A    between atoms: C_1  and  C_2
REMARK    2  A    between atoms: C_1  and  C_20
REMARK    3  A    between atoms: C_2  and  O_4
REMARK    4  A    between atoms: C_2  and  C_6
REMARK    5  A    between atoms: C_6  and  C_7
REMARK    6  A    between atoms: C_7  and  C_8
REMARK    7  A    between atoms: C_8  and  C_11
REMARK    8  A    between atoms: N_10  and  C_15
REMARK    9  A    between atoms: C_15  and  C_17
REMARK   10  A    between atoms: C_17  and  O_18
REMARK   11  A    between atoms: C_20  and  C_21
REMARK   12  A    between atoms: C_22  and  C_24
REMARK   13  A    between atoms: C_24  and  C_25
REMARK   14  A    between atoms: C_25  and  C_26
REMARK   15  A    between atoms: C_26  and  C_27
REMARK   16  A    between atoms: C_27  and  C_31
REMARK   17  A    between atoms: C_33  and  O_37
REMARK                            x       y       z     vdW  Elec       q    Type
REMARK                         _______ _______ _______ _____ _____    ______ ____
ROOT
ATOM      1  C   UNL     1     -35.703  21.501   1.710  0.00  0.00    +0.032 C 
ENDROOT
BRANCH   1   2
ATOM      2  C   UNL     1     -36.957  20.633   1.461  0.00  0.00    +0.089 C 
ATOM      3  C   UNL     1     -36.995  20.086   0.027  0.00  0.00    +0.029 C 
BRANCH   2   4
ATOM      4  O   UNL     1     -36.905  19.515   2.352  0.00  0.00    -0.387 OA
ATOM      5  H   UNL     1     -37.417  19.715   3.151  0.00  0.00    +0.210 HD
ENDBRANCH   2   4
BRANCH   2   6
ATOM      6  C   UNL     1     -38.261  21.424   1.730  0.00  0.00    +0.027 C 
BRANCH   6   7
ATOM      7  C   UNL     1     -38.138  22.946   1.551  0.00  0.00    +0.007 C 
BRANCH   7   8
ATOM      8  C   UNL     1     -38.931  23.733   2.599  0.00  0.00    +0.031 C 
BRANCH   8  11
ATOM      9  O   UNL     1     -39.583  26.633   3.022  0.00  0.00    -0.270 OA
ATOM     10  N   UNL     1     -41.429  26.313   1.596  0.00  0.00    -0.262 N 
ATOM     11  C   UNL     1     -40.065  24.514   2.023  0.00  0.00    +0.029 C 
ATOM     12  C   UNL     1     -41.044  24.121   1.200  0.00  0.00    -0.004 C 
ATOM     13  C   UNL     1     -41.993  25.214   0.853  0.00  0.00    +0.121 C 
ATOM     14  C   UNL     1     -40.292  25.951   2.302  0.00  0.00    +0.245 C 
BRANCH  10  15
ATOM     15  C   UNL     1     -41.990  27.647   1.605  0.00  0.00    +0.204 C 
BRANCH  15  17
ATOM     16  O   UNL     1     -43.926  27.674   3.036  0.00  0.00    -0.248 OA
ATOM     17  C   UNL     1     -42.745  27.958   2.871  0.00  0.00    +0.334 C 
BRANCH  17  18
ATOM     18  O   UNL     1     -41.996  28.583   3.809  0.00  0.00    -0.479 OA
ATOM     19  H   UNL     1     -42.352  28.744   4.661  0.00  0.00    +0.295 HD
ENDBRANCH  17  18
ENDBRANCH  15  17
ENDBRANCH  10  15
ENDBRANCH   8  11
ENDBRANCH   7   8
ENDBRANCH   6   7
ENDBRANCH   2   6
ENDBRANCH   1   2
BRANCH   1  20
ATOM     20  C   UNL     1     -35.147  21.422   3.138  0.00  0.00    +0.028 C 
BRANCH  20  21
ATOM     21  C   UNL     1     -35.362  22.715   3.875  0.00  0.00    -0.035 C 
ATOM     22  C   UNL     1     -35.306  22.918   5.206  0.00  0.00    -0.048 C 
ATOM     23  C   UNL     1     -35.006  21.845   6.215  0.00  0.00    +0.026 C 
BRANCH  22  24
ATOM     24  C   UNL     1     -35.512  24.309   5.774  0.00  0.00    +0.022 C 
BRANCH  24  25
ATOM     25  C   UNL     1     -36.402  25.218   4.913  0.00  0.00    +0.005 C 
BRANCH  25  26
ATOM     26  C   UNL     1     -35.617  26.337   4.213  0.00  0.00    +0.005 C 
BRANCH  26  27
ATOM     27  C   UNL     1     -35.512  26.157   2.683  0.00  0.00    +0.025 C 
ATOM     28  C   UNL     1     -34.056  25.833   2.325  0.00  0.00    +0.005 C 
BRANCH  27  31
ATOM     29  O   UNL     1     -34.931  29.057   3.120  0.00  0.00    -0.418 OA
ATOM     30  O   UNL     1     -34.243  31.160   3.742  0.00  0.00    -0.245 OA
ATOM     31  C   UNL     1     -36.093  27.342   1.939  0.00  0.00    +0.014 C 
ATOM     32  C   UNL     1     -35.828  28.638   2.141  0.00  0.00    +0.178 C 
ATOM     33  C   UNL     1     -36.347  29.782   1.469  0.00  0.00    +0.170 C 
ATOM     34  C   UNL     1     -35.826  30.892   1.975  0.00  0.00    +0.091 C 
ATOM     35  C   UNL     1     -34.917  30.427   3.035  0.00  0.00    +0.345 C 
ATOM     36  C   UNL     1     -36.037  32.315   1.632  0.00  0.00    +0.041 C 
BRANCH  33  37
ATOM     37  O   UNL     1     -37.255  29.714   0.452  0.00  0.00    -0.503 OA
ATOM     38  H   UNL     1     -37.312  28.941  -0.074  0.00  0.00    +0.292 HD
ENDBRANCH  33  37
ENDBRANCH  27  31
ENDBRANCH  26  27
ENDBRANCH  25  26
ENDBRANCH  24  25
ENDBRANCH  22  24
ENDBRANCH  20  21
ENDBRANCH   1  20
TORSDOF 17
ENDMDL
MODEL 9
REMARK VINA RESULT:      -5.7      1.924      6.374
REMARK  Name = 54733865
REMARK  17 active torsions:
REMARK  status: ('A' for Active; 'I' for Inactive)
REMARK    1  A    between atoms: C_1  and  C_2
REMARK    2  A    between atoms: C_1  and  C_20
REMARK    3  A    between atoms: C_2  and  O_4
REMARK    4  A    between atoms: C_2  and  C_6
REMARK    5  A    between atoms: C_6  and  C_7
REMARK    6  A    between atoms: C_7  and  C_8
REMARK    7  A    between atoms: C_8  and  C_11
REMARK    8  A    between atoms: N_10  and  C_15
REMARK    9  A    between atoms: C_15  and  C_17
REMARK   10  A    between atoms: C_17  and  O_18
REMARK   11  A    between atoms: C_20  and  C_21
REMARK   12  A    between atoms: C_22  and  C_24
REMARK   13  A    between atoms: C_24  and  C_25
REMARK   14  A    between atoms: C_25  and  C_26
REMARK   15  A    between atoms: C_26  and  C_27
REMARK   16  A    between atoms: C_27  and  C_31
REMARK   17  A    between atoms: C_33  and  O_37
REMARK                            x       y       z     vdW  Elec       q    Type
REMARK                         _______ _______ _______ _____ _____    ______ ____
ROOT
ATOM      1  C   UNL     1     -35.812  25.818   0.833  0.00  0.00    +0.032 C 
ENDROOT
BRANCH   1   2
ATOM      2  C   UNL     1     -34.763  24.916   0.145  0.00  0.00    +0.089 C 
ATOM      3  C   UNL     1     -35.320  24.262  -1.126  0.00  0.00    +0.029 C 
BRANCH   2   4
ATOM      4  O   UNL     1     -33.656  25.738  -0.237  0.00  0.00    -0.387 OA
ATOM      5  H   UNL     1     -33.598  25.773  -1.204  0.00  0.00    +0.210 HD
ENDBRANCH   2   4
BRANCH   2   6
ATOM      6  C   UNL     1     -34.253  23.806   1.098  0.00  0.00    +0.027 C 
BRANCH   6   7
ATOM      7  C   UNL     1     -34.236  22.394   0.490  0.00  0.00    +0.007 C 
BRANCH   7   8
ATOM      8  C   UNL     1     -34.619  21.308   1.500  0.00  0.00    +0.031 C 
BRANCH   8  11
ATOM      9  O   UNL     1     -36.780  19.982  -0.108  0.00  0.00    -0.270 OA
ATOM     10  N   UNL     1     -35.384  18.090  -0.219  0.00  0.00    -0.262 N 
ATOM     11  C   UNL     1     -34.622  19.932   0.922  0.00  0.00    +0.029 C 
ATOM     12  C   UNL     1     -33.686  18.978   0.980  0.00  0.00    -0.004 C 
ATOM     13  C   UNL     1     -34.076  17.730   0.268  0.00  0.00    +0.121 C 
ATOM     14  C   UNL     1     -35.751  19.377   0.140  0.00  0.00    +0.245 C 
BRANCH  10  15
ATOM     15  C   UNL     1     -36.222  17.203  -0.998  0.00  0.00    +0.204 C 
BRANCH  15  17
ATOM     16  O   UNL     1     -38.553  17.150  -0.399  0.00  0.00    -0.248 OA
ATOM     17  C   UNL     1     -37.423  16.708  -0.233  0.00  0.00    +0.334 C 
BRANCH  17  18
ATOM     18  O   UNL     1     -37.133  15.731   0.657  0.00  0.00    -0.479 OA
ATOM     19  H   UNL     1     -37.325  14.837   0.450  0.00  0.00    +0.295 HD
ENDBRANCH  17  18
ENDBRANCH  15  17
ENDBRANCH  10  15
ENDBRANCH   8  11
ENDBRANCH   7   8
ENDBRANCH   6   7
ENDBRANCH   2   6
ENDBRANCH   1   2
BRANCH   1  20
ATOM     20  C   UNL     1     -35.234  27.076   1.497  0.00  0.00    +0.028 C 
BRANCH  20  21
ATOM     21  C   UNL     1     -34.937  26.833   2.951  0.00  0.00    -0.035 C 
ATOM     22  C   UNL     1     -33.728  26.775   3.541  0.00  0.00    -0.048 C 
ATOM     23  C   UNL     1     -32.422  26.951   2.816  0.00  0.00    +0.026 C 
BRANCH  22  24
ATOM     24  C   UNL     1     -33.620  26.560   5.038  0.00  0.00    +0.022 C 
BRANCH  24  25
ATOM     25  C   UNL     1     -34.649  25.573   5.611  0.00  0.00    +0.005 C 
BRANCH  25  26
ATOM     26  C   UNL     1     -34.426  24.131   5.133  0.00  0.00    +0.005 C 
BRANCH  26  27
ATOM     27  C   UNL     1     -35.632  23.201   5.386  0.00  0.00    +0.025 C 
ATOM     28  C   UNL     1     -35.155  21.988   6.197  0.00  0.00    +0.005 C 
BRANCH  27  31
ATOM     29  O   UNL     1     -37.724  24.797   3.968  0.00  0.00    -0.418 OA
ATOM     30  O   UNL     1     -39.287  26.282   3.173  0.00  0.00    -0.245 OA
ATOM     31  C   UNL     1     -36.351  22.852   4.100  0.00  0.00    +0.014 C 
ATOM     32  C   UNL     1     -37.287  23.572   3.470  0.00  0.00    +0.178 C 
ATOM     33  C   UNL     1     -37.988  23.287   2.264  0.00  0.00    +0.170 C 
ATOM     34  C   UNL     1     -38.839  24.264   1.981  0.00  0.00    +0.091 C 
ATOM     35  C   UNL     1     -38.670  25.234   3.075  0.00  0.00    +0.345 C 
ATOM     36  C   UNL     1     -39.784  24.440   0.857  0.00  0.00    +0.041 C 
BRANCH  33  37
ATOM     37  O   UNL     1     -37.791  22.156   1.525  0.00  0.00    -0.503 OA
ATOM     38  H   UNL     1     -37.318  21.434   1.890  0.00  0.00    +0.292 HD
ENDBRANCH  33  37
ENDBRANCH  27  31
ENDBRANCH  26  27
ENDBRANCH  25  26
ENDBRANCH  24  25
ENDBRANCH  22  24
ENDBRANCH  20  21
ENDBRANCH   1  20
TORSDOF 17
ENDMDL
