MODEL 1
REMARK VINA RESULT:      -6.8      0.000      0.000
REMARK  Name = 5319486
REMARK  9 active torsions:
REMARK  status: ('A' for Active; 'I' for Inactive)
REMARK    1  A    between atoms: C_3  and  C_15
REMARK    2  A    between atoms: C_5  and  O_35
REMARK    3  A    between atoms: C_10  and  C_27
REMARK    4  A    between atoms: C_13  and  O_18
REMARK    5  A    between atoms: C_14  and  O_20
REMARK    6  A    between atoms: C_16  and  O_22
REMARK    7  A    between atoms: C_17  and  C_24
REMARK    8  A    between atoms: C_24  and  O_25
REMARK    9  A    between atoms: C_32  and  O_33
REMARK                            x       y       z     vdW  Elec       q    Type
REMARK                         _______ _______ _______ _____ _____    ______ ____
ROOT
ATOM      1  O   UNL     1     -35.056  23.794   1.567  0.00  0.00    -0.450 OA
ATOM      2  O   UNL     1     -35.260  20.590   4.084  0.00  0.00    -0.286 OA
ATOM      3  C   UNL     1     -35.521  25.290   3.335  0.00  0.00    +0.075 C 
ATOM      4  C   UNL     1     -35.333  23.979   2.897  0.00  0.00    +0.150 C 
ATOM      5  C   UNL     1     -35.804  25.540   4.678  0.00  0.00    +0.135 C 
ATOM      6  C   UNL     1     -35.426  22.920   3.802  0.00  0.00    +0.074 C 
ATOM      7  C   UNL     1     -35.897  24.481   5.582  0.00  0.00    +0.037 C 
ATOM      8  C   UNL     1     -35.708  23.169   5.148  0.00  0.00    +0.009 C 
ATOM      9  C   UNL     1     -35.217  21.543   3.318  0.00  0.00    +0.202 C 
ATOM     10  C   UNL     1     -34.941  21.387   1.864  0.00  0.00    +0.077 C 
ATOM     11  C   UNL     1     -34.886  22.505   1.124  0.00  0.00    +0.183 C 
ENDROOT
BRANCH   3  15
ATOM     12  O   UNL     1     -34.779  27.531   3.035  0.00  0.00    -0.346 OA
ATOM     13  C   UNL     1     -36.801  26.872   1.831  0.00  0.00    +0.171 C 
ATOM     14  C   UNL     1     -36.693  28.138   0.977  0.00  0.00    +0.169 C 
ATOM     15  C   UNL     1     -35.422  26.446   2.359  0.00  0.00    +0.173 C 
ATOM     16  C   UNL     1     -35.875  29.219   1.685  0.00  0.00    +0.169 C 
ATOM     17  C   UNL     1     -34.544  28.654   2.184  0.00  0.00    +0.174 C 
BRANCH  13  18
ATOM     18  O   UNL     1     -37.330  25.816   1.031  0.00  0.00    -0.379 OA
ATOM     19  H   UNL     1     -37.896  26.188   0.337  0.00  0.00    +0.211 HD
ENDBRANCH  13  18
BRANCH  14  20
ATOM     20  O   UNL     1     -38.000  28.663   0.736  0.00  0.00    -0.379 OA
ATOM     21  H   UNL     1     -37.932  29.457   0.183  0.00  0.00    +0.211 HD
ENDBRANCH  14  20
BRANCH  16  22
ATOM     22  O   UNL     1     -35.620  30.287   0.776  0.00  0.00    -0.379 OA
ATOM     23  H   UNL     1     -35.691  31.134   1.245  0.00  0.00    +0.211 HD
ENDBRANCH  16  22
BRANCH  17  24
ATOM     24  C   UNL     1     -33.758  29.683   2.988  0.00  0.00    +0.169 C 
BRANCH  24  25
ATOM     25  O   UNL     1     -34.676  30.525   3.663  0.00  0.00    -0.379 OA
ATOM     26  H   UNL     1     -34.232  30.951   4.412  0.00  0.00    +0.211 HD
ENDBRANCH  24  25
ENDBRANCH  17  24
ENDBRANCH   3  15
BRANCH  10  27
ATOM     27  C   UNL     1     -34.752  20.064   1.245  0.00  0.00    +0.006 C 
ATOM     28  C   UNL     1     -33.551  19.374   1.419  0.00  0.00    +0.003 C 
ATOM     29  C   UNL     1     -35.774  19.496   0.481  0.00  0.00    +0.003 C 
ATOM     30  C   UNL     1     -33.371  18.121   0.834  0.00  0.00    +0.037 C 
ATOM     31  C   UNL     1     -35.595  18.243  -0.105  0.00  0.00    +0.037 C 
ATOM     32  C   UNL     1     -34.394  17.556   0.071  0.00  0.00    +0.139 C 
BRANCH  32  33
ATOM     33  O   UNL     1     -34.220  16.332  -0.500  0.00  0.00    -0.471 OA
ATOM     34  C   UNL     1     -35.319  15.424  -0.437  0.00  0.00    +0.252 C 
ENDBRANCH  32  33
ENDBRANCH  10  27
BRANCH   5  35
ATOM     35  O   UNL     1     -35.993  26.812   5.126  0.00  0.00    -0.506 OA
ATOM     36  H   UNL     1     -35.255  27.341   5.360  0.00  0.00    +0.292 HD
ENDBRANCH   5  35
TORSDOF 9
ENDMDL
MODEL 2
REMARK VINA RESULT:      -6.5      0.563      1.034
REMARK  Name = 5319486
REMARK  9 active torsions:
REMARK  status: ('A' for Active; 'I' for Inactive)
REMARK    1  A    between atoms: C_3  and  C_15
REMARK    2  A    between atoms: C_5  and  O_35
REMARK    3  A    between atoms: C_10  and  C_27
REMARK    4  A    between atoms: C_13  and  O_18
REMARK    5  A    between atoms: C_14  and  O_20
REMARK    6  A    between atoms: C_16  and  O_22
REMARK    7  A    between atoms: C_17  and  C_24
REMARK    8  A    between atoms: C_24  and  O_25
REMARK    9  A    between atoms: C_32  and  O_33
REMARK                            x       y       z     vdW  Elec       q    Type
REMARK                         _______ _______ _______ _____ _____    ______ ____
ROOT
ATOM      1  O   UNL     1     -34.809  23.998   1.490  0.00  0.00    -0.450 OA
ATOM      2  O   UNL     1     -35.318  20.662   3.781  0.00  0.00    -0.286 OA
ATOM      3  C   UNL     1     -35.345  25.405   3.310  0.00  0.00    +0.075 C 
ATOM      4  C   UNL     1     -35.175  24.115   2.806  0.00  0.00    +0.150 C 
ATOM      5  C   UNL     1     -35.716  25.586   4.642  0.00  0.00    +0.135 C 
ATOM      6  C   UNL     1     -35.374  23.010   3.633  0.00  0.00    +0.074 C 
ATOM      7  C   UNL     1     -35.916  24.481   5.470  0.00  0.00    +0.037 C 
ATOM      8  C   UNL     1     -35.745  23.190   4.969  0.00  0.00    +0.009 C 
ATOM      9  C   UNL     1     -35.183  21.656   3.081  0.00  0.00    +0.202 C 
ATOM     10  C   UNL     1     -34.806  21.575   1.643  0.00  0.00    +0.077 C 
ATOM     11  C   UNL     1     -34.655  22.732   0.981  0.00  0.00    +0.183 C 
ENDROOT
BRANCH   3  15
ATOM     12  O   UNL     1     -34.452  27.608   3.190  0.00  0.00    -0.346 OA
ATOM     13  C   UNL     1     -36.456  27.159   1.863  0.00  0.00    +0.171 C 
ATOM     14  C   UNL     1     -36.230  28.467   1.100  0.00  0.00    +0.169 C 
ATOM     15  C   UNL     1     -35.130  26.612   2.418  0.00  0.00    +0.173 C 
ATOM     16  C   UNL     1     -35.380  29.445   1.911  0.00  0.00    +0.169 C 
ATOM     17  C   UNL     1     -34.110  28.764   2.425  0.00  0.00    +0.174 C 
BRANCH  13  18
ATOM     18  O   UNL     1     -37.013  26.193   0.974  0.00  0.00    -0.379 OA
ATOM     19  H   UNL     1     -36.342  25.924   0.327  0.00  0.00    +0.211 HD
ENDBRANCH  13  18
BRANCH  14  20
ATOM     20  O   UNL     1     -37.490  29.090   0.842  0.00  0.00    -0.379 OA
ATOM     21  H   UNL     1     -37.700  29.014  -0.102  0.00  0.00    +0.211 HD
ENDBRANCH  14  20
BRANCH  16  22
ATOM     22  O   UNL     1     -35.019  30.551   1.086  0.00  0.00    -0.379 OA
ATOM     23  H   UNL     1     -35.817  31.045   0.839  0.00  0.00    +0.211 HD
ENDBRANCH  16  22
BRANCH  17  24
ATOM     24  C   UNL     1     -33.298  29.688   3.327  0.00  0.00    +0.169 C 
BRANCH  24  25
ATOM     25  O   UNL     1     -34.166  30.667   3.869  0.00  0.00    -0.379 OA
ATOM     26  H   UNL     1     -35.013  30.644   3.397  0.00  0.00    +0.211 HD
ENDBRANCH  24  25
ENDBRANCH  17  24
ENDBRANCH   3  15
BRANCH  10  27
ATOM     27  C   UNL     1     -34.623  20.285   0.958  0.00  0.00    +0.006 C 
ATOM     28  C   UNL     1     -35.622  19.788   0.119  0.00  0.00    +0.003 C 
ATOM     29  C   UNL     1     -33.448  19.554   1.145  0.00  0.00    +0.003 C 
ATOM     30  C   UNL     1     -35.449  18.566  -0.531  0.00  0.00    +0.037 C 
ATOM     31  C   UNL     1     -33.273  18.331   0.496  0.00  0.00    +0.037 C 
ATOM     32  C   UNL     1     -34.274  17.838  -0.342  0.00  0.00    +0.139 C 
BRANCH  32  33
ATOM     33  O   UNL     1     -34.103  16.645  -0.976  0.00  0.00    -0.471 OA
ATOM     34  C   UNL     1     -33.277  15.678  -0.330  0.00  0.00    +0.252 C 
ENDBRANCH  32  33
ENDBRANCH  10  27
BRANCH   5  35
ATOM     35  O   UNL     1     -35.889  26.837   5.154  0.00  0.00    -0.506 OA
ATOM     36  H   UNL     1     -36.535  27.408   4.787  0.00  0.00    +0.292 HD
ENDBRANCH   5  35
TORSDOF 9
ENDMDL
MODEL 3
REMARK VINA RESULT:      -6.2      2.535      8.743
REMARK  Name = 5319486
REMARK  9 active torsions:
REMARK  status: ('A' for Active; 'I' for Inactive)
REMARK    1  A    between atoms: C_3  and  C_15
REMARK    2  A    between atoms: C_5  and  O_35
REMARK    3  A    between atoms: C_10  and  C_27
REMARK    4  A    between atoms: C_13  and  O_18
REMARK    5  A    between atoms: C_14  and  O_20
REMARK    6  A    between atoms: C_16  and  O_22
REMARK    7  A    between atoms: C_17  and  C_24
REMARK    8  A    between atoms: C_24  and  O_25
REMARK    9  A    between atoms: C_32  and  O_33
REMARK                            x       y       z     vdW  Elec       q    Type
REMARK                         _______ _______ _______ _____ _____    ______ ____
ROOT
ATOM      1  O   UNL     1     -35.448  25.419   2.159  0.00  0.00    -0.450 OA
ATOM      2  O   UNL     1     -33.649  27.135   5.394  0.00  0.00    -0.286 OA
ATOM      3  C   UNL     1     -35.659  23.358   3.293  0.00  0.00    +0.075 C 
ATOM      4  C   UNL     1     -35.230  24.685   3.297  0.00  0.00    +0.150 C 
ATOM      5  C   UNL     1     -35.466  22.563   4.422  0.00  0.00    +0.135 C 
ATOM      6  C   UNL     1     -34.610  25.216   4.428  0.00  0.00    +0.074 C 
ATOM      7  C   UNL     1     -34.845  23.093   5.554  0.00  0.00    +0.037 C 
ATOM      8  C   UNL     1     -34.416  24.421   5.561  0.00  0.00    +0.009 C 
ATOM      9  C   UNL     1     -34.169  26.623   4.411  0.00  0.00    +0.202 C 
ATOM     10  C   UNL     1     -34.407  27.376   3.150  0.00  0.00    +0.077 C 
ATOM     11  C   UNL     1     -35.013  26.722   2.148  0.00  0.00    +0.183 C 
ENDROOT
BRANCH   3  15
ATOM     12  O   UNL     1     -37.726  22.624   2.368  0.00  0.00    -0.346 OA
ATOM     13  C   UNL     1     -35.716  21.427   1.659  0.00  0.00    +0.171 C 
ATOM     14  C   UNL     1     -36.514  20.781   0.523  0.00  0.00    +0.169 C 
ATOM     15  C   UNL     1     -36.334  22.774   2.068  0.00  0.00    +0.173 C 
ATOM     16  C   UNL     1     -38.012  20.773   0.830  0.00  0.00    +0.169 C 
ATOM     17  C   UNL     1     -38.487  22.164   1.250  0.00  0.00    +0.174 C 
BRANCH  13  18
ATOM     18  O   UNL     1     -34.378  21.654   1.216  0.00  0.00    -0.379 OA
ATOM     19  H   UNL     1     -33.761  21.191   1.802  0.00  0.00    +0.211 HD
ENDBRANCH  13  18
BRANCH  14  20
ATOM     20  O   UNL     1     -36.092  19.426   0.356  0.00  0.00    -0.379 OA
ATOM     21  H   UNL     1     -35.265  19.283   0.843  0.00  0.00    +0.211 HD
ENDBRANCH  14  20
BRANCH  16  22
ATOM     22  O   UNL     1     -38.728  20.363  -0.333  0.00  0.00    -0.379 OA
ATOM     23  H   UNL     1     -38.288  20.713  -1.124  0.00  0.00    +0.211 HD
ENDBRANCH  16  22
BRANCH  17  24
ATOM     24  C   UNL     1     -39.954  22.159   1.666  0.00  0.00    +0.169 C 
BRANCH  24  25
ATOM     25  O   UNL     1     -40.270  20.883   2.193  0.00  0.00    -0.379 OA
ATOM     26  H   UNL     1     -39.879  20.793   3.076  0.00  0.00    +0.211 HD
ENDBRANCH  24  25
ENDBRANCH  17  24
ENDBRANCH   3  15
BRANCH  10  27
ATOM     27  C   UNL     1     -33.981  28.776   2.987  0.00  0.00    +0.006 C 
ATOM     28  C   UNL     1     -34.928  29.801   2.985  0.00  0.00    +0.003 C 
ATOM     29  C   UNL     1     -32.627  29.083   2.833  0.00  0.00    +0.003 C 
ATOM     30  C   UNL     1     -34.525  31.128   2.832  0.00  0.00    +0.037 C 
ATOM     31  C   UNL     1     -32.223  30.409   2.679  0.00  0.00    +0.037 C 
ATOM     32  C   UNL     1     -33.172  31.431   2.678  0.00  0.00    +0.139 C 
BRANCH  32  33
ATOM     33  O   UNL     1     -32.778  32.726   2.529  0.00  0.00    -0.471 OA
ATOM     34  C   UNL     1     -33.696  33.617   1.898  0.00  0.00    +0.252 C 
ENDBRANCH  32  33
ENDBRANCH  10  27
BRANCH   5  35
ATOM     35  O   UNL     1     -35.876  21.264   4.440  0.00  0.00    -0.506 OA
ATOM     36  H   UNL     1     -36.789  21.062   4.511  0.00  0.00    +0.292 HD
ENDBRANCH   5  35
TORSDOF 9
ENDMDL
MODEL 4
REMARK VINA RESULT:      -6.0      1.854      8.206
REMARK  Name = 5319486
REMARK  9 active torsions:
REMARK  status: ('A' for Active; 'I' for Inactive)
REMARK    1  A    between atoms: C_3  and  C_15
REMARK    2  A    between atoms: C_5  and  O_35
REMARK    3  A    between atoms: C_10  and  C_27
REMARK    4  A    between atoms: C_13  and  O_18
REMARK    5  A    between atoms: C_14  and  O_20
REMARK    6  A    between atoms: C_16  and  O_22
REMARK    7  A    between atoms: C_17  and  C_24
REMARK    8  A    between atoms: C_24  and  O_25
REMARK    9  A    between atoms: C_32  and  O_33
REMARK                            x       y       z     vdW  Elec       q    Type
REMARK                         _______ _______ _______ _____ _____    ______ ____
ROOT
ATOM      1  O   UNL     1     -35.702  23.541   2.006  0.00  0.00    -0.450 OA
ATOM      2  O   UNL     1     -35.322  26.807   4.421  0.00  0.00    -0.286 OA
ATOM      3  C   UNL     1     -35.551  22.080   3.855  0.00  0.00    +0.075 C 
ATOM      4  C   UNL     1     -35.552  23.384   3.359  0.00  0.00    +0.150 C 
ATOM      5  C   UNL     1     -35.403  21.857   5.224  0.00  0.00    +0.135 C 
ATOM      6  C   UNL     1     -35.407  24.463   4.232  0.00  0.00    +0.074 C 
ATOM      7  C   UNL     1     -35.257  22.936   6.096  0.00  0.00    +0.037 C 
ATOM      8  C   UNL     1     -35.259  24.242   5.604  0.00  0.00    +0.009 C 
ATOM      9  C   UNL     1     -35.416  25.833   3.687  0.00  0.00    +0.202 C 
ATOM     10  C   UNL     1     -35.560  25.956   2.210  0.00  0.00    +0.077 C 
ATOM     11  C   UNL     1     -35.687  24.821   1.507  0.00  0.00    +0.183 C 
ENDROOT
BRANCH   3  15
ATOM     12  O   UNL     1     -34.446  20.681   2.277  0.00  0.00    -0.346 OA
ATOM     13  C   UNL     1     -36.811  21.143   1.870  0.00  0.00    +0.171 C 
ATOM     14  C   UNL     1     -36.843  20.015   0.836  0.00  0.00    +0.169 C 
ATOM     15  C   UNL     1     -35.708  20.902   2.914  0.00  0.00    +0.173 C 
ATOM     16  C   UNL     1     -35.445  19.721   0.290  0.00  0.00    +0.169 C 
ATOM     17  C   UNL     1     -34.445  19.531   1.430  0.00  0.00    +0.174 C 
BRANCH  13  18
ATOM     18  O   UNL     1     -38.070  21.196   2.540  0.00  0.00    -0.379 OA
ATOM     19  H   UNL     1     -37.931  21.113   3.496  0.00  0.00    +0.211 HD
ENDBRANCH  13  18
BRANCH  14  20
ATOM     20  O   UNL     1     -37.673  20.399  -0.262  0.00  0.00    -0.379 OA
ATOM     21  H   UNL     1     -37.123  20.785  -0.962  0.00  0.00    +0.211 HD
ENDBRANCH  14  20
BRANCH  16  22
ATOM     22  O   UNL     1     -35.489  18.535  -0.500  0.00  0.00    -0.379 OA
ATOM     23  H   UNL     1     -35.861  18.740  -1.372  0.00  0.00    +0.211 HD
ENDBRANCH  16  22
BRANCH  17  24
ATOM     24  C   UNL     1     -33.023  19.345   0.911  0.00  0.00    +0.169 C 
BRANCH  24  25
ATOM     25  O   UNL     1     -32.771  17.958   0.773  0.00  0.00    -0.379 OA
ATOM     26  H   UNL     1     -32.157  17.672   1.466  0.00  0.00    +0.211 HD
ENDBRANCH  24  25
ENDBRANCH  17  24
ENDBRANCH   3  15
BRANCH  10  27
ATOM     27  C   UNL     1     -35.546  27.265   1.534  0.00  0.00    +0.006 C 
ATOM     28  C   UNL     1     -34.333  27.862   1.189  0.00  0.00    +0.003 C 
ATOM     29  C   UNL     1     -36.748  27.911   1.235  0.00  0.00    +0.003 C 
ATOM     30  C   UNL     1     -34.319  29.101   0.548  0.00  0.00    +0.037 C 
ATOM     31  C   UNL     1     -36.735  29.150   0.594  0.00  0.00    +0.037 C 
ATOM     32  C   UNL     1     -35.520  29.744   0.251  0.00  0.00    +0.139 C 
BRANCH  32  33
ATOM     33  O   UNL     1     -35.508  30.953  -0.376  0.00  0.00    -0.471 OA
ATOM     34  C   UNL     1     -36.711  31.361  -1.026  0.00  0.00    +0.252 C 
ENDBRANCH  32  33
ENDBRANCH  10  27
BRANCH   5  35
ATOM     35  O   UNL     1     -35.398  20.592   5.729  0.00  0.00    -0.506 OA
ATOM     36  H   UNL     1     -35.272  20.454   6.647  0.00  0.00    +0.292 HD
ENDBRANCH   5  35
TORSDOF 9
ENDMDL
MODEL 5
REMARK VINA RESULT:      -5.9      4.403      8.345
REMARK  Name = 5319486
REMARK  9 active torsions:
REMARK  status: ('A' for Active; 'I' for Inactive)
REMARK    1  A    between atoms: C_3  and  C_15
REMARK    2  A    between atoms: C_5  and  O_35
REMARK    3  A    between atoms: C_10  and  C_27
REMARK    4  A    between atoms: C_13  and  O_18
REMARK    5  A    between atoms: C_14  and  O_20
REMARK    6  A    between atoms: C_16  and  O_22
REMARK    7  A    between atoms: C_17  and  C_24
REMARK    8  A    between atoms: C_24  and  O_25
REMARK    9  A    between atoms: C_32  and  O_33
REMARK                            x       y       z     vdW  Elec       q    Type
REMARK                         _______ _______ _______ _____ _____    ______ ____
ROOT
ATOM      1  O   UNL     1     -34.970  27.670   3.013  0.00  0.00    -0.450 OA
ATOM      2  O   UNL     1     -32.377  26.967   6.082  0.00  0.00    -0.286 OA
ATOM      3  C   UNL     1     -36.222  25.739   3.546  0.00  0.00    +0.075 C 
ATOM      4  C   UNL     1     -35.137  26.573   3.818  0.00  0.00    +0.150 C 
ATOM      5  C   UNL     1     -36.443  24.609   4.333  0.00  0.00    +0.135 C 
ATOM      6  C   UNL     1     -34.275  26.276   4.874  0.00  0.00    +0.074 C 
ATOM      7  C   UNL     1     -35.581  24.312   5.389  0.00  0.00    +0.037 C 
ATOM      8  C   UNL     1     -34.495  25.144   5.664  0.00  0.00    +0.009 C 
ATOM      9  C   UNL     1     -33.138  27.174   5.146  0.00  0.00    +0.202 C 
ATOM     10  C   UNL     1     -32.983  28.341   4.235  0.00  0.00    +0.077 C 
ATOM     11  C   UNL     1     -33.895  28.487   3.262  0.00  0.00    +0.183 C 
ENDROOT
BRANCH   3  15
ATOM     12  O   UNL     1     -38.501  25.872   2.874  0.00  0.00    -0.346 OA
ATOM     13  C   UNL     1     -36.892  25.168   1.174  0.00  0.00    +0.171 C 
ATOM     14  C   UNL     1     -37.953  25.390   0.093  0.00  0.00    +0.169 C 
ATOM     15  C   UNL     1     -37.163  26.054   2.400  0.00  0.00    +0.173 C 
ATOM     16  C   UNL     1     -39.365  25.326   0.677  0.00  0.00    +0.169 C 
ATOM     17  C   UNL     1     -39.487  26.230   1.904  0.00  0.00    +0.174 C 
BRANCH  13  18
ATOM     18  O   UNL     1     -35.611  25.502   0.643  0.00  0.00    -0.379 OA
ATOM     19  H   UNL     1     -35.179  24.699   0.312  0.00  0.00    +0.211 HD
ENDBRANCH  13  18
BRANCH  14  20
ATOM     20  O   UNL     1     -37.841  24.369  -0.901  0.00  0.00    -0.379 OA
ATOM     21  H   UNL     1     -37.817  23.501  -0.469  0.00  0.00    +0.211 HD
ENDBRANCH  14  20
BRANCH  16  22
ATOM     22  O   UNL     1     -40.302  25.747  -0.312  0.00  0.00    -0.379 OA
ATOM     23  H   UNL     1     -39.833  25.951  -1.136  0.00  0.00    +0.211 HD
ENDBRANCH  16  22
BRANCH  17  24
ATOM     24  C   UNL     1     -40.853  26.101   2.569  0.00  0.00    +0.169 C 
BRANCH  24  25
ATOM     25  O   UNL     1     -40.854  26.877   3.754  0.00  0.00    -0.379 OA
ATOM     26  H   UNL     1     -40.699  27.807   3.530  0.00  0.00    +0.211 HD
ENDBRANCH  24  25
ENDBRANCH  17  24
ENDBRANCH   3  15
BRANCH  10  27
ATOM     27  C   UNL     1     -31.868  29.294   4.372  0.00  0.00    +0.006 C 
ATOM     28  C   UNL     1     -30.587  28.939   3.946  0.00  0.00    +0.003 C 
ATOM     29  C   UNL     1     -32.090  30.555   4.930  0.00  0.00    +0.003 C 
ATOM     30  C   UNL     1     -29.531  29.841   4.075  0.00  0.00    +0.037 C 
ATOM     31  C   UNL     1     -31.034  31.457   5.060  0.00  0.00    +0.037 C 
ATOM     32  C   UNL     1     -29.755  31.100   4.633  0.00  0.00    +0.139 C 
BRANCH  32  33
ATOM     33  O   UNL     1     -28.725  31.982   4.758  0.00  0.00    -0.471 OA
ATOM     34  C   UNL     1     -27.583  31.546   5.494  0.00  0.00    +0.252 C 
ENDBRANCH  32  33
ENDBRANCH  10  27
BRANCH   5  35
ATOM     35  O   UNL     1     -37.496  23.781   4.084  0.00  0.00    -0.506 OA
ATOM     36  H   UNL     1     -38.046  23.933   3.341  0.00  0.00    +0.292 HD
ENDBRANCH   5  35
TORSDOF 9
ENDMDL
MODEL 6
REMARK VINA RESULT:      -5.9      2.978      8.763
REMARK  Name = 5319486
REMARK  9 active torsions:
REMARK  status: ('A' for Active; 'I' for Inactive)
REMARK    1  A    between atoms: C_3  and  C_15
REMARK    2  A    between atoms: C_5  and  O_35
REMARK    3  A    between atoms: C_10  and  C_27
REMARK    4  A    between atoms: C_13  and  O_18
REMARK    5  A    between atoms: C_14  and  O_20
REMARK    6  A    between atoms: C_16  and  O_22
REMARK    7  A    between atoms: C_17  and  C_24
REMARK    8  A    between atoms: C_24  and  O_25
REMARK    9  A    between atoms: C_32  and  O_33
REMARK                            x       y       z     vdW  Elec       q    Type
REMARK                         _______ _______ _______ _____ _____    ______ ____
ROOT
ATOM      1  O   UNL     1     -35.544  22.443   1.533  0.00  0.00    -0.450 OA
ATOM      2  O   UNL     1     -37.682  24.756   4.125  0.00  0.00    -0.286 OA
ATOM      3  C   UNL     1     -37.491  21.286   0.863  0.00  0.00    +0.075 C 
ATOM      4  C   UNL     1     -36.897  22.266   1.659  0.00  0.00    +0.150 C 
ATOM      5  C   UNL     1     -38.865  21.061   0.947  0.00  0.00    +0.135 C 
ATOM      6  C   UNL     1     -37.677  23.020   2.537  0.00  0.00    +0.074 C 
ATOM      7  C   UNL     1     -39.645  21.814   1.825  0.00  0.00    +0.037 C 
ATOM      8  C   UNL     1     -39.054  22.796   2.622  0.00  0.00    +0.009 C 
ATOM      9  C   UNL     1     -37.030  24.053   3.365  0.00  0.00    +0.202 C 
ATOM     10  C   UNL     1     -35.556  24.198   3.211  0.00  0.00    +0.077 C 
ATOM     11  C   UNL     1     -34.948  23.394   2.325  0.00  0.00    +0.183 C 
ENDROOT
BRANCH   3  15
ATOM     12  O   UNL     1     -37.422  20.256  -1.282  0.00  0.00    -0.346 OA
ATOM     13  C   UNL     1     -36.228  19.120   0.523  0.00  0.00    +0.171 C 
ATOM     14  C   UNL     1     -35.521  18.241  -0.512  0.00  0.00    +0.169 C 
ATOM     15  C   UNL     1     -36.651  20.463  -0.094  0.00  0.00    +0.173 C 
ATOM     16  C   UNL     1     -36.317  18.167  -1.816  0.00  0.00    +0.169 C 
ATOM     17  C   UNL     1     -36.697  19.567  -2.301  0.00  0.00    +0.174 C 
BRANCH  13  18
ATOM     18  O   UNL     1     -35.332  19.376   1.604  0.00  0.00    -0.379 OA
ATOM     19  H   UNL     1     -35.808  19.827   2.318  0.00  0.00    +0.211 HD
ENDBRANCH  13  18
BRANCH  14  20
ATOM     20  O   UNL     1     -35.391  16.913   0.000  0.00  0.00    -0.379 OA
ATOM     21  H   UNL     1     -36.226  16.646   0.417  0.00  0.00    +0.211 HD
ENDBRANCH  14  20
BRANCH  16  22
ATOM     22  O   UNL     1     -35.527  17.523  -2.813  0.00  0.00    -0.379 OA
ATOM     23  H   UNL     1     -34.610  17.452  -2.504  0.00  0.00    +0.211 HD
ENDBRANCH  16  22
BRANCH  17  24
ATOM     24  C   UNL     1     -37.584  19.515  -3.540  0.00  0.00    +0.169 C 
BRANCH  24  25
ATOM     25  O   UNL     1     -36.755  19.410  -4.684  0.00  0.00    -0.379 OA
ATOM     26  H   UNL     1     -37.174  19.867  -5.429  0.00  0.00    +0.211 HD
ENDBRANCH  24  25
ENDBRANCH  17  24
ENDBRANCH   3  15
BRANCH  10  27
ATOM     27  C   UNL     1     -34.781  25.165   4.006  0.00  0.00    +0.006 C 
ATOM     28  C   UNL     1     -34.043  26.164   3.369  0.00  0.00    +0.003 C 
ATOM     29  C   UNL     1     -34.783  25.086   5.401  0.00  0.00    +0.003 C 
ATOM     30  C   UNL     1     -33.309  27.081   4.121  0.00  0.00    +0.037 C 
ATOM     31  C   UNL     1     -34.049  26.003   6.154  0.00  0.00    +0.037 C 
ATOM     32  C   UNL     1     -33.312  27.000   5.514  0.00  0.00    +0.139 C 
BRANCH  32  33
ATOM     33  O   UNL     1     -32.598  27.895   6.249  0.00  0.00    -0.471 OA
ATOM     34  C   UNL     1     -31.812  28.846   5.532  0.00  0.00    +0.252 C 
ENDBRANCH  32  33
ENDBRANCH  10  27
BRANCH   5  35
ATOM     35  O   UNL     1     -39.464  20.109   0.179  0.00  0.00    -0.506 OA
ATOM     36  H   UNL     1     -39.708  20.304  -0.704  0.00  0.00    +0.292 HD
ENDBRANCH   5  35
TORSDOF 9
ENDMDL
MODEL 7
REMARK VINA RESULT:      -5.9      3.430      4.812
REMARK  Name = 5319486
REMARK  9 active torsions:
REMARK  status: ('A' for Active; 'I' for Inactive)
REMARK    1  A    between atoms: C_3  and  C_15
REMARK    2  A    between atoms: C_5  and  O_35
REMARK    3  A    between atoms: C_10  and  C_27
REMARK    4  A    between atoms: C_13  and  O_18
REMARK    5  A    between atoms: C_14  and  O_20
REMARK    6  A    between atoms: C_16  and  O_22
REMARK    7  A    between atoms: C_17  and  C_24
REMARK    8  A    between atoms: C_24  and  O_25
REMARK    9  A    between atoms: C_32  and  O_33
REMARK                            x       y       z     vdW  Elec       q    Type
REMARK                         _______ _______ _______ _____ _____    ______ ____
ROOT
ATOM      1  O   UNL     1     -35.051  26.558   2.541  0.00  0.00    -0.450 OA
ATOM      2  O   UNL     1     -36.226  23.750   5.257  0.00  0.00    -0.286 OA
ATOM      3  C   UNL     1     -33.546  27.515   4.089  0.00  0.00    +0.075 C 
ATOM      4  C   UNL     1     -34.508  26.547   3.799  0.00  0.00    +0.150 C 
ATOM      5  C   UNL     1     -32.957  27.553   5.353  0.00  0.00    +0.135 C 
ATOM      6  C   UNL     1     -34.879  25.618   4.772  0.00  0.00    +0.074 C 
ATOM      7  C   UNL     1     -33.329  26.624   6.326  0.00  0.00    +0.037 C 
ATOM      8  C   UNL     1     -34.290  25.654   6.039  0.00  0.00    +0.009 C 
ATOM      9  C   UNL     1     -35.894  24.601   4.442  0.00  0.00    +0.202 C 
ATOM     10  C   UNL     1     -36.472  24.663   3.072  0.00  0.00    +0.077 C 
ATOM     11  C   UNL     1     -36.011  25.619   2.252  0.00  0.00    +0.183 C 
ENDROOT
BRANCH   3  15
ATOM     12  O   UNL     1     -31.707  28.612   3.049  0.00  0.00    -0.346 OA
ATOM     13  C   UNL     1     -33.767  29.906   3.291  0.00  0.00    +0.171 C 
ATOM     14  C   UNL     1     -33.214  30.949   2.316  0.00  0.00    +0.169 C 
ATOM     15  C   UNL     1     -33.136  28.528   3.038  0.00  0.00    +0.173 C 
ATOM     16  C   UNL     1     -31.687  30.903   2.258  0.00  0.00    +0.169 C 
ATOM     17  C   UNL     1     -31.195  29.473   2.031  0.00  0.00    +0.174 C 
BRANCH  13  18
ATOM     18  O   UNL     1     -35.178  29.803   3.110  0.00  0.00    -0.379 OA
ATOM     19  H   UNL     1     -35.630  30.121   3.907  0.00  0.00    +0.211 HD
ENDBRANCH  13  18
BRANCH  14  20
ATOM     20  O   UNL     1     -33.599  32.256   2.748  0.00  0.00    -0.379 OA
ATOM     21  H   UNL     1     -33.929  32.762   1.989  0.00  0.00    +0.211 HD
ENDBRANCH  14  20
BRANCH  16  22
ATOM     22  O   UNL     1     -31.231  31.732   1.192  0.00  0.00    -0.379 OA
ATOM     23  H   UNL     1     -30.946  31.176   0.449  0.00  0.00    +0.211 HD
ENDBRANCH  16  22
BRANCH  17  24
ATOM     24  C   UNL     1     -29.673  29.384   2.078  0.00  0.00    +0.169 C 
BRANCH  24  25
ATOM     25  O   UNL     1     -29.185  30.436   2.891  0.00  0.00    -0.379 OA
ATOM     26  H   UNL     1     -29.910  30.794   3.426  0.00  0.00    +0.211 HD
ENDBRANCH  24  25
ENDBRANCH  17  24
ENDBRANCH   3  15
BRANCH  10  27
ATOM     27  C   UNL     1     -37.521  23.730   2.627  0.00  0.00    +0.006 C 
ATOM     28  C   UNL     1     -38.862  24.118   2.656  0.00  0.00    +0.003 C 
ATOM     29  C   UNL     1     -37.178  22.454   2.174  0.00  0.00    +0.003 C 
ATOM     30  C   UNL     1     -39.856  23.235   2.234  0.00  0.00    +0.037 C 
ATOM     31  C   UNL     1     -38.172  21.571   1.752  0.00  0.00    +0.037 C 
ATOM     32  C   UNL     1     -39.511  21.962   1.783  0.00  0.00    +0.139 C 
BRANCH  32  33
ATOM     33  O   UNL     1     -40.480  21.100   1.370  0.00  0.00    -0.471 OA
ATOM     34  C   UNL     1     -40.699  20.992  -0.036  0.00  0.00    +0.252 C 
ENDBRANCH  32  33
ENDBRANCH  10  27
BRANCH   5  35
ATOM     35  O   UNL     1     -32.016  28.490   5.657  0.00  0.00    -0.506 OA
ATOM     36  H   UNL     1     -31.278  28.259   6.186  0.00  0.00    +0.292 HD
ENDBRANCH   5  35
TORSDOF 9
ENDMDL
MODEL 8
REMARK VINA RESULT:      -5.9      2.976      8.531
REMARK  Name = 5319486
REMARK  9 active torsions:
REMARK  status: ('A' for Active; 'I' for Inactive)
REMARK    1  A    between atoms: C_3  and  C_15
REMARK    2  A    between atoms: C_5  and  O_35
REMARK    3  A    between atoms: C_10  and  C_27
REMARK    4  A    between atoms: C_13  and  O_18
REMARK    5  A    between atoms: C_14  and  O_20
REMARK    6  A    between atoms: C_16  and  O_22
REMARK    7  A    between atoms: C_17  and  C_24
REMARK    8  A    between atoms: C_24  and  O_25
REMARK    9  A    between atoms: C_32  and  O_33
REMARK                            x       y       z     vdW  Elec       q    Type
REMARK                         _______ _______ _______ _____ _____    ______ ____
ROOT
ATOM      1  O   UNL     1     -35.233  23.364   2.333  0.00  0.00    -0.450 OA
ATOM      2  O   UNL     1     -36.994  26.333   4.506  0.00  0.00    -0.286 OA
ATOM      3  C   UNL     1     -37.335  22.539   1.641  0.00  0.00    +0.075 C 
ATOM      4  C   UNL     1     -36.599  23.470   2.375  0.00  0.00    +0.150 C 
ATOM      5  C   UNL     1     -38.729  22.598   1.645  0.00  0.00    +0.135 C 
ATOM      6  C   UNL     1     -37.256  24.457   3.110  0.00  0.00    +0.074 C 
ATOM      7  C   UNL     1     -39.386  23.585   2.380  0.00  0.00    +0.037 C 
ATOM      8  C   UNL     1     -38.652  24.518   3.114  0.00  0.00    +0.009 C 
ATOM      9  C   UNL     1     -36.458  25.433   3.873  0.00  0.00    +0.202 C 
ATOM     10  C   UNL     1     -34.979  25.269   3.816  0.00  0.00    +0.077 C 
ATOM     11  C   UNL     1     -34.501  24.265   3.066  0.00  0.00    +0.183 C 
ENDROOT
BRANCH   3  15
ATOM     12  O   UNL     1     -36.931  21.682  -0.542  0.00  0.00    -0.346 OA
ATOM     13  C   UNL     1     -37.054  20.051   1.275  0.00  0.00    +0.171 C 
ATOM     14  C   UNL     1     -36.455  18.989   0.349  0.00  0.00    +0.169 C 
ATOM     15  C   UNL     1     -36.629  21.463   0.840  0.00  0.00    +0.173 C 
ATOM     16  C   UNL     1     -36.681  19.342  -1.122  0.00  0.00    +0.169 C 
ATOM     17  C   UNL     1     -36.244  20.779  -1.409  0.00  0.00    +0.174 C 
BRANCH  13  18
ATOM     18  O   UNL     1     -36.589  19.824   2.605  0.00  0.00    -0.379 OA
ATOM     19  H   UNL     1     -37.164  20.289   3.232  0.00  0.00    +0.211 HD
ENDBRANCH  13  18
BRANCH  14  20
ATOM     20  O   UNL     1     -37.081  17.730   0.601  0.00  0.00    -0.379 OA
ATOM     21  H   UNL     1     -36.621  17.280   1.327  0.00  0.00    +0.211 HD
ENDBRANCH  14  20
BRANCH  16  22
ATOM     22  O   UNL     1     -35.929  18.449  -1.940  0.00  0.00    -0.379 OA
ATOM     23  H   UNL     1     -36.467  18.176  -2.700  0.00  0.00    +0.211 HD
ENDBRANCH  16  22
BRANCH  17  24
ATOM     24  C   UNL     1     -36.560  21.190  -2.843  0.00  0.00    +0.169 C 
BRANCH  24  25
ATOM     25  O   UNL     1     -37.634  20.396  -3.314  0.00  0.00    -0.379 OA
ATOM     26  H   UNL     1     -38.414  20.956  -3.448  0.00  0.00    +0.211 HD
ENDBRANCH  24  25
ENDBRANCH  17  24
ENDBRANCH   3  15
BRANCH  10  27
ATOM     27  C   UNL     1     -34.068  26.152   4.564  0.00  0.00    +0.006 C 
ATOM     28  C   UNL     1     -33.340  27.136   3.893  0.00  0.00    +0.003 C 
ATOM     29  C   UNL     1     -33.930  26.007   5.946  0.00  0.00    +0.003 C 
ATOM     30  C   UNL     1     -32.477  27.974   4.600  0.00  0.00    +0.037 C 
ATOM     31  C   UNL     1     -33.067  26.844   6.654  0.00  0.00    +0.037 C 
ATOM     32  C   UNL     1     -32.341  27.827   5.981  0.00  0.00    +0.139 C 
BRANCH  32  33
ATOM     33  O   UNL     1     -31.500  28.644   6.673  0.00  0.00    -0.471 OA
ATOM     34  C   UNL     1     -31.547  30.037   6.364  0.00  0.00    +0.252 C 
ENDBRANCH  32  33
ENDBRANCH  10  27
BRANCH   5  35
ATOM     35  O   UNL     1     -39.467  21.698   0.936  0.00  0.00    -0.506 OA
ATOM     36  H   UNL     1     -39.830  21.940   0.106  0.00  0.00    +0.292 HD
ENDBRANCH   5  35
TORSDOF 9
ENDMDL
MODEL 9
REMARK VINA RESULT:      -5.9      3.570      8.583
REMARK  Name = 5319486
REMARK  9 active torsions:
REMARK  status: ('A' for Active; 'I' for Inactive)
REMARK    1  A    between atoms: C_3  and  C_15
REMARK    2  A    between atoms: C_5  and  O_35
REMARK    3  A    between atoms: C_10  and  C_27
REMARK    4  A    between atoms: C_13  and  O_18
REMARK    5  A    between atoms: C_14  and  O_20
REMARK    6  A    between atoms: C_16  and  O_22
REMARK    7  A    between atoms: C_17  and  C_24
REMARK    8  A    between atoms: C_24  and  O_25
REMARK    9  A    between atoms: C_32  and  O_33
REMARK                            x       y       z     vdW  Elec       q    Type
REMARK                         _______ _______ _______ _____ _____    ______ ____
ROOT
ATOM      1  O   UNL     1     -35.778  26.666   2.456  0.00  0.00    -0.450 OA
ATOM      2  O   UNL     1     -32.882  27.996   5.002  0.00  0.00    -0.286 OA
ATOM      3  C   UNL     1     -36.114  24.723   3.755  0.00  0.00    +0.075 C 
ATOM      4  C   UNL     1     -35.430  25.922   3.554  0.00  0.00    +0.150 C 
ATOM      5  C   UNL     1     -35.805  23.924   4.857  0.00  0.00    +0.135 C 
ATOM      6  C   UNL     1     -34.441  26.322   4.452  0.00  0.00    +0.074 C 
ATOM      7  C   UNL     1     -34.815  24.323   5.755  0.00  0.00    +0.037 C 
ATOM      8  C   UNL     1     -34.130  25.523   5.556  0.00  0.00    +0.009 C 
ATOM      9  C   UNL     1     -33.735  27.595   4.222  0.00  0.00    +0.202 C 
ATOM     10  C   UNL     1     -34.128  28.360   3.007  0.00  0.00    +0.077 C 
ATOM     11  C   UNL     1     -35.098  27.840   2.240  0.00  0.00    +0.183 C 
ENDROOT
BRANCH   3  15
ATOM     12  O   UNL     1     -38.412  24.923   3.168  0.00  0.00    -0.346 OA
ATOM     13  C   UNL     1     -37.360  22.754   2.769  0.00  0.00    +0.171 C 
ATOM     14  C   UNL     1     -38.556  22.344   1.906  0.00  0.00    +0.169 C 
ATOM     15  C   UNL     1     -37.192  24.282   2.784  0.00  0.00    +0.173 C 
ATOM     16  C   UNL     1     -39.801  23.158   2.258  0.00  0.00    +0.169 C 
ATOM     17  C   UNL     1     -39.487  24.655   2.266  0.00  0.00    +0.174 C 
BRANCH  13  18
ATOM     18  O   UNL     1     -36.175  22.170   2.228  0.00  0.00    -0.379 OA
ATOM     19  H   UNL     1     -35.839  21.497   2.839  0.00  0.00    +0.211 HD
ENDBRANCH  13  18
BRANCH  14  20
ATOM     20  O   UNL     1     -38.855  20.965   2.132  0.00  0.00    -0.379 OA
ATOM     21  H   UNL     1     -39.776  20.789   1.883  0.00  0.00    +0.211 HD
ENDBRANCH  14  20
BRANCH  16  22
ATOM     22  O   UNL     1     -40.821  22.898   1.297  0.00  0.00    -0.379 OA
ATOM     23  H   UNL     1     -40.842  21.949   1.096  0.00  0.00    +0.211 HD
ENDBRANCH  16  22
BRANCH  17  24
ATOM     24  C   UNL     1     -40.685  25.482   2.721  0.00  0.00    +0.169 C 
BRANCH  24  25
ATOM     25  O   UNL     1     -40.217  26.549   3.526  0.00  0.00    -0.379 OA
ATOM     26  H   UNL     1     -40.703  27.358   3.305  0.00  0.00    +0.211 HD
ENDBRANCH  24  25
ENDBRANCH  17  24
ENDBRANCH   3  15
BRANCH  10  27
ATOM     27  C   UNL     1     -33.475  29.628   2.640  0.00  0.00    +0.006 C 
ATOM     28  C   UNL     1     -34.018  30.843   3.061  0.00  0.00    +0.003 C 
ATOM     29  C   UNL     1     -32.311  29.618   1.869  0.00  0.00    +0.003 C 
ATOM     30  C   UNL     1     -33.400  32.045   2.714  0.00  0.00    +0.037 C 
ATOM     31  C   UNL     1     -31.692  30.819   1.521  0.00  0.00    +0.037 C 
ATOM     32  C   UNL     1     -32.237  32.032   1.944  0.00  0.00    +0.139 C 
BRANCH  32  33
ATOM     33  O   UNL     1     -31.632  33.204   1.605  0.00  0.00    -0.471 OA
ATOM     34  C   UNL     1     -30.601  33.677   2.470  0.00  0.00    +0.252 C 
ENDBRANCH  32  33
ENDBRANCH  10  27
BRANCH   5  35
ATOM     35  O   UNL     1     -36.460  22.749   5.072  0.00  0.00    -0.506 OA
ATOM     36  H   UNL     1     -36.090  22.104   5.642  0.00  0.00    +0.292 HD
ENDBRANCH   5  35
TORSDOF 9
ENDMDL
