MODEL 1
REMARK VINA RESULT:      -6.1      0.000      0.000
REMARK  Name = 5281770
REMARK  11 active torsions:
REMARK  status: ('A' for Active; 'I' for Inactive)
REMARK    1  A    between atoms: C_1  and  C_7
REMARK    2  A    between atoms: C_2  and  O_25
REMARK    3  A    between atoms: C_4  and  C_27
REMARK    4  A    between atoms: C_5  and  O_23
REMARK    5  A    between atoms: C_8  and  O_15
REMARK    6  A    between atoms: C_10  and  C_17
REMARK    7  A    between atoms: C_11  and  O_13
REMARK    8  A    between atoms: C_18  and  C_20
REMARK    9  A    between atoms: C_20  and  O_21
REMARK   10  A    between atoms: C_28  and  C_30
REMARK   11  A    between atoms: C_30  and  O_31
REMARK                            x       y       z     vdW  Elec       q    Type
REMARK                         _______ _______ _______ _____ _____    ______ ____
ROOT
ATOM      1  C   UNL     1     -37.996  24.932   2.251  0.00  0.00    +0.040 C 
ATOM      2  C   UNL     1     -38.031  24.461   0.938  0.00  0.00    +0.168 C 
ATOM      3  C   UNL     1     -39.055  25.692   2.748  0.00  0.00    +0.003 C 
ATOM      4  C   UNL     1     -40.149  25.981   1.931  0.00  0.00    +0.003 C 
ATOM      5  C   UNL     1     -39.125  24.750   0.122  0.00  0.00    +0.172 C 
ATOM      6  C   UNL     1     -40.183  25.510   0.619  0.00  0.00    +0.040 C 
ENDROOT
BRANCH   1   7
ATOM      7  C   UNL     1     -36.869  24.643   3.115  0.00  0.00    +0.040 C 
ATOM      8  C   UNL     1     -36.659  23.356   3.611  0.00  0.00    +0.168 C 
ATOM      9  C   UNL     1     -35.988  25.672   3.448  0.00  0.00    +0.003 C 
ATOM     10  C   UNL     1     -34.897  25.413   4.279  0.00  0.00    +0.003 C 
ATOM     11  C   UNL     1     -35.568  23.098   4.442  0.00  0.00    +0.172 C 
ATOM     12  C   UNL     1     -34.688  24.128   4.776  0.00  0.00    +0.040 C 
BRANCH  11  13
ATOM     13  O   UNL     1     -35.351  21.847   4.933  0.00  0.00    -0.468 OA
ATOM     14  C   UNL     1     -35.288  21.709   6.352  0.00  0.00    +0.253 C 
ENDBRANCH  11  13
BRANCH   8  15
ATOM     15  O   UNL     1     -37.513  22.339   3.294  0.00  0.00    -0.503 OA
ATOM     16  H   UNL     1     -37.689  21.663   3.919  0.00  0.00    +0.292 HD
ENDBRANCH   8  15
BRANCH  10  17
ATOM     17  C   UNL     1     -33.978  26.486   4.628  0.00  0.00    +0.007 C 
ATOM     18  C   UNL     1     -33.362  26.630   5.822  0.00  0.00    +0.082 C 
BRANCH  18  20
ATOM     19  O   UNL     1     -32.539  28.882   5.575  0.00  0.00    -0.245 OA
ATOM     20  C   UNL     1     -32.441  27.761   6.048  0.00  0.00    +0.338 C 
BRANCH  20  21
ATOM     21  O   UNL     1     -31.451  27.356   6.877  0.00  0.00    -0.477 OA
ATOM     22  H   UNL     1     -30.594  27.727   6.798  0.00  0.00    +0.295 HD
ENDBRANCH  20  21
ENDBRANCH  18  20
ENDBRANCH  10  17
ENDBRANCH   1   7
BRANCH   5  23
ATOM     23  O   UNL     1     -39.172  24.296  -1.161  0.00  0.00    -0.468 OA
ATOM     24  C   UNL     1     -39.869  23.072  -1.390  0.00  0.00    +0.253 C 
ENDBRANCH   5  23
BRANCH   2  25
ATOM     25  O   UNL     1     -37.002  23.716   0.438  0.00  0.00    -0.503 OA
ATOM     26  H   UNL     1     -36.863  23.673  -0.488  0.00  0.00    +0.292 HD
ENDBRANCH   2  25
BRANCH   4  27
ATOM     27  C   UNL     1     -41.254  26.774   2.449  0.00  0.00    +0.007 C 
ATOM     28  C   UNL     1     -41.534  26.961   3.758  0.00  0.00    +0.082 C 
BRANCH  28  30
ATOM     29  O   UNL     1     -43.862  27.524   4.022  0.00  0.00    -0.245 OA
ATOM     30  C   UNL     1     -42.682  27.799   4.156  0.00  0.00    +0.338 C 
BRANCH  30  31
ATOM     31  O   UNL     1     -42.212  28.945   4.704  0.00  0.00    -0.477 OA
ATOM     32  H   UNL     1     -41.306  29.167   4.622  0.00  0.00    +0.295 HD
ENDBRANCH  30  31
ENDBRANCH  28  30
ENDBRANCH   4  27
TORSDOF 11
ENDMDL
MODEL 2
REMARK VINA RESULT:      -6.1      0.455      7.534
REMARK  Name = 5281770
REMARK  11 active torsions:
REMARK  status: ('A' for Active; 'I' for Inactive)
REMARK    1  A    between atoms: C_1  and  C_7
REMARK    2  A    between atoms: C_2  and  O_25
REMARK    3  A    between atoms: C_4  and  C_27
REMARK    4  A    between atoms: C_5  and  O_23
REMARK    5  A    between atoms: C_8  and  O_15
REMARK    6  A    between atoms: C_10  and  C_17
REMARK    7  A    between atoms: C_11  and  O_13
REMARK    8  A    between atoms: C_18  and  C_20
REMARK    9  A    between atoms: C_20  and  O_21
REMARK   10  A    between atoms: C_28  and  C_30
REMARK   11  A    between atoms: C_30  and  O_31
REMARK                            x       y       z     vdW  Elec       q    Type
REMARK                         _______ _______ _______ _____ _____    ______ ____
ROOT
ATOM      1  C   UNL     1     -36.802  24.669   3.150  0.00  0.00    +0.040 C 
ATOM      2  C   UNL     1     -36.590  23.387   3.657  0.00  0.00    +0.168 C 
ATOM      3  C   UNL     1     -35.922  25.701   3.472  0.00  0.00    +0.003 C 
ATOM      4  C   UNL     1     -34.829  25.452   4.303  0.00  0.00    +0.003 C 
ATOM      5  C   UNL     1     -35.497  23.137   4.487  0.00  0.00    +0.172 C 
ATOM      6  C   UNL     1     -34.617  24.170   4.811  0.00  0.00    +0.040 C 
ENDROOT
BRANCH   1   7
ATOM      7  C   UNL     1     -37.932  24.949   2.286  0.00  0.00    +0.040 C 
ATOM      8  C   UNL     1     -37.966  24.472   0.976  0.00  0.00    +0.168 C 
ATOM      9  C   UNL     1     -38.994  25.706   2.781  0.00  0.00    +0.003 C 
ATOM     10  C   UNL     1     -40.090  25.987   1.964  0.00  0.00    +0.003 C 
ATOM     11  C   UNL     1     -39.063  24.752   0.160  0.00  0.00    +0.172 C 
ATOM     12  C   UNL     1     -40.124  25.511   0.655  0.00  0.00    +0.040 C 
BRANCH  11  13
ATOM     13  O   UNL     1     -39.110  24.293  -1.121  0.00  0.00    -0.468 OA
ATOM     14  C   UNL     1     -39.359  25.254  -2.146  0.00  0.00    +0.253 C 
ENDBRANCH  11  13
BRANCH   8  15
ATOM     15  O   UNL     1     -36.935  23.729   0.477  0.00  0.00    -0.503 OA
ATOM     16  H   UNL     1     -37.112  22.941   0.002  0.00  0.00    +0.292 HD
ENDBRANCH   8  15
BRANCH  10  17
ATOM     17  C   UNL     1     -41.198  26.777   2.480  0.00  0.00    +0.007 C 
ATOM     18  C   UNL     1     -41.526  26.902   3.785  0.00  0.00    +0.082 C 
BRANCH  18  20
ATOM     19  O   UNL     1     -43.852  27.435   4.130  0.00  0.00    -0.245 OA
ATOM     20  C   UNL     1     -42.673  27.744   4.181  0.00  0.00    +0.338 C 
BRANCH  20  21
ATOM     21  O   UNL     1     -42.205  28.936   4.619  0.00  0.00    -0.477 OA
ATOM     22  H   UNL     1     -42.450  29.726   4.178  0.00  0.00    +0.295 HD
ENDBRANCH  20  21
ENDBRANCH  18  20
ENDBRANCH  10  17
ENDBRANCH   1   7
BRANCH   5  23
ATOM     23  O   UNL     1     -35.277  21.891   4.989  0.00  0.00    -0.468 OA
ATOM     24  C   UNL     1     -35.327  21.745   6.408  0.00  0.00    +0.253 C 
ENDBRANCH   5  23
BRANCH   2  25
ATOM     25  O   UNL     1     -37.443  22.366   3.351  0.00  0.00    -0.503 OA
ATOM     26  H   UNL     1     -38.370  22.502   3.391  0.00  0.00    +0.292 HD
ENDBRANCH   2  25
BRANCH   4  27
ATOM     27  C   UNL     1     -33.910  26.529   4.640  0.00  0.00    +0.007 C 
ATOM     28  C   UNL     1     -33.304  26.693   5.837  0.00  0.00    +0.082 C 
BRANCH  28  30
ATOM     29  O   UNL     1     -32.506  28.955   5.606  0.00  0.00    -0.245 OA
ATOM     30  C   UNL     1     -32.382  27.825   6.050  0.00  0.00    +0.338 C 
BRANCH  30  31
ATOM     31  O   UNL     1     -31.357  27.409   6.830  0.00  0.00    -0.477 OA
ATOM     32  H   UNL     1     -30.587  27.046   6.438  0.00  0.00    +0.295 HD
ENDBRANCH  30  31
ENDBRANCH  28  30
ENDBRANCH   4  27
TORSDOF 11
ENDMDL
MODEL 3
REMARK VINA RESULT:      -6.0      2.484      4.098
REMARK  Name = 5281770
REMARK  11 active torsions:
REMARK  status: ('A' for Active; 'I' for Inactive)
REMARK    1  A    between atoms: C_1  and  C_7
REMARK    2  A    between atoms: C_2  and  O_25
REMARK    3  A    between atoms: C_4  and  C_27
REMARK    4  A    between atoms: C_5  and  O_23
REMARK    5  A    between atoms: C_8  and  O_15
REMARK    6  A    between atoms: C_10  and  C_17
REMARK    7  A    between atoms: C_11  and  O_13
REMARK    8  A    between atoms: C_18  and  C_20
REMARK    9  A    between atoms: C_20  and  O_21
REMARK   10  A    between atoms: C_28  and  C_30
REMARK   11  A    between atoms: C_30  and  O_31
REMARK                            x       y       z     vdW  Elec       q    Type
REMARK                         _______ _______ _______ _____ _____    ______ ____
ROOT
ATOM      1  C   UNL     1     -39.934  25.706   2.377  0.00  0.00    +0.040 C 
ATOM      2  C   UNL     1     -40.465  24.817   1.442  0.00  0.00    +0.168 C 
ATOM      3  C   UNL     1     -40.779  26.560   3.086  0.00  0.00    +0.003 C 
ATOM      4  C   UNL     1     -42.155  26.525   2.859  0.00  0.00    +0.003 C 
ATOM      5  C   UNL     1     -41.841  24.782   1.216  0.00  0.00    +0.172 C 
ATOM      6  C   UNL     1     -42.685  25.637   1.924  0.00  0.00    +0.040 C 
ENDROOT
BRANCH   1   7
ATOM      7  C   UNL     1     -38.507  25.758   2.626  0.00  0.00    +0.040 C 
ATOM      8  C   UNL     1     -37.692  26.655   1.935  0.00  0.00    +0.168 C 
ATOM      9  C   UNL     1     -37.951  24.897   3.573  0.00  0.00    +0.003 C 
ATOM     10  C   UNL     1     -36.580  24.932   3.826  0.00  0.00    +0.003 C 
ATOM     11  C   UNL     1     -36.320  26.690   2.189  0.00  0.00    +0.172 C 
ATOM     12  C   UNL     1     -35.765  25.827   3.134  0.00  0.00    +0.040 C 
BRANCH  11  13
ATOM     13  O   UNL     1     -35.513  27.560   1.522  0.00  0.00    -0.468 OA
ATOM     14  C   UNL     1     -35.059  28.705   2.242  0.00  0.00    +0.253 C 
ENDBRANCH  11  13
BRANCH   8  15
ATOM     15  O   UNL     1     -38.221  27.504   1.006  0.00  0.00    -0.503 OA
ATOM     16  H   UNL     1     -38.194  27.279   0.097  0.00  0.00    +0.292 HD
ENDBRANCH   8  15
BRANCH  10  17
ATOM     17  C   UNL     1     -35.999  24.034   4.813  0.00  0.00    +0.007 C 
ATOM     18  C   UNL     1     -35.891  22.693   4.681  0.00  0.00    +0.082 C 
BRANCH  18  20
ATOM     19  O   UNL     1     -34.962  22.286   6.867  0.00  0.00    -0.245 OA
ATOM     20  C   UNL     1     -35.271  21.892   5.755  0.00  0.00    +0.338 C 
BRANCH  20  21
ATOM     21  O   UNL     1     -35.097  20.627   5.307  0.00  0.00    -0.477 OA
ATOM     22  H   UNL     1     -35.835  20.126   5.021  0.00  0.00    +0.295 HD
ENDBRANCH  20  21
ENDBRANCH  18  20
ENDBRANCH  10  17
ENDBRANCH   1   7
BRANCH   5  23
ATOM     23  O   UNL     1     -42.373  23.919   0.307  0.00  0.00    -0.468 OA
ATOM     24  C   UNL     1     -42.778  24.466  -0.947  0.00  0.00    +0.253 C 
ENDBRANCH   5  23
BRANCH   2  25
ATOM     25  O   UNL     1     -39.651  23.975   0.741  0.00  0.00    -0.503 OA
ATOM     26  H   UNL     1     -39.100  23.369   1.197  0.00  0.00    +0.292 HD
ENDBRANCH   2  25
BRANCH   4  27
ATOM     27  C   UNL     1     -43.036  27.417   3.598  0.00  0.00    +0.007 C 
ATOM     28  C   UNL     1     -42.643  28.516   4.279  0.00  0.00    +0.082 C 
BRANCH  28  30
ATOM     29  O   UNL     1     -44.834  29.409   4.738  0.00  0.00    -0.245 OA
ATOM     30  C   UNL     1     -43.640  29.347   4.982  0.00  0.00    +0.338 C 
BRANCH  30  31
ATOM     31  O   UNL     1     -43.014  30.042   5.960  0.00  0.00    -0.477 OA
ATOM     32  H   UNL     1     -42.455  29.598   6.567  0.00  0.00    +0.295 HD
ENDBRANCH  30  31
ENDBRANCH  28  30
ENDBRANCH   4  27
TORSDOF 11
ENDMDL
MODEL 4
REMARK VINA RESULT:      -6.0      2.589      7.704
REMARK  Name = 5281770
REMARK  11 active torsions:
REMARK  status: ('A' for Active; 'I' for Inactive)
REMARK    1  A    between atoms: C_1  and  C_7
REMARK    2  A    between atoms: C_2  and  O_25
REMARK    3  A    between atoms: C_4  and  C_27
REMARK    4  A    between atoms: C_5  and  O_23
REMARK    5  A    between atoms: C_8  and  O_15
REMARK    6  A    between atoms: C_10  and  C_17
REMARK    7  A    between atoms: C_11  and  O_13
REMARK    8  A    between atoms: C_18  and  C_20
REMARK    9  A    between atoms: C_20  and  O_21
REMARK   10  A    between atoms: C_28  and  C_30
REMARK   11  A    between atoms: C_30  and  O_31
REMARK                            x       y       z     vdW  Elec       q    Type
REMARK                         _______ _______ _______ _____ _____    ______ ____
ROOT
ATOM      1  C   UNL     1     -38.744  25.739   2.603  0.00  0.00    +0.040 C 
ATOM      2  C   UNL     1     -37.910  26.575   1.861  0.00  0.00    +0.168 C 
ATOM      3  C   UNL     1     -38.201  24.885   3.562  0.00  0.00    +0.003 C 
ATOM      4  C   UNL     1     -36.823  24.866   3.779  0.00  0.00    +0.003 C 
ATOM      5  C   UNL     1     -36.531  26.556   2.078  0.00  0.00    +0.172 C 
ATOM      6  C   UNL     1     -35.989  25.701   3.036  0.00  0.00    +0.040 C 
ENDROOT
BRANCH   1   7
ATOM      7  C   UNL     1     -40.178  25.744   2.393  0.00  0.00    +0.040 C 
ATOM      8  C   UNL     1     -40.763  24.916   1.434  0.00  0.00    +0.168 C 
ATOM      9  C   UNL     1     -40.975  26.590   3.164  0.00  0.00    +0.003 C 
ATOM     10  C   UNL     1     -42.357  26.609   2.976  0.00  0.00    +0.003 C 
ATOM     11  C   UNL     1     -42.146  24.935   1.247  0.00  0.00    +0.172 C 
ATOM     12  C   UNL     1     -42.942  25.782   2.018  0.00  0.00    +0.040 C 
BRANCH  11  13
ATOM     13  O   UNL     1     -42.731  24.132   0.316  0.00  0.00    -0.468 OA
ATOM     14  C   UNL     1     -44.143  24.253   0.151  0.00  0.00    +0.253 C 
ENDBRANCH  11  13
BRANCH   8  15
ATOM     15  O   UNL     1     -39.997  24.082   0.672  0.00  0.00    -0.503 OA
ATOM     16  H   UNL     1     -39.907  24.240  -0.248  0.00  0.00    +0.292 HD
ENDBRANCH   8  15
BRANCH  10  17
ATOM     17  C   UNL     1     -43.189  27.491   3.781  0.00  0.00    +0.007 C 
ATOM     18  C   UNL     1     -42.767  28.622   4.388  0.00  0.00    +0.082 C 
BRANCH  18  20
ATOM     19  O   UNL     1     -44.933  29.402   5.103  0.00  0.00    -0.245 OA
ATOM     20  C   UNL     1     -43.716  29.438   5.172  0.00  0.00    +0.338 C 
BRANCH  20  21
ATOM     21  O   UNL     1     -43.013  30.249   5.997  0.00  0.00    -0.477 OA
ATOM     22  H   UNL     1     -42.149  30.006   6.267  0.00  0.00    +0.295 HD
ENDBRANCH  20  21
ENDBRANCH  18  20
ENDBRANCH  10  17
ENDBRANCH   1   7
BRANCH   5  23
ATOM     23  O   UNL     1     -35.705  27.367   1.361  0.00  0.00    -0.468 OA
ATOM     24  C   UNL     1     -34.302  27.217   1.576  0.00  0.00    +0.253 C 
ENDBRANCH   5  23
BRANCH   2  25
ATOM     25  O   UNL     1     -38.426  27.417   0.918  0.00  0.00    -0.503 OA
ATOM     26  H   UNL     1     -37.855  27.856   0.319  0.00  0.00    +0.292 HD
ENDBRANCH   2  25
BRANCH   4  27
ATOM     27  C   UNL     1     -36.256  23.974   4.779  0.00  0.00    +0.007 C 
ATOM     28  C   UNL     1     -35.871  22.697   4.559  0.00  0.00    +0.082 C 
BRANCH  28  30
ATOM     29  O   UNL     1     -35.058  22.286   6.790  0.00  0.00    -0.245 OA
ATOM     30  C   UNL     1     -35.298  21.897   5.659  0.00  0.00    +0.338 C 
BRANCH  30  31
ATOM     31  O   UNL     1     -35.077  20.639   5.212  0.00  0.00    -0.477 OA
ATOM     32  H   UNL     1     -34.458  20.488   4.525  0.00  0.00    +0.295 HD
ENDBRANCH  30  31
ENDBRANCH  28  30
ENDBRANCH   4  27
TORSDOF 11
ENDMDL
MODEL 5
REMARK VINA RESULT:      -5.9     12.017     14.876
REMARK  Name = 5281770
REMARK  11 active torsions:
REMARK  status: ('A' for Active; 'I' for Inactive)
REMARK    1  A    between atoms: C_1  and  C_7
REMARK    2  A    between atoms: C_2  and  O_25
REMARK    3  A    between atoms: C_4  and  C_27
REMARK    4  A    between atoms: C_5  and  O_23
REMARK    5  A    between atoms: C_8  and  O_15
REMARK    6  A    between atoms: C_10  and  C_17
REMARK    7  A    between atoms: C_11  and  O_13
REMARK    8  A    between atoms: C_18  and  C_20
REMARK    9  A    between atoms: C_20  and  O_21
REMARK   10  A    between atoms: C_28  and  C_30
REMARK   11  A    between atoms: C_30  and  O_31
REMARK                            x       y       z     vdW  Elec       q    Type
REMARK                         _______ _______ _______ _____ _____    ______ ____
ROOT
ATOM      1  C   UNL     1     -34.865  38.914   0.363  0.00  0.00    +0.040 C 
ATOM      2  C   UNL     1     -34.717  39.430  -0.924  0.00  0.00    +0.168 C 
ATOM      3  C   UNL     1     -34.505  39.683   1.470  0.00  0.00    +0.003 C 
ATOM      4  C   UNL     1     -33.996  40.970   1.288  0.00  0.00    +0.003 C 
ATOM      5  C   UNL     1     -34.209  40.717  -1.105  0.00  0.00    +0.172 C 
ATOM      6  C   UNL     1     -33.848  41.486   0.001  0.00  0.00    +0.040 C 
ENDROOT
BRANCH   1   7
ATOM      7  C   UNL     1     -35.391  37.579   0.573  0.00  0.00    +0.040 C 
ATOM      8  C   UNL     1     -34.549  36.467   0.553  0.00  0.00    +0.168 C 
ATOM      9  C   UNL     1     -36.758  37.416   0.798  0.00  0.00    +0.003 C 
ATOM     10  C   UNL     1     -37.283  36.140   1.002  0.00  0.00    +0.003 C 
ATOM     11  C   UNL     1     -35.075  35.191   0.757  0.00  0.00    +0.172 C 
ATOM     12  C   UNL     1     -36.442  35.028   0.981  0.00  0.00    +0.040 C 
BRANCH  11  13
ATOM     13  O   UNL     1     -34.265  34.096   0.740  0.00  0.00    -0.468 OA
ATOM     14  C   UNL     1     -33.810  33.607   2.001  0.00  0.00    +0.253 C 
ENDBRANCH  11  13
BRANCH   8  15
ATOM     15  O   UNL     1     -33.209  36.611   0.334  0.00  0.00    -0.503 OA
ATOM     16  H   UNL     1     -32.784  36.091  -0.319  0.00  0.00    +0.292 HD
ENDBRANCH   8  15
BRANCH  10  17
ATOM     17  C   UNL     1     -38.709  35.969   1.237  0.00  0.00    +0.007 C 
ATOM     18  C   UNL     1     -39.275  35.684   2.431  0.00  0.00    +0.082 C 
BRANCH  18  20
ATOM     19  O   UNL     1     -41.499  35.155   1.667  0.00  0.00    -0.245 OA
ATOM     20  C   UNL     1     -40.741  35.544   2.539  0.00  0.00    +0.338 C 
BRANCH  20  21
ATOM     21  O   UNL     1     -41.122  35.920   3.783  0.00  0.00    -0.477 OA
ATOM     22  H   UNL     1     -40.774  35.478   4.532  0.00  0.00    +0.295 HD
ENDBRANCH  20  21
ENDBRANCH  18  20
ENDBRANCH  10  17
ENDBRANCH   1   7
BRANCH   5  23
ATOM     23  O   UNL     1     -34.060  41.234  -2.356  0.00  0.00    -0.468 OA
ATOM     24  C   UNL     1     -34.489  42.580  -2.557  0.00  0.00    +0.253 C 
ENDBRANCH   5  23
BRANCH   2  25
ATOM     25  O   UNL     1     -35.065  38.689  -2.017  0.00  0.00    -0.503 OA
ATOM     26  H   UNL     1     -35.924  38.317  -2.075  0.00  0.00    +0.292 HD
ENDBRANCH   2  25
BRANCH   4  27
ATOM     27  C   UNL     1     -33.620  41.773   2.442  0.00  0.00    +0.007 C 
ATOM     28  C   UNL     1     -32.857  41.348   3.473  0.00  0.00    +0.082 C 
BRANCH  28  30
ATOM     29  O   UNL     1     -32.205  41.951   5.713  0.00  0.00    -0.245 OA
ATOM     30  C   UNL     1     -32.536  42.267   4.583  0.00  0.00    +0.338 C 
BRANCH  30  31
ATOM     31  O   UNL     1     -32.668  43.540   4.144  0.00  0.00    -0.477 OA
ATOM     32  H   UNL     1     -32.800  43.710   3.232  0.00  0.00    +0.295 HD
ENDBRANCH  30  31
ENDBRANCH  28  30
ENDBRANCH   4  27
TORSDOF 11
ENDMDL
MODEL 6
REMARK VINA RESULT:      -5.9     12.351     14.525
REMARK  Name = 5281770
REMARK  11 active torsions:
REMARK  status: ('A' for Active; 'I' for Inactive)
REMARK    1  A    between atoms: C_1  and  C_7
REMARK    2  A    between atoms: C_2  and  O_25
REMARK    3  A    between atoms: C_4  and  C_27
REMARK    4  A    between atoms: C_5  and  O_23
REMARK    5  A    between atoms: C_8  and  O_15
REMARK    6  A    between atoms: C_10  and  C_17
REMARK    7  A    between atoms: C_11  and  O_13
REMARK    8  A    between atoms: C_18  and  C_20
REMARK    9  A    between atoms: C_20  and  O_21
REMARK   10  A    between atoms: C_28  and  C_30
REMARK   11  A    between atoms: C_30  and  O_31
REMARK                            x       y       z     vdW  Elec       q    Type
REMARK                         _______ _______ _______ _____ _____    ______ ____
ROOT
ATOM      1  C   UNL     1     -35.311  37.676   0.631  0.00  0.00    +0.040 C 
ATOM      2  C   UNL     1     -34.438  36.588   0.647  0.00  0.00    +0.168 C 
ATOM      3  C   UNL     1     -36.680  37.474   0.805  0.00  0.00    +0.003 C 
ATOM      4  C   UNL     1     -37.176  36.184   0.995  0.00  0.00    +0.003 C 
ATOM      5  C   UNL     1     -34.934  35.298   0.837  0.00  0.00    +0.172 C 
ATOM      6  C   UNL     1     -36.303  35.097   1.010  0.00  0.00    +0.040 C 
ENDROOT
BRANCH   1   7
ATOM      7  C   UNL     1     -34.816  39.024   0.435  0.00  0.00    +0.040 C 
ATOM      8  C   UNL     1     -34.630  39.539  -0.848  0.00  0.00    +0.168 C 
ATOM      9  C   UNL     1     -34.525  39.809   1.551  0.00  0.00    +0.003 C 
ATOM     10  C   UNL     1     -34.047  41.109   1.383  0.00  0.00    +0.003 C 
ATOM     11  C   UNL     1     -34.153  40.839  -1.015  0.00  0.00    +0.172 C 
ATOM     12  C   UNL     1     -33.860  41.623   0.100  0.00  0.00    +0.040 C 
BRANCH  11  13
ATOM     13  O   UNL     1     -33.967  41.355  -2.262  0.00  0.00    -0.468 OA
ATOM     14  C   UNL     1     -34.249  42.742  -2.439  0.00  0.00    +0.253 C 
ENDBRANCH  11  13
BRANCH   8  15
ATOM     15  O   UNL     1     -34.911  38.783  -1.950  0.00  0.00    -0.503 OA
ATOM     16  H   UNL     1     -34.255  38.650  -2.605  0.00  0.00    +0.292 HD
ENDBRANCH   8  15
BRANCH  10  17
ATOM     17  C   UNL     1     -33.743  41.929   2.546  0.00  0.00    +0.007 C 
ATOM     18  C   UNL     1     -33.008  43.063   2.532  0.00  0.00    +0.082 C 
BRANCH  18  20
ATOM     19  O   UNL     1     -32.274  43.378   4.806  0.00  0.00    -0.245 OA
ATOM     20  C   UNL     1     -32.779  43.811   3.784  0.00  0.00    +0.338 C 
BRANCH  20  21
ATOM     21  O   UNL     1     -33.224  45.079   3.619  0.00  0.00    -0.477 OA
ATOM     22  H   UNL     1     -32.655  45.732   3.261  0.00  0.00    +0.295 HD
ENDBRANCH  20  21
ENDBRANCH  18  20
ENDBRANCH  10  17
ENDBRANCH   1   7
BRANCH   5  23
ATOM     23  O   UNL     1     -34.093  34.227   0.856  0.00  0.00    -0.468 OA
ATOM     24  C   UNL     1     -33.503  33.888   2.110  0.00  0.00    +0.253 C 
ENDBRANCH   5  23
BRANCH   2  25
ATOM     25  O   UNL     1     -33.095  36.770   0.479  0.00  0.00    -0.503 OA
ATOM     26  H   UNL     1     -32.529  36.796   1.225  0.00  0.00    +0.292 HD
ENDBRANCH   2  25
BRANCH   4  27
ATOM     27  C   UNL     1     -38.605  35.973   1.176  0.00  0.00    +0.007 C 
ATOM     28  C   UNL     1     -39.219  35.765   2.362  0.00  0.00    +0.082 C 
BRANCH  28  30
ATOM     29  O   UNL     1     -41.396  35.194   1.501  0.00  0.00    -0.245 OA
ATOM     30  C   UNL     1     -40.681  35.575   2.413  0.00  0.00    +0.338 C 
BRANCH  30  31
ATOM     31  O   UNL     1     -41.117  35.892   3.655  0.00  0.00    -0.477 OA
ATOM     32  H   UNL     1     -41.410  35.218   4.236  0.00  0.00    +0.295 HD
ENDBRANCH  30  31
ENDBRANCH  28  30
ENDBRANCH   4  27
TORSDOF 11
ENDMDL
MODEL 7
REMARK VINA RESULT:      -5.8      2.203      7.716
REMARK  Name = 5281770
REMARK  11 active torsions:
REMARK  status: ('A' for Active; 'I' for Inactive)
REMARK    1  A    between atoms: C_1  and  C_7
REMARK    2  A    between atoms: C_2  and  O_25
REMARK    3  A    between atoms: C_4  and  C_27
REMARK    4  A    between atoms: C_5  and  O_23
REMARK    5  A    between atoms: C_8  and  O_15
REMARK    6  A    between atoms: C_10  and  C_17
REMARK    7  A    between atoms: C_11  and  O_13
REMARK    8  A    between atoms: C_18  and  C_20
REMARK    9  A    between atoms: C_20  and  O_21
REMARK   10  A    between atoms: C_28  and  C_30
REMARK   11  A    between atoms: C_30  and  O_31
REMARK                            x       y       z     vdW  Elec       q    Type
REMARK                         _______ _______ _______ _____ _____    ______ ____
ROOT
ATOM      1  C   UNL     1     -36.412  25.123   3.292  0.00  0.00    +0.040 C 
ATOM      2  C   UNL     1     -36.596  23.976   4.065  0.00  0.00    +0.168 C 
ATOM      3  C   UNL     1     -35.419  26.041   3.631  0.00  0.00    +0.003 C 
ATOM      4  C   UNL     1     -34.608  25.812   4.744  0.00  0.00    +0.003 C 
ATOM      5  C   UNL     1     -35.785  23.748   5.178  0.00  0.00    +0.172 C 
ATOM      6  C   UNL     1     -34.792  24.667   5.517  0.00  0.00    +0.040 C 
ENDROOT
BRANCH   1   7
ATOM      7  C   UNL     1     -37.244  25.379   2.133  0.00  0.00    +0.040 C 
ATOM      8  C   UNL     1     -38.457  26.056   2.258  0.00  0.00    +0.168 C 
ATOM      9  C   UNL     1     -36.816  24.938   0.880  0.00  0.00    +0.003 C 
ATOM     10  C   UNL     1     -37.603  25.174  -0.247  0.00  0.00    +0.003 C 
ATOM     11  C   UNL     1     -39.243  26.292   1.130  0.00  0.00    +0.172 C 
ATOM     12  C   UNL     1     -38.816  25.850  -0.122  0.00  0.00    +0.040 C 
BRANCH  11  13
ATOM     13  O   UNL     1     -40.430  26.952   1.237  0.00  0.00    -0.468 OA
ATOM     14  C   UNL     1     -41.616  26.159   1.237  0.00  0.00    +0.253 C 
ENDBRANCH  11  13
BRANCH   8  15
ATOM     15  O   UNL     1     -38.889  26.493   3.477  0.00  0.00    -0.503 OA
ATOM     16  H   UNL     1     -38.495  27.248   3.870  0.00  0.00    +0.292 HD
ENDBRANCH   8  15
BRANCH  10  17
ATOM     17  C   UNL     1     -37.158  24.716  -1.554  0.00  0.00    +0.007 C 
ATOM     18  C   UNL     1     -35.888  24.775  -2.012  0.00  0.00    +0.082 C 
BRANCH  18  20
ATOM     19  O   UNL     1     -34.545  23.677  -3.685  0.00  0.00    -0.245 OA
ATOM     20  C   UNL     1     -35.562  24.265  -3.358  0.00  0.00    +0.338 C 
BRANCH  20  21
ATOM     21  O   UNL     1     -36.588  24.557  -4.192  0.00  0.00    -0.477 OA
ATOM     22  H   UNL     1     -36.765  25.448  -4.423  0.00  0.00    +0.295 HD
ENDBRANCH  20  21
ENDBRANCH  18  20
ENDBRANCH  10  17
ENDBRANCH   1   7
BRANCH   5  23
ATOM     23  O   UNL     1     -35.952  22.632   5.941  0.00  0.00    -0.468 OA
ATOM     24  C   UNL     1     -34.914  21.655   5.897  0.00  0.00    +0.253 C 
ENDBRANCH   5  23
BRANCH   2  25
ATOM     25  O   UNL     1     -37.564  23.068   3.747  0.00  0.00    -0.503 OA
ATOM     26  H   UNL     1     -37.356  22.155   3.713  0.00  0.00    +0.292 HD
ENDBRANCH   2  25
BRANCH   4  27
ATOM     27  C   UNL     1     -33.572  26.771   5.097  0.00  0.00    +0.007 C 
ATOM     28  C   UNL     1     -33.077  26.962   6.341  0.00  0.00    +0.082 C 
BRANCH  28  30
ATOM     29  O   UNL     1     -32.132  29.173   6.500  0.00  0.00    -0.245 OA
ATOM     30  C   UNL     1     -32.014  27.961   6.568  0.00  0.00    +0.338 C 
BRANCH  30  31
ATOM     31  O   UNL     1     -30.866  27.312   6.870  0.00  0.00    -0.477 OA
ATOM     32  H   UNL     1     -30.894  26.510   7.353  0.00  0.00    +0.295 HD
ENDBRANCH  30  31
ENDBRANCH  28  30
ENDBRANCH   4  27
TORSDOF 11
ENDMDL
MODEL 8
REMARK VINA RESULT:      -5.8      2.298      4.761
REMARK  Name = 5281770
REMARK  11 active torsions:
REMARK  status: ('A' for Active; 'I' for Inactive)
REMARK    1  A    between atoms: C_1  and  C_7
REMARK    2  A    between atoms: C_2  and  O_25
REMARK    3  A    between atoms: C_4  and  C_27
REMARK    4  A    between atoms: C_5  and  O_23
REMARK    5  A    between atoms: C_8  and  O_15
REMARK    6  A    between atoms: C_10  and  C_17
REMARK    7  A    between atoms: C_11  and  O_13
REMARK    8  A    between atoms: C_18  and  C_20
REMARK    9  A    between atoms: C_20  and  O_21
REMARK   10  A    between atoms: C_28  and  C_30
REMARK   11  A    between atoms: C_30  and  O_31
REMARK                            x       y       z     vdW  Elec       q    Type
REMARK                         _______ _______ _______ _____ _____    ______ ____
ROOT
ATOM      1  C   UNL     1     -36.896  25.507   2.339  0.00  0.00    +0.040 C 
ATOM      2  C   UNL     1     -38.134  26.148   2.380  0.00  0.00    +0.168 C 
ATOM      3  C   UNL     1     -36.281  25.256   1.113  0.00  0.00    +0.003 C 
ATOM      4  C   UNL     1     -36.905  25.645  -0.073  0.00  0.00    +0.003 C 
ATOM      5  C   UNL     1     -38.758  26.538   1.194  0.00  0.00    +0.172 C 
ATOM      6  C   UNL     1     -38.143  26.285  -0.032  0.00  0.00    +0.040 C 
ENDROOT
BRANCH   1   7
ATOM      7  C   UNL     1     -36.232  25.093   3.559  0.00  0.00    +0.040 C 
ATOM      8  C   UNL     1     -36.484  23.842   4.123  0.00  0.00    +0.168 C 
ATOM      9  C   UNL     1     -35.330  25.965   4.170  0.00  0.00    +0.003 C 
ATOM     10  C   UNL     1     -34.682  25.586   5.346  0.00  0.00    +0.003 C 
ATOM     11  C   UNL     1     -35.834  23.463   5.298  0.00  0.00    +0.172 C 
ATOM     12  C   UNL     1     -34.934  24.336   5.909  0.00  0.00    +0.040 C 
BRANCH  11  13
ATOM     13  O   UNL     1     -36.070  22.245   5.859  0.00  0.00    -0.468 OA
ATOM     14  C   UNL     1     -34.960  21.353   5.963  0.00  0.00    +0.253 C 
ENDBRANCH  11  13
BRANCH   8  15
ATOM     15  O   UNL     1     -37.363  22.978   3.536  0.00  0.00    -0.503 OA
ATOM     16  H   UNL     1     -37.512  22.134   3.915  0.00  0.00    +0.292 HD
ENDBRANCH   8  15
BRANCH  10  17
ATOM     17  C   UNL     1     -33.741  26.495   5.984  0.00  0.00    +0.007 C 
ATOM     18  C   UNL     1     -32.930  27.360   5.336  0.00  0.00    +0.082 C 
BRANCH  18  20
ATOM     19  O   UNL     1     -32.117  29.449   6.222  0.00  0.00    -0.245 OA
ATOM     20  C   UNL     1     -32.024  28.239   6.102  0.00  0.00    +0.338 C 
BRANCH  20  21
ATOM     21  O   UNL     1     -31.055  27.479   6.663  0.00  0.00    -0.477 OA
ATOM     22  H   UNL     1     -31.202  27.071   7.494  0.00  0.00    +0.295 HD
ENDBRANCH  20  21
ENDBRANCH  18  20
ENDBRANCH  10  17
ENDBRANCH   1   7
BRANCH   5  23
ATOM     23  O   UNL     1     -39.966  27.165   1.220  0.00  0.00    -0.468 OA
ATOM     24  C   UNL     1     -41.119  26.360   0.976  0.00  0.00    +0.253 C 
ENDBRANCH   5  23
BRANCH   2  25
ATOM     25  O   UNL     1     -38.749  26.400   3.573  0.00  0.00    -0.503 OA
ATOM     26  H   UNL     1     -38.242  26.676   4.312  0.00  0.00    +0.292 HD
ENDBRANCH   2  25
BRANCH   4  27
ATOM     27  C   UNL     1     -36.263  25.383  -1.353  0.00  0.00    +0.007 C 
ATOM     28  C   UNL     1     -35.978  24.157  -1.846  0.00  0.00    +0.082 C 
BRANCH  28  30
ATOM     29  O   UNL     1     -34.526  23.171  -3.497  0.00  0.00    -0.245 OA
ATOM     30  C   UNL     1     -35.333  24.024  -3.167  0.00  0.00    +0.338 C 
BRANCH  30  31
ATOM     31  O   UNL     1     -35.784  25.014  -3.972  0.00  0.00    -0.477 OA
ATOM     32  H   UNL     1     -36.102  25.813  -3.600  0.00  0.00    +0.295 HD
ENDBRANCH  30  31
ENDBRANCH  28  30
ENDBRANCH   4  27
TORSDOF 11
ENDMDL
MODEL 9
REMARK VINA RESULT:      -5.7      4.866      8.226
REMARK  Name = 5281770
REMARK  11 active torsions:
REMARK  status: ('A' for Active; 'I' for Inactive)
REMARK    1  A    between atoms: C_1  and  C_7
REMARK    2  A    between atoms: C_2  and  O_25
REMARK    3  A    between atoms: C_4  and  C_27
REMARK    4  A    between atoms: C_5  and  O_23
REMARK    5  A    between atoms: C_8  and  O_15
REMARK    6  A    between atoms: C_10  and  C_17
REMARK    7  A    between atoms: C_11  and  O_13
REMARK    8  A    between atoms: C_18  and  C_20
REMARK    9  A    between atoms: C_20  and  O_21
REMARK   10  A    between atoms: C_28  and  C_30
REMARK   11  A    between atoms: C_30  and  O_31
REMARK                            x       y       z     vdW  Elec       q    Type
REMARK                         _______ _______ _______ _____ _____    ______ ____
ROOT
ATOM      1  C   UNL     1     -35.384  20.643   1.341  0.00  0.00    +0.040 C 
ATOM      2  C   UNL     1     -36.431  19.884   0.820  0.00  0.00    +0.168 C 
ATOM      3  C   UNL     1     -34.063  20.249   1.129  0.00  0.00    +0.003 C 
ATOM      4  C   UNL     1     -33.790  19.093   0.397  0.00  0.00    +0.003 C 
ATOM      5  C   UNL     1     -36.158  18.728   0.088  0.00  0.00    +0.172 C 
ATOM      6  C   UNL     1     -34.837  18.333  -0.123  0.00  0.00    +0.040 C 
ENDROOT
BRANCH   1   7
ATOM      7  C   UNL     1     -35.647  21.847   2.104  0.00  0.00    +0.040 C 
ATOM      8  C   UNL     1     -35.817  21.794   3.488  0.00  0.00    +0.168 C 
ATOM      9  C   UNL     1     -35.729  23.070   1.438  0.00  0.00    +0.003 C 
ATOM     10  C   UNL     1     -35.982  24.239   2.155  0.00  0.00    +0.003 C 
ATOM     11  C   UNL     1     -36.069  22.964   4.205  0.00  0.00    +0.172 C 
ATOM     12  C   UNL     1     -36.152  24.186   3.538  0.00  0.00    +0.040 C 
BRANCH  11  13
ATOM     13  O   UNL     1     -36.236  22.927   5.556  0.00  0.00    -0.468 OA
ATOM     14  C   UNL     1     -35.109  22.537   6.339  0.00  0.00    +0.253 C 
ENDBRANCH  11  13
BRANCH   8  15
ATOM     15  O   UNL     1     -35.739  20.605   4.155  0.00  0.00    -0.503 OA
ATOM     16  H   UNL     1     -36.336  19.913   3.947  0.00  0.00    +0.292 HD
ENDBRANCH   8  15
BRANCH  10  17
ATOM     17  C   UNL     1     -36.067  25.515   1.461  0.00  0.00    +0.007 C 
ATOM     18  C   UNL     1     -36.730  26.605   1.908  0.00  0.00    +0.082 C 
BRANCH  18  20
ATOM     19  O   UNL     1     -36.965  27.942  -0.084  0.00  0.00    -0.245 OA
ATOM     20  C   UNL     1     -36.733  27.847   1.110  0.00  0.00    +0.338 C 
BRANCH  20  21
ATOM     21  O   UNL     1     -36.434  28.886   1.924  0.00  0.00    -0.477 OA
ATOM     22  H   UNL     1     -36.389  29.755   1.576  0.00  0.00    +0.295 HD
ENDBRANCH  20  21
ENDBRANCH  18  20
ENDBRANCH  10  17
ENDBRANCH   1   7
BRANCH   5  23
ATOM     23  O   UNL     1     -37.170  17.977  -0.427  0.00  0.00    -0.468 OA
ATOM     24  C   UNL     1     -37.080  16.563  -0.257  0.00  0.00    +0.253 C 
ENDBRANCH   5  23
BRANCH   2  25
ATOM     25  O   UNL     1     -37.729  20.257   1.018  0.00  0.00    -0.503 OA
ATOM     26  H   UNL     1     -38.005  21.125   0.797  0.00  0.00    +0.292 HD
ENDBRANCH   2  25
BRANCH   4  27
ATOM     27  C   UNL     1     -32.411  18.680   0.177  0.00  0.00    +0.007 C 
ATOM     28  C   UNL     1     -31.626  18.065   1.089  0.00  0.00    +0.082 C 
BRANCH  28  30
ATOM     29  O   UNL     1     -29.301  18.445   0.577  0.00  0.00    -0.245 OA
ATOM     30  C   UNL     1     -30.243  17.686   0.737  0.00  0.00    +0.338 C 
BRANCH  30  31
ATOM     31  O   UNL     1     -30.178  16.340   0.619  0.00  0.00    -0.477 OA
ATOM     32  H   UNL     1     -30.096  15.947  -0.228  0.00  0.00    +0.295 HD
ENDBRANCH  30  31
ENDBRANCH  28  30
ENDBRANCH   4  27
TORSDOF 11
ENDMDL
