MODEL 1
REMARK VINA RESULT:      -6.5      0.000      0.000
REMARK  Name = 5282338
REMARK  10 active torsions:
REMARK  status: ('A' for Active; 'I' for Inactive)
REMARK    1  A    between atoms: C_5  and  C_24
REMARK    2  A    between atoms: C_8  and  C_10
REMARK    3  A    between atoms: C_12  and  O_20
REMARK    4  A    between atoms: C_13  and  O_16
REMARK    5  A    between atoms: C_14  and  O_18
REMARK    6  A    between atoms: N_23  and  C_26
REMARK    7  A    between atoms: C_26  and  C_27
REMARK    8  A    between atoms: C_27  and  N_28
REMARK    9  A    between atoms: N_28  and  C_30
REMARK   10  A    between atoms: N_28  and  C_33
REMARK                            x       y       z     vdW  Elec       q    Type
REMARK                         _______ _______ _______ _____ _____    ______ ____
ROOT
ATOM      1  S   UNL     1     -43.247  25.959   1.877  0.00  0.00    -0.059 S 
ATOM      2  O   UNL     1     -42.094  29.209   5.004  0.00  0.00    -0.270 OA
ATOM      3  N   UNL     1     -41.273  27.136   3.061  0.00  0.00    -0.380 NA
ATOM      4  N   UNL     1     -43.490  27.855   3.672  0.00  0.00    -0.251 N 
ATOM      5  C   UNL     1     -40.776  26.208   2.193  0.00  0.00    +0.175 C 
ATOM      6  C   UNL     1     -41.657  25.470   1.463  0.00  0.00    +0.129 C 
ATOM      7  C   UNL     1     -42.585  27.095   2.980  0.00  0.00    +0.213 C 
ATOM      8  C   UNL     1     -43.202  28.846   4.623  0.00  0.00    +0.255 C 
ATOM      9  H   UNL     1     -44.442  27.688   3.482  0.00  0.00    +0.158 HD
ENDROOT
BRANCH   8  10
ATOM     10  C   UNL     1     -44.386  29.539   5.199  0.00  0.00    +0.091 C 
ATOM     11  C   UNL     1     -44.458  30.911   5.076  0.00  0.00    +0.048 C 
ATOM     12  C   UNL     1     -45.369  28.804   5.831  0.00  0.00    +0.141 C 
ATOM     13  C   UNL     1     -45.560  31.579   5.610  0.00  0.00    +0.173 C 
ATOM     14  C   UNL     1     -46.567  30.859   6.254  0.00  0.00    +0.175 C 
ATOM     15  C   UNL     1     -46.471  29.472   6.364  0.00  0.00    +0.077 C 
BRANCH  13  16
ATOM     16  O   UNL     1     -45.642  32.933   5.496  0.00  0.00    -0.468 OA
ATOM     17  C   UNL     1     -44.659  33.577   4.687  0.00  0.00    +0.253 C 
ENDBRANCH  13  16
BRANCH  14  18
ATOM     18  O   UNL     1     -47.649  31.499   6.779  0.00  0.00    -0.468 OA
ATOM     19  C   UNL     1     -47.624  31.774   8.178  0.00  0.00    +0.253 C 
ENDBRANCH  14  18
BRANCH  12  20
ATOM     20  O   UNL     1     -45.293  27.449   5.948  0.00  0.00    -0.505 OA
ATOM     21  H   UNL     1     -46.011  26.914   5.672  0.00  0.00    +0.292 HD
ENDBRANCH  12  20
ENDBRANCH   8  10
BRANCH   5  24
ATOM     22  O   UNL     1     -38.615  26.920   1.582  0.00  0.00    -0.268 OA
ATOM     23  N   UNL     1     -38.801  24.859   2.598  0.00  0.00    -0.301 N 
ATOM     24  C   UNL     1     -39.320  26.044   2.081  0.00  0.00    +0.272 C 
ATOM     25  H   UNL     1     -39.421  24.198   2.984  0.00  0.00    +0.150 HD
BRANCH  23  26
ATOM     26  C   UNL     1     -37.394  24.566   2.591  0.00  0.00    +0.067 C 
BRANCH  26  27
ATOM     27  C   UNL     1     -37.089  23.302   3.381  0.00  0.00    -0.056 C 
BRANCH  27  28
ATOM     28  N   UNL     1     -36.307  23.625   4.574  0.00  0.00    +0.391 N 
ATOM     29  H   UNL     1     -36.943  23.696   5.369  0.00  0.00    -0.079 HD
BRANCH  28  30
ATOM     30  C   UNL     1     -35.629  24.910   4.408  0.00  0.00    -0.058 C 
ATOM     31  C   UNL     1     -34.120  24.703   4.299  0.00  0.00    -0.023 C 
ATOM     32  C   UNL     1     -35.972  25.822   5.581  0.00  0.00    -0.023 C 
ENDBRANCH  28  30
BRANCH  28  33
ATOM     33  C   UNL     1     -35.335  22.567   4.850  0.00  0.00    -0.058 C 
ATOM     34  C   UNL     1     -35.508  22.083   6.287  0.00  0.00    -0.023 C 
ATOM     35  C   UNL     1     -35.508  21.419   3.860  0.00  0.00    -0.023 C 
ENDBRANCH  28  33
ENDBRANCH  27  28
ENDBRANCH  26  27
ENDBRANCH  23  26
ENDBRANCH   5  24
TORSDOF 10
ENDMDL
MODEL 2
REMARK VINA RESULT:      -6.5      7.558     10.672
REMARK  Name = 5282338
REMARK  10 active torsions:
REMARK  status: ('A' for Active; 'I' for Inactive)
REMARK    1  A    between atoms: C_5  and  C_24
REMARK    2  A    between atoms: C_8  and  C_10
REMARK    3  A    between atoms: C_12  and  O_20
REMARK    4  A    between atoms: C_13  and  O_16
REMARK    5  A    between atoms: C_14  and  O_18
REMARK    6  A    between atoms: N_23  and  C_26
REMARK    7  A    between atoms: C_26  and  C_27
REMARK    8  A    between atoms: C_27  and  N_28
REMARK    9  A    between atoms: N_28  and  C_30
REMARK   10  A    between atoms: N_28  and  C_33
REMARK                            x       y       z     vdW  Elec       q    Type
REMARK                         _______ _______ _______ _____ _____    ______ ____
ROOT
ATOM      1  S   UNL     1     -38.623  20.537  -0.036  0.00  0.00    -0.059 S 
ATOM      2  O   UNL     1     -34.982  20.220   2.847  0.00  0.00    -0.270 OA
ATOM      3  N   UNL     1     -36.638  19.050   0.694  0.00  0.00    -0.380 NA
ATOM      4  N   UNL     1     -36.891  21.159   1.832  0.00  0.00    -0.251 N 
ATOM      5  C   UNL     1     -37.324  18.413  -0.299  0.00  0.00    +0.175 C 
ATOM      6  C   UNL     1     -38.416  19.031  -0.828  0.00  0.00    +0.129 C 
ATOM      7  C   UNL     1     -37.240  20.198   0.921  0.00  0.00    +0.213 C 
ATOM      8  C   UNL     1     -35.808  21.118   2.724  0.00  0.00    +0.255 C 
ATOM      9  H   UNL     1     -37.460  21.961   1.865  0.00  0.00    +0.158 HD
ENDROOT
BRANCH   8  10
ATOM     10  C   UNL     1     -35.647  22.320   3.585  0.00  0.00    +0.091 C 
ATOM     11  C   UNL     1     -35.756  23.561   2.993  0.00  0.00    +0.048 C 
ATOM     12  C   UNL     1     -35.398  22.168   4.934  0.00  0.00    +0.141 C 
ATOM     13  C   UNL     1     -35.609  24.701   3.784  0.00  0.00    +0.173 C 
ATOM     14  C   UNL     1     -35.356  24.573   5.150  0.00  0.00    +0.175 C 
ATOM     15  C   UNL     1     -35.251  23.307   5.725  0.00  0.00    +0.077 C 
BRANCH  13  16
ATOM     16  O   UNL     1     -35.713  25.932   3.211  0.00  0.00    -0.468 OA
ATOM     17  C   UNL     1     -36.961  26.261   2.603  0.00  0.00    +0.253 C 
ENDBRANCH  13  16
BRANCH  14  18
ATOM     18  O   UNL     1     -35.211  25.678   5.933  0.00  0.00    -0.468 OA
ATOM     19  C   UNL     1     -33.895  26.214   6.061  0.00  0.00    +0.253 C 
ENDBRANCH  14  18
BRANCH  12  20
ATOM     20  O   UNL     1     -35.293  20.939   5.514  0.00  0.00    -0.505 OA
ATOM     21  H   UNL     1     -35.009  20.863   6.403  0.00  0.00    +0.292 HD
ENDBRANCH  12  20
ENDBRANCH   8  10
BRANCH   5  24
ATOM     22  O   UNL     1     -37.353  16.550  -1.741  0.00  0.00    -0.268 OA
ATOM     23  N   UNL     1     -35.818  16.532  -0.020  0.00  0.00    -0.301 N 
ATOM     24  C   UNL     1     -36.860  17.096  -0.755  0.00  0.00    +0.272 C 
ATOM     25  H   UNL     1     -35.468  17.021   0.760  0.00  0.00    +0.150 HD
BRANCH  23  26
ATOM     26  C   UNL     1     -35.234  15.263  -0.360  0.00  0.00    +0.067 C 
BRANCH  26  27
ATOM     27  C   UNL     1     -33.785  15.423  -0.795  0.00  0.00    -0.056 C 
BRANCH  27  28
ATOM     28  N   UNL     1     -33.354  16.810  -0.630  0.00  0.00    +0.391 N 
ATOM     29  H   UNL     1     -34.155  17.363  -0.325  0.00  0.00    -0.079 HD
BRANCH  28  30
ATOM     30  C   UNL     1     -32.875  17.352  -1.901  0.00  0.00    -0.058 C 
ATOM     31  C   UNL     1     -33.627  18.635  -2.246  0.00  0.00    -0.023 C 
ATOM     32  C   UNL     1     -33.048  16.306  -2.997  0.00  0.00    -0.023 C 
ENDBRANCH  28  30
BRANCH  28  33
ATOM     33  C   UNL     1     -32.310  16.904   0.391  0.00  0.00    -0.058 C 
ATOM     34  C   UNL     1     -30.951  17.043  -0.287  0.00  0.00    -0.023 C 
ATOM     35  C   UNL     1     -32.583  18.082   1.320  0.00  0.00    -0.023 C 
ENDBRANCH  28  33
ENDBRANCH  27  28
ENDBRANCH  26  27
ENDBRANCH  23  26
ENDBRANCH   5  24
TORSDOF 10
ENDMDL
MODEL 3
REMARK VINA RESULT:      -6.5      1.030      1.917
REMARK  Name = 5282338
REMARK  10 active torsions:
REMARK  status: ('A' for Active; 'I' for Inactive)
REMARK    1  A    between atoms: C_5  and  C_24
REMARK    2  A    between atoms: C_8  and  C_10
REMARK    3  A    between atoms: C_12  and  O_20
REMARK    4  A    between atoms: C_13  and  O_16
REMARK    5  A    between atoms: C_14  and  O_18
REMARK    6  A    between atoms: N_23  and  C_26
REMARK    7  A    between atoms: C_26  and  C_27
REMARK    8  A    between atoms: C_27  and  N_28
REMARK    9  A    between atoms: N_28  and  C_30
REMARK   10  A    between atoms: N_28  and  C_33
REMARK                            x       y       z     vdW  Elec       q    Type
REMARK                         _______ _______ _______ _____ _____    ______ ____
ROOT
ATOM      1  S   UNL     1     -42.899  25.900   1.541  0.00  0.00    -0.059 S 
ATOM      2  O   UNL     1     -42.004  29.008   4.888  0.00  0.00    -0.270 OA
ATOM      3  N   UNL     1     -41.035  26.971   2.976  0.00  0.00    -0.380 NA
ATOM      4  N   UNL     1     -43.283  27.744   3.364  0.00  0.00    -0.251 N 
ATOM      5  C   UNL     1     -40.472  26.054   2.136  0.00  0.00    +0.175 C 
ATOM      6  C   UNL     1     -41.288  25.371   1.287  0.00  0.00    +0.129 C 
ATOM      7  C   UNL     1     -42.330  26.977   2.749  0.00  0.00    +0.213 C 
ATOM      8  C   UNL     1     -43.073  28.695   4.375  0.00  0.00    +0.255 C 
ATOM      9  H   UNL     1     -44.212  27.616   3.065  0.00  0.00    +0.158 HD
ENDROOT
BRANCH   8  10
ATOM     10  C   UNL     1     -44.292  29.408   4.842  0.00  0.00    +0.091 C 
ATOM     11  C   UNL     1     -44.921  28.942   5.977  0.00  0.00    +0.048 C 
ATOM     12  C   UNL     1     -44.756  30.502   4.140  0.00  0.00    +0.141 C 
ATOM     13  C   UNL     1     -46.066  29.597   6.431  0.00  0.00    +0.173 C 
ATOM     14  C   UNL     1     -46.556  30.705   5.738  0.00  0.00    +0.175 C 
ATOM     15  C   UNL     1     -45.901  31.157   4.593  0.00  0.00    +0.077 C 
BRANCH  13  16
ATOM     16  O   UNL     1     -46.698  29.146   7.550  0.00  0.00    -0.468 OA
ATOM     17  C   UNL     1     -45.975  28.238   8.380  0.00  0.00    +0.253 C 
ENDBRANCH  13  16
BRANCH  14  18
ATOM     18  O   UNL     1     -47.673  31.354   6.171  0.00  0.00    -0.468 OA
ATOM     19  C   UNL     1     -47.485  32.630   6.781  0.00  0.00    +0.253 C 
ENDBRANCH  14  18
BRANCH  12  20
ATOM     20  O   UNL     1     -44.129  30.959   3.019  0.00  0.00    -0.505 OA
ATOM     21  H   UNL     1     -43.907  30.365   2.331  0.00  0.00    +0.292 HD
ENDBRANCH  12  20
ENDBRANCH   8  10
BRANCH   5  24
ATOM     22  O   UNL     1     -38.234  26.791   2.108  0.00  0.00    -0.268 OA
ATOM     23  N   UNL     1     -38.599  24.525   2.330  0.00  0.00    -0.301 N 
ATOM     24  C   UNL     1     -39.018  25.845   2.178  0.00  0.00    +0.272 C 
ATOM     25  H   UNL     1     -39.279  23.814   2.379  0.00  0.00    +0.150 HD
BRANCH  23  26
ATOM     26  C   UNL     1     -37.211  24.163   2.420  0.00  0.00    +0.067 C 
BRANCH  26  27
ATOM     27  C   UNL     1     -37.004  23.008   3.390  0.00  0.00    -0.056 C 
BRANCH  27  28
ATOM     28  N   UNL     1     -36.288  23.466   4.580  0.00  0.00    +0.391 N 
ATOM     29  H   UNL     1     -36.956  23.557   5.345  0.00  0.00    -0.079 HD
BRANCH  28  30
ATOM     30  C   UNL     1     -35.680  24.775   4.338  0.00  0.00    -0.058 C 
ATOM     31  C   UNL     1     -34.160  24.651   4.286  0.00  0.00    -0.023 C 
ATOM     32  C   UNL     1     -36.113  25.745   5.432  0.00  0.00    -0.023 C 
ENDBRANCH  28  30
BRANCH  28  33
ATOM     33  C   UNL     1     -35.267  22.493   4.968  0.00  0.00    -0.058 C 
ATOM     34  C   UNL     1     -35.496  22.069   6.415  0.00  0.00    -0.023 C 
ATOM     35  C   UNL     1     -35.301  21.289   4.032  0.00  0.00    -0.023 C 
ENDBRANCH  28  33
ENDBRANCH  27  28
ENDBRANCH  26  27
ENDBRANCH  23  26
ENDBRANCH   5  24
TORSDOF 10
ENDMDL
MODEL 4
REMARK VINA RESULT:      -6.2      1.087      2.471
REMARK  Name = 5282338
REMARK  10 active torsions:
REMARK  status: ('A' for Active; 'I' for Inactive)
REMARK    1  A    between atoms: C_5  and  C_24
REMARK    2  A    between atoms: C_8  and  C_10
REMARK    3  A    between atoms: C_12  and  O_20
REMARK    4  A    between atoms: C_13  and  O_16
REMARK    5  A    between atoms: C_14  and  O_18
REMARK    6  A    between atoms: N_23  and  C_26
REMARK    7  A    between atoms: C_26  and  C_27
REMARK    8  A    between atoms: C_27  and  N_28
REMARK    9  A    between atoms: N_28  and  C_30
REMARK   10  A    between atoms: N_28  and  C_33
REMARK                            x       y       z     vdW  Elec       q    Type
REMARK                         _______ _______ _______ _____ _____    ______ ____
ROOT
ATOM      1  S   UNL     1     -43.592  26.211   2.002  0.00  0.00    -0.059 S 
ATOM      2  O   UNL     1     -42.270  29.314   5.209  0.00  0.00    -0.270 OA
ATOM      3  N   UNL     1     -41.561  27.234   3.230  0.00  0.00    -0.380 NA
ATOM      4  N   UNL     1     -43.734  28.080   3.835  0.00  0.00    -0.251 N 
ATOM      5  C   UNL     1     -41.114  26.295   2.347  0.00  0.00    +0.175 C 
ATOM      6  C   UNL     1     -42.031  25.630   1.592  0.00  0.00    +0.129 C 
ATOM      7  C   UNL     1     -42.872  27.279   3.135  0.00  0.00    +0.213 C 
ATOM      8  C   UNL     1     -43.394  29.031   4.810  0.00  0.00    +0.255 C 
ATOM      9  H   UNL     1     -44.692  27.978   3.633  0.00  0.00    +0.158 HD
ENDROOT
BRANCH   8  10
ATOM     10  C   UNL     1     -44.538  29.785   5.389  0.00  0.00    +0.091 C 
ATOM     11  C   UNL     1     -45.784  29.193   5.363  0.00  0.00    +0.048 C 
ATOM     12  C   UNL     1     -44.329  31.036   5.931  0.00  0.00    +0.141 C 
ATOM     13  C   UNL     1     -46.870  29.884   5.902  0.00  0.00    +0.173 C 
ATOM     14  C   UNL     1     -46.684  31.152   6.455  0.00  0.00    +0.175 C 
ATOM     15  C   UNL     1     -45.415  31.727   6.470  0.00  0.00    +0.077 C 
BRANCH  13  16
ATOM     16  O   UNL     1     -48.105  29.312   5.881  0.00  0.00    -0.468 OA
ATOM     17  C   UNL     1     -48.497  28.660   4.675  0.00  0.00    +0.253 C 
ENDBRANCH  13  16
BRANCH  14  18
ATOM     18  O   UNL     1     -47.736  31.836   6.985  0.00  0.00    -0.468 OA
ATOM     19  C   UNL     1     -47.629  32.232   8.351  0.00  0.00    +0.253 C 
ENDBRANCH  14  18
BRANCH  12  20
ATOM     20  O   UNL     1     -43.096  31.615   5.956  0.00  0.00    -0.505 OA
ATOM     21  H   UNL     1     -42.476  31.428   5.279  0.00  0.00    +0.292 HD
ENDBRANCH  12  20
ENDBRANCH   8  10
BRANCH   5  24
ATOM     22  O   UNL     1     -38.899  26.900   1.817  0.00  0.00    -0.268 OA
ATOM     23  N   UNL     1     -39.241  24.792   2.687  0.00  0.00    -0.301 N 
ATOM     24  C   UNL     1     -39.670  26.042   2.245  0.00  0.00    +0.272 C 
ATOM     25  H   UNL     1     -39.910  24.150   3.017  0.00  0.00    +0.150 HD
BRANCH  23  26
ATOM     26  C   UNL     1     -37.856  24.406   2.679  0.00  0.00    +0.067 C 
BRANCH  26  27
ATOM     27  C   UNL     1     -37.223  24.598   4.050  0.00  0.00    -0.056 C 
BRANCH  27  28
ATOM     28  N   UNL     1     -35.896  23.984   4.088  0.00  0.00    +0.391 N 
ATOM     29  H   UNL     1     -35.510  23.992   3.144  0.00  0.00    -0.079 HD
BRANCH  28  30
ATOM     30  C   UNL     1     -35.988  22.596   4.539  0.00  0.00    -0.058 C 
ATOM     31  C   UNL     1     -35.175  22.400   5.815  0.00  0.00    -0.023 C 
ATOM     32  C   UNL     1     -35.499  21.669   3.431  0.00  0.00    -0.023 C 
ENDBRANCH  28  30
BRANCH  28  33
ATOM     33  C   UNL     1     -35.005  24.747   4.961  0.00  0.00    -0.058 C 
ATOM     34  C   UNL     1     -33.828  25.275   4.147  0.00  0.00    -0.023 C 
ATOM     35  C   UNL     1     -35.766  25.889   5.627  0.00  0.00    -0.023 C 
ENDBRANCH  28  33
ENDBRANCH  27  28
ENDBRANCH  26  27
ENDBRANCH  23  26
ENDBRANCH   5  24
TORSDOF 10
ENDMDL
MODEL 5
REMARK VINA RESULT:      -6.1      6.637      9.654
REMARK  Name = 5282338
REMARK  10 active torsions:
REMARK  status: ('A' for Active; 'I' for Inactive)
REMARK    1  A    between atoms: C_5  and  C_24
REMARK    2  A    between atoms: C_8  and  C_10
REMARK    3  A    between atoms: C_12  and  O_20
REMARK    4  A    between atoms: C_13  and  O_16
REMARK    5  A    between atoms: C_14  and  O_18
REMARK    6  A    between atoms: N_23  and  C_26
REMARK    7  A    between atoms: C_26  and  C_27
REMARK    8  A    between atoms: C_27  and  N_28
REMARK    9  A    between atoms: N_28  and  C_30
REMARK   10  A    between atoms: N_28  and  C_33
REMARK                            x       y       z     vdW  Elec       q    Type
REMARK                         _______ _______ _______ _____ _____    ______ ____
ROOT
ATOM      1  S   UNL     1     -34.615  27.169   2.050  0.00  0.00    -0.059 S 
ATOM      2  O   UNL     1     -36.480  23.857   4.736  0.00  0.00    -0.270 OA
ATOM      3  N   UNL     1     -34.604  26.120   4.413  0.00  0.00    -0.380 NA
ATOM      4  N   UNL     1     -36.106  25.148   2.800  0.00  0.00    -0.251 N 
ATOM      5  C   UNL     1     -33.707  27.148   4.384  0.00  0.00    +0.175 C 
ATOM      6  C   UNL     1     -33.557  27.841   3.222  0.00  0.00    +0.129 C 
ATOM      7  C   UNL     1     -35.152  26.036   3.221  0.00  0.00    +0.213 C 
ATOM      8  C   UNL     1     -36.703  24.131   3.562  0.00  0.00    +0.255 C 
ATOM      9  H   UNL     1     -36.403  25.231   1.865  0.00  0.00    +0.158 HD
ENDROOT
BRANCH   8  10
ATOM     10  C   UNL     1     -37.737  23.330   2.855  0.00  0.00    +0.091 C 
ATOM     11  C   UNL     1     -38.916  23.955   2.507  0.00  0.00    +0.048 C 
ATOM     12  C   UNL     1     -37.497  22.001   2.569  0.00  0.00    +0.141 C 
ATOM     13  C   UNL     1     -39.899  23.221   1.843  0.00  0.00    +0.173 C 
ATOM     14  C   UNL     1     -39.680  21.876   1.543  0.00  0.00    +0.175 C 
ATOM     15  C   UNL     1     -38.480  21.267   1.905  0.00  0.00    +0.077 C 
BRANCH  13  16
ATOM     16  O   UNL     1     -41.068  23.826   1.494  0.00  0.00    -0.468 OA
ATOM     17  C   UNL     1     -40.994  24.861   0.515  0.00  0.00    +0.253 C 
ENDBRANCH  13  16
BRANCH  14  18
ATOM     18  O   UNL     1     -40.632  21.148   0.894  0.00  0.00    -0.468 OA
ATOM     19  C   UNL     1     -40.504  21.030  -0.522  0.00  0.00    +0.253 C 
ENDBRANCH  14  18
BRANCH  12  20
ATOM     20  O   UNL     1     -36.330  21.389   2.914  0.00  0.00    -0.505 OA
ATOM     21  H   UNL     1     -35.605  21.898   3.219  0.00  0.00    +0.292 HD
ENDBRANCH  12  20
ENDBRANCH   8  10
BRANCH   5  24
ATOM     22  O   UNL     1     -32.816  26.644   6.506  0.00  0.00    -0.268 OA
ATOM     23  N   UNL     1     -32.370  28.734   5.641  0.00  0.00    -0.301 N 
ATOM     24  C   UNL     1     -32.947  27.466   5.600  0.00  0.00    +0.272 C 
ATOM     25  H   UNL     1     -32.514  29.346   4.883  0.00  0.00    +0.150 HD
BRANCH  23  26
ATOM     26  C   UNL     1     -31.571  29.182   6.749  0.00  0.00    +0.067 C 
BRANCH  26  27
ATOM     27  C   UNL     1     -30.227  29.717   6.279  0.00  0.00    -0.056 C 
BRANCH  27  28
ATOM     28  N   UNL     1     -29.395  28.626   5.773  0.00  0.00    +0.391 N 
ATOM     29  H   UNL     1     -29.945  27.767   5.784  0.00  0.00    -0.079 HD
BRANCH  28  30
ATOM     30  C   UNL     1     -28.224  28.436   6.629  0.00  0.00    -0.058 C 
ATOM     31  C   UNL     1     -28.140  26.985   7.096  0.00  0.00    -0.023 C 
ATOM     32  C   UNL     1     -28.303  29.389   7.816  0.00  0.00    -0.023 C 
ENDBRANCH  28  30
BRANCH  28  33
ATOM     33  C   UNL     1     -28.982  28.894   4.395  0.00  0.00    -0.058 C 
ATOM     34  C   UNL     1     -29.725  27.954   3.451  0.00  0.00    -0.023 C 
ATOM     35  C   UNL     1     -29.247  30.353   4.038  0.00  0.00    -0.023 C 
ENDBRANCH  28  33
ENDBRANCH  27  28
ENDBRANCH  26  27
ENDBRANCH  23  26
ENDBRANCH   5  24
TORSDOF 10
ENDMDL
MODEL 6
REMARK VINA RESULT:      -6.1      6.044     11.179
REMARK  Name = 5282338
REMARK  10 active torsions:
REMARK  status: ('A' for Active; 'I' for Inactive)
REMARK    1  A    between atoms: C_5  and  C_24
REMARK    2  A    between atoms: C_8  and  C_10
REMARK    3  A    between atoms: C_12  and  O_20
REMARK    4  A    between atoms: C_13  and  O_16
REMARK    5  A    between atoms: C_14  and  O_18
REMARK    6  A    between atoms: N_23  and  C_26
REMARK    7  A    between atoms: C_26  and  C_27
REMARK    8  A    between atoms: C_27  and  N_28
REMARK    9  A    between atoms: N_28  and  C_30
REMARK   10  A    between atoms: N_28  and  C_33
REMARK                            x       y       z     vdW  Elec       q    Type
REMARK                         _______ _______ _______ _____ _____    ______ ____
ROOT
ATOM      1  S   UNL     1     -34.193  30.164   2.669  0.00  0.00    -0.059 S 
ATOM      2  O   UNL     1     -37.571  27.057   1.890  0.00  0.00    -0.270 OA
ATOM      3  N   UNL     1     -36.463  29.771   1.496  0.00  0.00    -0.380 NA
ATOM      4  N   UNL     1     -35.548  27.921   2.740  0.00  0.00    -0.251 N 
ATOM      5  C   UNL     1     -36.052  31.047   1.245  0.00  0.00    +0.175 C 
ATOM      6  C   UNL     1     -34.870  31.461   1.775  0.00  0.00    +0.129 C 
ATOM      7  C   UNL     1     -35.549  29.200   2.250  0.00  0.00    +0.213 C 
ATOM      8  C   UNL     1     -36.536  26.943   2.538  0.00  0.00    +0.255 C 
ATOM      9  H   UNL     1     -34.776  27.660   3.291  0.00  0.00    +0.158 HD
ENDROOT
BRANCH   8  10
ATOM     10  C   UNL     1     -36.262  25.623   3.166  0.00  0.00    +0.091 C 
ATOM     11  C   UNL     1     -36.001  24.552   2.337  0.00  0.00    +0.048 C 
ATOM     12  C   UNL     1     -36.274  25.503   4.541  0.00  0.00    +0.141 C 
ATOM     13  C   UNL     1     -35.741  23.305   2.906  0.00  0.00    +0.173 C 
ATOM     14  C   UNL     1     -35.748  23.158   4.294  0.00  0.00    +0.175 C 
ATOM     15  C   UNL     1     -36.014  24.256   5.111  0.00  0.00    +0.077 C 
BRANCH  13  16
ATOM     16  O   UNL     1     -35.483  22.240   2.098  0.00  0.00    -0.468 OA
ATOM     17  C   UNL     1     -36.606  21.501   1.622  0.00  0.00    +0.253 C 
ENDBRANCH  13  16
BRANCH  14  18
ATOM     18  O   UNL     1     -35.495  21.946   4.862  0.00  0.00    -0.468 OA
ATOM     19  C   UNL     1     -35.149  21.939   6.246  0.00  0.00    +0.253 C 
ENDBRANCH  14  18
BRANCH  12  20
ATOM     20  O   UNL     1     -36.531  26.564   5.356  0.00  0.00    -0.505 OA
ATOM     21  H   UNL     1     -36.153  27.401   5.169  0.00  0.00    +0.292 HD
ENDBRANCH  12  20
ENDBRANCH   8  10
BRANCH   5  24
ATOM     22  O   UNL     1     -36.411  32.636  -0.459  0.00  0.00    -0.268 OA
ATOM     23  N   UNL     1     -38.266  31.850   0.662  0.00  0.00    -0.301 N 
ATOM     24  C   UNL     1     -36.897  31.917   0.414  0.00  0.00    +0.272 C 
ATOM     25  H   UNL     1     -38.591  31.255   1.376  0.00  0.00    +0.150 HD
BRANCH  23  26
ATOM     26  C   UNL     1     -39.224  32.617  -0.088  0.00  0.00    +0.067 C 
BRANCH  26  27
ATOM     27  C   UNL     1     -40.253  33.261   0.829  0.00  0.00    -0.056 C 
BRANCH  27  28
ATOM     28  N   UNL     1     -40.025  34.703   0.914  0.00  0.00    +0.391 N 
ATOM     29  H   UNL     1     -39.656  35.026   0.020  0.00  0.00    -0.079 HD
BRANCH  28  30
ATOM     30  C   UNL     1     -39.043  35.005   1.956  0.00  0.00    -0.058 C 
ATOM     31  C   UNL     1     -39.684  35.838   3.062  0.00  0.00    -0.023 C 
ATOM     32  C   UNL     1     -37.856  35.736   1.338  0.00  0.00    -0.023 C 
ENDBRANCH  28  30
BRANCH  28  33
ATOM     33  C   UNL     1     -41.281  35.405   1.178  0.00  0.00    -0.058 C 
ATOM     34  C   UNL     1     -41.584  36.353   0.023  0.00  0.00    -0.023 C 
ATOM     35  C   UNL     1     -42.415  34.404   1.377  0.00  0.00    -0.023 C 
ENDBRANCH  28  33
ENDBRANCH  27  28
ENDBRANCH  26  27
ENDBRANCH  23  26
ENDBRANCH   5  24
TORSDOF 10
ENDMDL
MODEL 7
REMARK VINA RESULT:      -6.1      8.285     11.708
REMARK  Name = 5282338
REMARK  10 active torsions:
REMARK  status: ('A' for Active; 'I' for Inactive)
REMARK    1  A    between atoms: C_5  and  C_24
REMARK    2  A    between atoms: C_8  and  C_10
REMARK    3  A    between atoms: C_12  and  O_20
REMARK    4  A    between atoms: C_13  and  O_16
REMARK    5  A    between atoms: C_14  and  O_18
REMARK    6  A    between atoms: N_23  and  C_26
REMARK    7  A    between atoms: C_26  and  C_27
REMARK    8  A    between atoms: C_27  and  N_28
REMARK    9  A    between atoms: N_28  and  C_30
REMARK   10  A    between atoms: N_28  and  C_33
REMARK                            x       y       z     vdW  Elec       q    Type
REMARK                         _______ _______ _______ _____ _____    ______ ____
ROOT
ATOM      1  S   UNL     1     -38.715  20.737   0.011  0.00  0.00    -0.059 S 
ATOM      2  O   UNL     1     -35.106  20.250   2.910  0.00  0.00    -0.270 OA
ATOM      3  N   UNL     1     -36.804  19.159   0.749  0.00  0.00    -0.380 NA
ATOM      4  N   UNL     1     -36.965  21.277   1.887  0.00  0.00    -0.251 N 
ATOM      5  C   UNL     1     -37.515  18.555  -0.247  0.00  0.00    +0.175 C 
ATOM      6  C   UNL     1     -38.574  19.222  -0.781  0.00  0.00    +0.129 C 
ATOM      7  C   UNL     1     -37.353  20.333   0.974  0.00  0.00    +0.213 C 
ATOM      8  C   UNL     1     -35.888  21.186   2.784  0.00  0.00    +0.255 C 
ATOM      9  H   UNL     1     -37.496  22.105   1.918  0.00  0.00    +0.158 HD
ENDROOT
BRANCH   8  10
ATOM     10  C   UNL     1     -35.676  22.378   3.646  0.00  0.00    +0.091 C 
ATOM     11  C   UNL     1     -35.786  23.626   3.067  0.00  0.00    +0.048 C 
ATOM     12  C   UNL     1     -35.381  22.212   4.984  0.00  0.00    +0.141 C 
ATOM     13  C   UNL     1     -35.590  24.757   3.860  0.00  0.00    +0.173 C 
ATOM     14  C   UNL     1     -35.290  24.615   5.215  0.00  0.00    +0.175 C 
ATOM     15  C   UNL     1     -35.186  23.344   5.777  0.00  0.00    +0.077 C 
BRANCH  13  16
ATOM     16  O   UNL     1     -35.694  25.994   3.299  0.00  0.00    -0.468 OA
ATOM     17  C   UNL     1     -34.710  26.351   2.330  0.00  0.00    +0.253 C 
ENDBRANCH  13  16
BRANCH  14  18
ATOM     18  O   UNL     1     -35.098  25.712   6.000  0.00  0.00    -0.468 OA
ATOM     19  C   UNL     1     -33.778  26.250   6.049  0.00  0.00    +0.253 C 
ENDBRANCH  14  18
BRANCH  12  20
ATOM     20  O   UNL     1     -35.276  20.978   5.552  0.00  0.00    -0.505 OA
ATOM     21  H   UNL     1     -36.018  20.407   5.573  0.00  0.00    +0.292 HD
ENDBRANCH  12  20
ENDBRANCH   8  10
BRANCH   5  24
ATOM     22  O   UNL     1     -35.923  16.899  -0.772  0.00  0.00    -0.268 OA
ATOM     23  N   UNL     1     -38.147  16.343  -1.015  0.00  0.00    -0.301 N 
ATOM     24  C   UNL     1     -37.109  17.218  -0.702  0.00  0.00    +0.272 C 
ATOM     25  H   UNL     1     -39.076  16.661  -0.938  0.00  0.00    +0.150 HD
BRANCH  23  26
ATOM     26  C   UNL     1     -37.913  14.991  -1.444  0.00  0.00    +0.067 C 
BRANCH  26  27
ATOM     27  C   UNL     1     -39.216  14.291  -1.799  0.00  0.00    -0.056 C 
BRANCH  27  28
ATOM     28  N   UNL     1     -39.406  13.112  -0.955  0.00  0.00    +0.391 N 
ATOM     29  H   UNL     1     -38.529  12.913  -0.475  0.00  0.00    -0.079 HD
BRANCH  28  30
ATOM     30  C   UNL     1     -39.762  11.951  -1.771  0.00  0.00    -0.058 C 
ATOM     31  C   UNL     1     -38.577  10.995  -1.875  0.00  0.00    -0.023 C 
ATOM     32  C   UNL     1     -40.212  12.418  -3.150  0.00  0.00    -0.023 C 
ENDBRANCH  28  30
BRANCH  28  33
ATOM     33  C   UNL     1     -40.438  13.364   0.051  0.00  0.00    -0.058 C 
ATOM     34  C   UNL     1     -41.393  14.439  -0.461  0.00  0.00    -0.023 C 
ATOM     35  C   UNL     1     -41.187  12.075   0.375  0.00  0.00    -0.023 C 
ENDBRANCH  28  33
ENDBRANCH  27  28
ENDBRANCH  26  27
ENDBRANCH  23  26
ENDBRANCH   5  24
TORSDOF 10
ENDMDL
MODEL 8
REMARK VINA RESULT:      -6.1      6.993     10.094
REMARK  Name = 5282338
REMARK  10 active torsions:
REMARK  status: ('A' for Active; 'I' for Inactive)
REMARK    1  A    between atoms: C_5  and  C_24
REMARK    2  A    between atoms: C_8  and  C_10
REMARK    3  A    between atoms: C_12  and  O_20
REMARK    4  A    between atoms: C_13  and  O_16
REMARK    5  A    between atoms: C_14  and  O_18
REMARK    6  A    between atoms: N_23  and  C_26
REMARK    7  A    between atoms: C_26  and  C_27
REMARK    8  A    between atoms: C_27  and  N_28
REMARK    9  A    between atoms: N_28  and  C_30
REMARK   10  A    between atoms: N_28  and  C_33
REMARK                            x       y       z     vdW  Elec       q    Type
REMARK                         _______ _______ _______ _____ _____    ______ ____
ROOT
ATOM      1  S   UNL     1     -34.166  26.934   2.039  0.00  0.00    -0.059 S 
ATOM      2  O   UNL     1     -36.443  24.034   4.879  0.00  0.00    -0.270 OA
ATOM      3  N   UNL     1     -34.412  26.148   4.489  0.00  0.00    -0.380 NA
ATOM      4  N   UNL     1     -35.835  25.087   2.860  0.00  0.00    -0.251 N 
ATOM      5  C   UNL     1     -33.455  27.118   4.432  0.00  0.00    +0.175 C 
ATOM      6  C   UNL     1     -33.168  27.672   3.223  0.00  0.00    +0.129 C 
ATOM      7  C   UNL     1     -34.865  25.963   3.269  0.00  0.00    +0.213 C 
ATOM      8  C   UNL     1     -36.553  24.191   3.668  0.00  0.00    +0.255 C 
ATOM      9  H   UNL     1     -36.050  25.084   1.899  0.00  0.00    +0.158 HD
ENDROOT
BRANCH   8  10
ATOM     10  C   UNL     1     -37.574  23.374   2.960  0.00  0.00    +0.091 C 
ATOM     11  C   UNL     1     -37.146  22.259   2.269  0.00  0.00    +0.048 C 
ATOM     12  C   UNL     1     -38.903  23.742   3.011  0.00  0.00    +0.141 C 
ATOM     13  C   UNL     1     -38.088  21.478   1.599  0.00  0.00    +0.173 C 
ATOM     14  C   UNL     1     -39.438  21.831   1.634  0.00  0.00    +0.175 C 
ATOM     15  C   UNL     1     -39.845  22.962   2.340  0.00  0.00    +0.077 C 
BRANCH  13  16
ATOM     16  O   UNL     1     -37.679  20.376   0.912  0.00  0.00    -0.468 OA
ATOM     17  C   UNL     1     -36.317  19.981   1.073  0.00  0.00    +0.253 C 
ENDBRANCH  13  16
BRANCH  14  18
ATOM     18  O   UNL     1     -40.368  21.076   0.984  0.00  0.00    -0.468 OA
ATOM     19  C   UNL     1     -40.777  21.523  -0.307  0.00  0.00    +0.253 C 
ENDBRANCH  14  18
BRANCH  12  20
ATOM     20  O   UNL     1     -39.320  24.844   3.696  0.00  0.00    -0.505 OA
ATOM     21  H   UNL     1     -40.189  24.878   4.045  0.00  0.00    +0.292 HD
ENDBRANCH  12  20
ENDBRANCH   8  10
BRANCH   5  24
ATOM     22  O   UNL     1     -32.697  26.766   6.636  0.00  0.00    -0.268 OA
ATOM     23  N   UNL     1     -32.218  28.802   5.666  0.00  0.00    -0.301 N 
ATOM     24  C   UNL     1     -32.777  27.525   5.672  0.00  0.00    +0.272 C 
ATOM     25  H   UNL     1     -32.319  29.361   4.861  0.00  0.00    +0.150 HD
BRANCH  23  26
ATOM     26  C   UNL     1     -31.497  29.332   6.791  0.00  0.00    +0.067 C 
BRANCH  26  27
ATOM     27  C   UNL     1     -30.127  29.846   6.374  0.00  0.00    -0.056 C 
BRANCH  27  28
ATOM     28  N   UNL     1     -29.323  28.757   5.820  0.00  0.00    +0.391 N 
ATOM     29  H   UNL     1     -29.901  27.919   5.775  0.00  0.00    -0.079 HD
BRANCH  28  30
ATOM     30  C   UNL     1     -28.173  28.481   6.680  0.00  0.00    -0.058 C 
ATOM     31  C   UNL     1     -28.159  27.010   7.088  0.00  0.00    -0.023 C 
ATOM     32  C   UNL     1     -28.225  29.388   7.905  0.00  0.00    -0.023 C 
ENDBRANCH  28  30
BRANCH  28  33
ATOM     33  C   UNL     1     -28.879  29.088   4.466  0.00  0.00    -0.058 C 
ATOM     34  C   UNL     1     -29.441  28.065   3.484  0.00  0.00    -0.023 C 
ATOM     35  C   UNL     1     -29.317  30.502   4.096  0.00  0.00    -0.023 C 
ENDBRANCH  28  33
ENDBRANCH  27  28
ENDBRANCH  26  27
ENDBRANCH  23  26
ENDBRANCH   5  24
TORSDOF 10
ENDMDL
MODEL 9
REMARK VINA RESULT:      -6.0      7.167     13.395
REMARK  Name = 5282338
REMARK  10 active torsions:
REMARK  status: ('A' for Active; 'I' for Inactive)
REMARK    1  A    between atoms: C_5  and  C_24
REMARK    2  A    between atoms: C_8  and  C_10
REMARK    3  A    between atoms: C_12  and  O_20
REMARK    4  A    between atoms: C_13  and  O_16
REMARK    5  A    between atoms: C_14  and  O_18
REMARK    6  A    between atoms: N_23  and  C_26
REMARK    7  A    between atoms: C_26  and  C_27
REMARK    8  A    between atoms: C_27  and  N_28
REMARK    9  A    between atoms: N_28  and  C_30
REMARK   10  A    between atoms: N_28  and  C_33
REMARK                            x       y       z     vdW  Elec       q    Type
REMARK                         _______ _______ _______ _____ _____    ______ ____
ROOT
ATOM      1  S   UNL     1     -37.916  19.540  -0.863  0.00  0.00    -0.059 S 
ATOM      2  O   UNL     1     -34.330  20.009   2.067  0.00  0.00    -0.270 OA
ATOM      3  N   UNL     1     -37.079  20.748   1.263  0.00  0.00    -0.380 NA
ATOM      4  N   UNL     1     -35.552  19.204   0.219  0.00  0.00    -0.251 N 
ATOM      5  C   UNL     1     -38.350  21.163   0.992  0.00  0.00    +0.175 C 
ATOM      6  C   UNL     1     -38.981  20.644  -0.096  0.00  0.00    +0.129 C 
ATOM      7  C   UNL     1     -36.739  19.877   0.338  0.00  0.00    +0.213 C 
ATOM      8  C   UNL     1     -34.440  19.304   1.069  0.00  0.00    +0.255 C 
ATOM      9  H   UNL     1     -35.471  18.585  -0.543  0.00  0.00    +0.158 HD
ENDROOT
BRANCH   8  10
ATOM     10  C   UNL     1     -33.289  18.430   0.718  0.00  0.00    +0.091 C 
ATOM     11  C   UNL     1     -32.026  18.984   0.731  0.00  0.00    +0.048 C 
ATOM     12  C   UNL     1     -33.509  17.106   0.393  0.00  0.00    +0.141 C 
ATOM     13  C   UNL     1     -30.933  18.180   0.404  0.00  0.00    +0.173 C 
ATOM     14  C   UNL     1     -31.129  16.839   0.072  0.00  0.00    +0.175 C 
ATOM     15  C   UNL     1     -32.416  16.302   0.067  0.00  0.00    +0.077 C 
BRANCH  13  16
ATOM     16  O   UNL     1     -29.681  18.715   0.412  0.00  0.00    -0.468 OA
ATOM     17  C   UNL     1     -29.358  19.623  -0.640  0.00  0.00    +0.253 C 
ENDBRANCH  13  16
BRANCH  14  18
ATOM     18  O   UNL     1     -30.071  16.043  -0.248  0.00  0.00    -0.468 OA
ATOM     19  C   UNL     1     -30.281  14.634  -0.197  0.00  0.00    +0.253 C 
ENDBRANCH  14  18
BRANCH  12  20
ATOM     20  O   UNL     1     -34.758  16.564   0.384  0.00  0.00    -0.505 OA
ATOM     21  H   UNL     1     -34.870  15.640   0.496  0.00  0.00    +0.292 HD
ENDBRANCH  12  20
ENDBRANCH   8  10
BRANCH   5  24
ATOM     22  O   UNL     1     -40.167  22.049   2.204  0.00  0.00    -0.268 OA
ATOM     23  N   UNL     1     -38.154  23.164   2.350  0.00  0.00    -0.301 N 
ATOM     24  C   UNL     1     -38.983  22.146   1.882  0.00  0.00    +0.272 C 
ATOM     25  H   UNL     1     -37.215  23.186   2.053  0.00  0.00    +0.150 HD
BRANCH  23  26
ATOM     26  C   UNL     1     -38.619  24.183   3.252  0.00  0.00    +0.067 C 
BRANCH  26  27
ATOM     27  C   UNL     1     -37.530  25.209   3.532  0.00  0.00    -0.056 C 
BRANCH  27  28
ATOM     28  N   UNL     1     -36.252  24.540   3.772  0.00  0.00    +0.391 N 
ATOM     29  H   UNL     1     -36.324  23.577   3.444  0.00  0.00    -0.079 HD
BRANCH  28  30
ATOM     30  C   UNL     1     -35.946  24.520   5.202  0.00  0.00    -0.058 C 
ATOM     31  C   UNL     1     -34.874  25.556   5.529  0.00  0.00    -0.023 C 
ATOM     32  C   UNL     1     -35.495  23.120   5.605  0.00  0.00    -0.023 C 
ENDBRANCH  28  30
BRANCH  28  33
ATOM     33  C   UNL     1     -35.180  25.205   3.030  0.00  0.00    -0.058 C 
ATOM     34  C   UNL     1     -34.530  24.208   2.076  0.00  0.00    -0.023 C 
ATOM     35  C   UNL     1     -35.730  26.410   2.273  0.00  0.00    -0.023 C 
ENDBRANCH  28  33
ENDBRANCH  27  28
ENDBRANCH  26  27
ENDBRANCH  23  26
ENDBRANCH   5  24
TORSDOF 10
ENDMDL
