MODEL 1
REMARK VINA RESULT:      -6.7      0.000      0.000
REMARK  Name = 54690031
REMARK  2 active torsions:
REMARK  status: ('A' for Active; 'I' for Inactive)
REMARK    1  A    between atoms: C_8  and  C_16
REMARK    2  A    between atoms: C_10  and  O_24
REMARK                            x       y       z     vdW  Elec       q    Type
REMARK                         _______ _______ _______ _____ _____    ______ ____
ROOT
ATOM      1 CL   UNL     1     -42.491  24.278  -0.013  0.00  0.00    -0.075 Cl
ATOM      2  S   UNL     1     -37.579  22.405   1.730  0.00  0.00    +0.077 S 
ATOM      3  S   UNL     1     -40.566  25.297   2.005  0.00  0.00    -0.071 S 
ATOM      4  O   UNL     1     -38.108  21.063   1.869  0.00  0.00    -0.150 OA
ATOM      5  O   UNL     1     -36.762  22.798   0.600  0.00  0.00    -0.150 OA
ATOM      6  N   UNL     1     -36.835  22.890   3.193  0.00  0.00    -0.181 N 
ATOM      7  C   UNL     1     -38.973  23.374   1.573  0.00  0.00    +0.136 C 
ATOM      8  C   UNL     1     -37.046  24.242   3.681  0.00  0.00    +0.156 C 
ATOM      9  C   UNL     1     -39.077  24.500   2.354  0.00  0.00    +0.084 C 
ATOM     10  C   UNL     1     -38.123  24.973   3.307  0.00  0.00    +0.160 C 
ATOM     11  C   UNL     1     -40.055  23.146   0.694  0.00  0.00    +0.039 C 
ATOM     12  C   UNL     1     -35.642  22.110   3.605  0.00  0.00    +0.139 C 
ATOM     13  C   UNL     1     -41.007  24.130   0.830  0.00  0.00    +0.088 C 
ENDROOT
BRANCH   8  16
ATOM     14  O   UNL     1     -36.059  24.332   5.796  0.00  0.00    -0.268 OA
ATOM     15  N   UNL     1     -35.286  25.772   4.101  0.00  0.00    -0.265 N 
ATOM     16  C   UNL     1     -36.078  24.780   4.654  0.00  0.00    +0.269 C 
ATOM     17  H   UNL     1     -35.457  25.992   3.158  0.00  0.00    +0.157 HD
ATOM     18  N   UNL     1     -33.593  27.442   4.026  0.00  0.00    -0.229 NA
ATOM     19  C   UNL     1     -34.257  26.506   4.741  0.00  0.00    +0.134 C 
ATOM     20  C   UNL     1     -33.997  26.216   6.070  0.00  0.00    +0.034 C 
ATOM     21  C   UNL     1     -32.989  26.931   6.707  0.00  0.00    +0.004 C 
ATOM     22  C   UNL     1     -32.620  28.116   4.679  0.00  0.00    +0.100 C 
ATOM     23  C   UNL     1     -32.282  27.901   6.005  0.00  0.00    +0.021 C 
ENDBRANCH   8  16
BRANCH  10  24
ATOM     24  O   UNL     1     -38.417  26.234   3.793  0.00  0.00    -0.504 OA
ATOM     25  H   UNL     1     -38.694  26.909   3.207  0.00  0.00    +0.292 HD
ENDBRANCH  10  24
TORSDOF 2
ENDMDL
MODEL 2
REMARK VINA RESULT:      -6.3      2.967      3.924
REMARK  Name = 54690031
REMARK  2 active torsions:
REMARK  status: ('A' for Active; 'I' for Inactive)
REMARK    1  A    between atoms: C_8  and  C_16
REMARK    2  A    between atoms: C_10  and  O_24
REMARK                            x       y       z     vdW  Elec       q    Type
REMARK                         _______ _______ _______ _____ _____    ______ ____
ROOT
ATOM      1 CL   UNL     1     -37.329  17.628  -1.806  0.00  0.00    -0.075 Cl
ATOM      2  S   UNL     1     -39.264  21.808   1.270  0.00  0.00    +0.077 S 
ATOM      3  S   UNL     1     -36.065  19.334   0.269  0.00  0.00    -0.071 S 
ATOM      4  O   UNL     1     -39.855  22.431   0.102  0.00  0.00    -0.150 OA
ATOM      5  O   UNL     1     -40.053  21.054   2.223  0.00  0.00    -0.150 OA
ATOM      6  N   UNL     1     -38.269  22.934   2.089  0.00  0.00    -0.181 N 
ATOM      7  C   UNL     1     -38.207  20.642   0.614  0.00  0.00    +0.136 C 
ATOM      8  C   UNL     1     -36.983  22.498   2.605  0.00  0.00    +0.156 C 
ATOM      9  C   UNL     1     -36.919  20.589   1.088  0.00  0.00    +0.084 C 
ATOM     10  C   UNL     1     -36.343  21.416   2.101  0.00  0.00    +0.160 C 
ATOM     11  C   UNL     1     -38.526  19.691  -0.381  0.00  0.00    +0.039 C 
ATOM     12  C   UNL     1     -38.959  24.115   2.663  0.00  0.00    +0.139 C 
ATOM     13  C   UNL     1     -37.433  18.906  -0.669  0.00  0.00    +0.088 C 
ENDROOT
BRANCH   8  16
ATOM     14  O   UNL     1     -36.645  23.099   4.837  0.00  0.00    -0.268 OA
ATOM     15  N   UNL     1     -35.483  24.252   3.145  0.00  0.00    -0.265 N 
ATOM     16  C   UNL     1     -36.357  23.311   3.664  0.00  0.00    +0.269 C 
ATOM     17  H   UNL     1     -35.387  24.265   2.166  0.00  0.00    +0.157 HD
ATOM     18  N   UNL     1     -33.911  26.037   3.172  0.00  0.00    -0.229 NA
ATOM     19  C   UNL     1     -34.712  25.197   3.865  0.00  0.00    +0.134 C 
ATOM     20  C   UNL     1     -34.830  25.199   5.246  0.00  0.00    +0.034 C 
ATOM     21  C   UNL     1     -34.077  26.123   5.961  0.00  0.00    +0.004 C 
ATOM     22  C   UNL     1     -33.195  26.922   3.902  0.00  0.00    +0.100 C 
ATOM     23  C   UNL     1     -33.241  27.005   5.284  0.00  0.00    +0.021 C 
ENDBRANCH   8  16
BRANCH  10  24
ATOM     24  O   UNL     1     -35.088  20.996   2.500  0.00  0.00    -0.504 OA
ATOM     25  H   UNL     1     -34.325  21.319   2.063  0.00  0.00    +0.292 HD
ENDBRANCH  10  24
TORSDOF 2
ENDMDL
MODEL 3
REMARK VINA RESULT:      -6.1      4.320      6.305
REMARK  Name = 54690031
REMARK  2 active torsions:
REMARK  status: ('A' for Active; 'I' for Inactive)
REMARK    1  A    between atoms: C_8  and  C_16
REMARK    2  A    between atoms: C_10  and  O_24
REMARK                            x       y       z     vdW  Elec       q    Type
REMARK                         _______ _______ _______ _____ _____    ______ ____
ROOT
ATOM      1 CL   UNL     1     -36.844  31.415  -1.476  0.00  0.00    -0.075 Cl
ATOM      2  S   UNL     1     -33.621  29.826   2.739  0.00  0.00    +0.077 S 
ATOM      3  S   UNL     1     -36.963  29.087   0.364  0.00  0.00    -0.071 S 
ATOM      4  O   UNL     1     -32.428  30.043   1.945  0.00  0.00    -0.150 OA
ATOM      5  O   UNL     1     -34.060  30.774   3.742  0.00  0.00    -0.150 OA
ATOM      6  N   UNL     1     -33.607  28.243   3.388  0.00  0.00    -0.181 N 
ATOM      7  C   UNL     1     -34.880  29.847   1.589  0.00  0.00    +0.136 C 
ATOM      8  C   UNL     1     -34.835  27.467   3.390  0.00  0.00    +0.156 C 
ATOM      9  C   UNL     1     -35.806  28.833   1.617  0.00  0.00    +0.084 C 
ATOM     10  C   UNL     1     -35.845  27.732   2.528  0.00  0.00    +0.160 C 
ATOM     11  C   UNL     1     -35.086  30.828   0.593  0.00  0.00    +0.039 C 
ATOM     12  C   UNL     1     -32.517  27.944   4.350  0.00  0.00    +0.139 C 
ATOM     13  C   UNL     1     -36.200  30.530  -0.158  0.00  0.00    +0.088 C 
ENDROOT
BRANCH   8  16
ATOM     14  O   UNL     1     -34.914  26.541   5.533  0.00  0.00    -0.268 OA
ATOM     15  N   UNL     1     -35.024  25.120   3.658  0.00  0.00    -0.265 N 
ATOM     16  C   UNL     1     -34.929  26.331   4.324  0.00  0.00    +0.269 C 
ATOM     17  H   UNL     1     -35.019  25.161   2.675  0.00  0.00    +0.157 HD
ATOM     18  N   UNL     1     -35.213  22.762   3.408  0.00  0.00    -0.229 NA
ATOM     19  C   UNL     1     -35.129  23.830   4.233  0.00  0.00    +0.134 C 
ATOM     20  C   UNL     1     -35.138  23.745   5.616  0.00  0.00    +0.034 C 
ATOM     21  C   UNL     1     -35.240  22.482   6.190  0.00  0.00    +0.004 C 
ATOM     22  C   UNL     1     -35.311  21.551   4.003  0.00  0.00    +0.100 C 
ATOM     23  C   UNL     1     -35.329  21.359   5.374  0.00  0.00    +0.021 C 
ENDBRANCH   8  16
BRANCH  10  24
ATOM     24  O   UNL     1     -37.005  26.986   2.431  0.00  0.00    -0.504 OA
ATOM     25  H   UNL     1     -37.412  26.857   1.597  0.00  0.00    +0.292 HD
ENDBRANCH  10  24
TORSDOF 2
ENDMDL
MODEL 4
REMARK VINA RESULT:      -6.0      3.200      5.758
REMARK  Name = 54690031
REMARK  2 active torsions:
REMARK  status: ('A' for Active; 'I' for Inactive)
REMARK    1  A    between atoms: C_8  and  C_16
REMARK    2  A    between atoms: C_10  and  O_24
REMARK                            x       y       z     vdW  Elec       q    Type
REMARK                         _______ _______ _______ _____ _____    ______ ____
ROOT
ATOM      1 CL   UNL     1     -42.438  25.121   1.124  0.00  0.00    -0.075 Cl
ATOM      2  S   UNL     1     -37.254  24.820   3.052  0.00  0.00    +0.077 S 
ATOM      3  S   UNL     1     -40.425  22.938   1.113  0.00  0.00    -0.071 S 
ATOM      4  O   UNL     1     -36.924  26.092   2.443  0.00  0.00    -0.150 OA
ATOM      5  O   UNL     1     -37.536  24.693   4.468  0.00  0.00    -0.150 OA
ATOM      6  N   UNL     1     -36.121  23.632   2.568  0.00  0.00    -0.181 N 
ATOM      7  C   UNL     1     -38.728  24.388   2.310  0.00  0.00    +0.136 C 
ATOM      8  C   UNL     1     -36.593  22.303   2.219  0.00  0.00    +0.156 C 
ATOM      9  C   UNL     1     -38.854  23.118   1.801  0.00  0.00    +0.084 C 
ATOM     10  C   UNL     1     -37.870  22.082   1.825  0.00  0.00    +0.160 C 
ATOM     11  C   UNL     1     -39.867  25.212   2.171  0.00  0.00    +0.039 C 
ATOM     12  C   UNL     1     -34.722  23.851   3.010  0.00  0.00    +0.139 C 
ATOM     13  C   UNL     1     -40.877  24.538   1.525  0.00  0.00    +0.088 C 
ENDROOT
BRANCH   8  16
ATOM     14  O   UNL     1     -35.385  20.624   3.305  0.00  0.00    -0.268 OA
ATOM     15  N   UNL     1     -35.074  20.958   0.994  0.00  0.00    -0.265 N 
ATOM     16  C   UNL     1     -35.618  21.199   2.246  0.00  0.00    +0.269 C 
ATOM     17  H   UNL     1     -35.393  21.533   0.262  0.00  0.00    +0.157 HD
ATOM     18  N   UNL     1     -33.702  19.901  -0.636  0.00  0.00    -0.229 NA
ATOM     19  C   UNL     1     -34.111  19.979   0.651  0.00  0.00    +0.134 C 
ATOM     20  C   UNL     1     -33.645  19.156   1.664  0.00  0.00    +0.034 C 
ATOM     21  C   UNL     1     -32.699  18.192   1.336  0.00  0.00    +0.004 C 
ATOM     22  C   UNL     1     -32.782  18.950  -0.916  0.00  0.00    +0.100 C 
ATOM     23  C   UNL     1     -32.254  18.080   0.023  0.00  0.00    +0.021 C 
ENDBRANCH   8  16
BRANCH  10  24
ATOM     24  O   UNL     1     -38.358  20.857   1.411  0.00  0.00    -0.504 OA
ATOM     25  H   UNL     1     -38.298  20.608   0.510  0.00  0.00    +0.292 HD
ENDBRANCH  10  24
TORSDOF 2
ENDMDL
MODEL 5
REMARK VINA RESULT:      -6.0      5.097      6.629
REMARK  Name = 54690031
REMARK  2 active torsions:
REMARK  status: ('A' for Active; 'I' for Inactive)
REMARK    1  A    between atoms: C_8  and  C_16
REMARK    2  A    between atoms: C_10  and  O_24
REMARK                            x       y       z     vdW  Elec       q    Type
REMARK                         _______ _______ _______ _____ _____    ______ ____
ROOT
ATOM      1 CL   UNL     1     -38.842  14.800  -2.675  0.00  0.00    -0.075 Cl
ATOM      2  S   UNL     1     -34.542  17.548  -0.520  0.00  0.00    +0.077 S 
ATOM      3  S   UNL     1     -38.666  17.280  -1.051  0.00  0.00    -0.071 S 
ATOM      4  O   UNL     1     -33.980  16.317  -0.000  0.00  0.00    -0.150 OA
ATOM      5  O   UNL     1     -34.037  18.176  -1.723  0.00  0.00    -0.150 OA
ATOM      6  N   UNL     1     -34.677  18.702   0.736  0.00  0.00    -0.181 N 
ATOM      7  C   UNL     1     -36.140  17.119  -0.933  0.00  0.00    +0.136 C 
ATOM      8  C   UNL     1     -35.875  19.520   0.821  0.00  0.00    +0.156 C 
ATOM      9  C   UNL     1     -37.164  17.928  -0.503  0.00  0.00    +0.084 C 
ATOM     10  C   UNL     1     -37.046  19.127   0.266  0.00  0.00    +0.160 C 
ATOM     11  C   UNL     1     -36.534  16.000  -1.700  0.00  0.00    +0.039 C 
ATOM     12  C   UNL     1     -33.401  19.156   1.341  0.00  0.00    +0.139 C 
ATOM     13  C   UNL     1     -37.902  15.964  -1.839  0.00  0.00    +0.088 C 
ENDROOT
BRANCH   8  16
ATOM     14  O   UNL     1     -35.901  21.848   1.007  0.00  0.00    -0.268 OA
ATOM     15  N   UNL     1     -35.604  20.541   2.943  0.00  0.00    -0.265 N 
ATOM     16  C   UNL     1     -35.797  20.774   1.591  0.00  0.00    +0.269 C 
ATOM     17  H   UNL     1     -35.545  19.598   3.219  0.00  0.00    +0.157 HD
ATOM     18  N   UNL     1     -35.298  21.075   5.241  0.00  0.00    -0.229 NA
ATOM     19  C   UNL     1     -35.483  21.506   3.972  0.00  0.00    +0.134 C 
ATOM     20  C   UNL     1     -35.562  22.841   3.610  0.00  0.00    +0.034 C 
ATOM     21  C   UNL     1     -35.444  23.796   4.613  0.00  0.00    +0.004 C 
ATOM     22  C   UNL     1     -35.188  22.033   6.189  0.00  0.00    +0.100 C 
ATOM     23  C   UNL     1     -35.253  23.393   5.930  0.00  0.00    +0.021 C 
ENDBRANCH   8  16
BRANCH  10  24
ATOM     24  O   UNL     1     -38.234  19.824   0.375  0.00  0.00    -0.504 OA
ATOM     25  H   UNL     1     -38.591  20.263  -0.371  0.00  0.00    +0.292 HD
ENDBRANCH  10  24
TORSDOF 2
ENDMDL
MODEL 6
REMARK VINA RESULT:      -6.0      4.150      7.221
REMARK  Name = 54690031
REMARK  2 active torsions:
REMARK  status: ('A' for Active; 'I' for Inactive)
REMARK    1  A    between atoms: C_8  and  C_16
REMARK    2  A    between atoms: C_10  and  O_24
REMARK                            x       y       z     vdW  Elec       q    Type
REMARK                         _______ _______ _______ _____ _____    ______ ____
ROOT
ATOM      1 CL   UNL     1     -31.411  30.064   3.588  0.00  0.00    -0.075 Cl
ATOM      2  S   UNL     1     -34.651  25.697   4.643  0.00  0.00    +0.077 S 
ATOM      3  S   UNL     1     -34.035  29.211   2.491  0.00  0.00    -0.071 S 
ATOM      4  O   UNL     1     -33.518  24.799   4.551  0.00  0.00    -0.150 OA
ATOM      5  O   UNL     1     -35.202  26.114   5.916  0.00  0.00    -0.150 OA
ATOM      6  N   UNL     1     -35.903  25.162   3.606  0.00  0.00    -0.181 N 
ATOM      7  C   UNL     1     -34.071  27.149   3.962  0.00  0.00    +0.136 C 
ATOM      8  C   UNL     1     -36.635  26.138   2.817  0.00  0.00    +0.156 C 
ATOM      9  C   UNL     1     -34.839  27.777   3.012  0.00  0.00    +0.084 C 
ATOM     10  C   UNL     1     -36.109  27.349   2.515  0.00  0.00    +0.160 C 
ATOM     11  C   UNL     1     -32.860  27.800   4.289  0.00  0.00    +0.039 C 
ATOM     12  C   UNL     1     -36.503  23.846   3.936  0.00  0.00    +0.139 C 
ATOM     13  C   UNL     1     -32.712  28.950   3.548  0.00  0.00    +0.088 C 
ENDROOT
BRANCH   8  16
ATOM     14  O   UNL     1     -38.028  24.963   1.356  0.00  0.00    -0.268 OA
ATOM     15  N   UNL     1     -38.989  26.362   2.989  0.00  0.00    -0.265 N 
ATOM     16  C   UNL     1     -37.958  25.747   2.297  0.00  0.00    +0.269 C 
ATOM     17  H   UNL     1     -38.725  26.965   3.720  0.00  0.00    +0.157 HD
ATOM     18  N   UNL     1     -41.234  26.910   3.551  0.00  0.00    -0.229 NA
ATOM     19  C   UNL     1     -40.379  26.221   2.762  0.00  0.00    +0.134 C 
ATOM     20  C   UNL     1     -40.778  25.377   1.737  0.00  0.00    +0.034 C 
ATOM     21  C   UNL     1     -42.141  25.232   1.506  0.00  0.00    +0.004 C 
ATOM     22  C   UNL     1     -42.552  26.743   3.296  0.00  0.00    +0.100 C 
ATOM     23  C   UNL     1     -43.052  25.924   2.297  0.00  0.00    +0.021 C 
ENDBRANCH   8  16
BRANCH  10  24
ATOM     24  O   UNL     1     -36.725  28.289   1.710  0.00  0.00    -0.504 OA
ATOM     25  H   UNL     1     -37.614  28.535   1.873  0.00  0.00    +0.292 HD
ENDBRANCH  10  24
TORSDOF 2
ENDMDL
MODEL 7
REMARK VINA RESULT:      -5.9      3.536      4.501
REMARK  Name = 54690031
REMARK  2 active torsions:
REMARK  status: ('A' for Active; 'I' for Inactive)
REMARK    1  A    between atoms: C_8  and  C_16
REMARK    2  A    between atoms: C_10  and  O_24
REMARK                            x       y       z     vdW  Elec       q    Type
REMARK                         _______ _______ _______ _____ _____    ______ ____
ROOT
ATOM      1 CL   UNL     1     -34.927  20.604  -0.486  0.00  0.00    -0.075 Cl
ATOM      2  S   UNL     1     -35.707  23.568   4.128  0.00  0.00    +0.077 S 
ATOM      3  S   UNL     1     -34.047  23.324   0.314  0.00  0.00    -0.071 S 
ATOM      4  O   UNL     1     -37.121  23.251   4.126  0.00  0.00    -0.150 OA
ATOM      5  O   UNL     1     -34.769  22.894   5.002  0.00  0.00    -0.150 OA
ATOM      6  N   UNL     1     -35.490  25.262   4.224  0.00  0.00    -0.181 N 
ATOM      7  C   UNL     1     -35.191  23.120   2.566  0.00  0.00    +0.136 C 
ATOM      8  C   UNL     1     -34.475  25.895   3.400  0.00  0.00    +0.156 C 
ATOM      9  C   UNL     1     -34.437  24.015   1.846  0.00  0.00    +0.084 C 
ATOM     10  C   UNL     1     -34.015  25.314   2.266  0.00  0.00    +0.160 C 
ATOM     11  C   UNL     1     -35.450  21.890   1.920  0.00  0.00    +0.039 C 
ATOM     12  C   UNL     1     -35.971  25.909   5.470  0.00  0.00    +0.139 C 
ATOM     13  C   UNL     1     -34.880  21.869   0.669  0.00  0.00    +0.088 C 
ENDROOT
BRANCH   8  16
ATOM     14  O   UNL     1     -34.668  28.219   3.530  0.00  0.00    -0.268 OA
ATOM     15  N   UNL     1     -32.784  27.165   4.471  0.00  0.00    -0.265 N 
ATOM     16  C   UNL     1     -33.996  27.229   3.803  0.00  0.00    +0.269 C 
ATOM     17  H   UNL     1     -32.401  26.267   4.593  0.00  0.00    +0.157 HD
ATOM     18  N   UNL     1     -30.866  27.975   5.621  0.00  0.00    -0.229 NA
ATOM     19  C   UNL     1     -32.035  28.245   4.998  0.00  0.00    +0.134 C 
ATOM     20  C   UNL     1     -32.554  29.520   4.839  0.00  0.00    +0.034 C 
ATOM     21  C   UNL     1     -31.826  30.587   5.352  0.00  0.00    +0.004 C 
ATOM     22  C   UNL     1     -30.187  29.039   6.107  0.00  0.00    +0.100 C 
ATOM     23  C   UNL     1     -30.618  30.350   6.001  0.00  0.00    +0.021 C 
ENDBRANCH   8  16
BRANCH  10  24
ATOM     24  O   UNL     1     -33.106  25.897   1.403  0.00  0.00    -0.504 OA
ATOM     25  H   UNL     1     -33.097  26.827   1.290  0.00  0.00    +0.292 HD
ENDBRANCH  10  24
TORSDOF 2
ENDMDL
MODEL 8
REMARK VINA RESULT:      -5.9      2.976      4.124
REMARK  Name = 54690031
REMARK  2 active torsions:
REMARK  status: ('A' for Active; 'I' for Inactive)
REMARK    1  A    between atoms: C_8  and  C_16
REMARK    2  A    between atoms: C_10  and  O_24
REMARK                            x       y       z     vdW  Elec       q    Type
REMARK                         _______ _______ _______ _____ _____    ______ ____
ROOT
ATOM      1 CL   UNL     1     -36.146  21.571  -0.995  0.00  0.00    -0.075 Cl
ATOM      2  S   UNL     1     -36.547  23.996   3.968  0.00  0.00    +0.077 S 
ATOM      3  S   UNL     1     -34.458  23.584   0.387  0.00  0.00    -0.071 S 
ATOM      4  O   UNL     1     -37.951  24.278   3.748  0.00  0.00    -0.150 OA
ATOM      5  O   UNL     1     -36.104  22.899   4.803  0.00  0.00    -0.150 OA
ATOM      6  N   UNL     1     -35.725  25.434   4.399  0.00  0.00    -0.181 N 
ATOM      7  C   UNL     1     -35.972  23.578   2.418  0.00  0.00    +0.136 C 
ATOM      8  C   UNL     1     -34.418  25.702   3.825  0.00  0.00    +0.156 C 
ATOM      9  C   UNL     1     -34.821  24.176   1.965  0.00  0.00    +0.084 C 
ATOM     10  C   UNL     1     -34.020  25.133   2.663  0.00  0.00    +0.160 C 
ATOM     11  C   UNL     1     -36.559  22.647   1.532  0.00  0.00    +0.039 C 
ATOM     12  C   UNL     1     -36.137  26.059   5.680  0.00  0.00    +0.139 C 
ATOM     13  C   UNL     1     -35.828  22.555   0.371  0.00  0.00    +0.088 C 
ENDROOT
BRANCH   8  16
ATOM     14  O   UNL     1     -32.979  26.337   5.553  0.00  0.00    -0.268 OA
ATOM     15  N   UNL     1     -33.503  27.888   3.861  0.00  0.00    -0.265 N 
ATOM     16  C   UNL     1     -33.549  26.670   4.519  0.00  0.00    +0.269 C 
ATOM     17  H   UNL     1     -34.036  27.960   3.037  0.00  0.00    +0.157 HD
ATOM     18  N   UNL     1     -32.859  30.143   3.459  0.00  0.00    -0.229 NA
ATOM     19  C   UNL     1     -32.774  29.042   4.240  0.00  0.00    +0.134 C 
ATOM     20  C   UNL     1     -32.015  28.967   5.396  0.00  0.00    +0.034 C 
ATOM     21  C   UNL     1     -31.296  30.095   5.777  0.00  0.00    +0.004 C 
ATOM     22  C   UNL     1     -32.146  31.219   3.862  0.00  0.00    +0.100 C 
ATOM     23  C   UNL     1     -31.357  31.247   5.000  0.00  0.00    +0.021 C 
ENDBRANCH   8  16
BRANCH  10  24
ATOM     24  O   UNL     1     -32.821  25.404   2.031  0.00  0.00    -0.504 OA
ATOM     25  H   UNL     1     -32.808  25.609   1.117  0.00  0.00    +0.292 HD
ENDBRANCH  10  24
TORSDOF 2
ENDMDL
MODEL 9
REMARK VINA RESULT:      -5.8      5.443      7.262
REMARK  Name = 54690031
REMARK  2 active torsions:
REMARK  status: ('A' for Active; 'I' for Inactive)
REMARK    1  A    between atoms: C_8  and  C_16
REMARK    2  A    between atoms: C_10  and  O_24
REMARK                            x       y       z     vdW  Elec       q    Type
REMARK                         _______ _______ _______ _____ _____    ______ ____
ROOT
ATOM      1 CL   UNL     1     -35.570  23.113   6.005  0.00  0.00    -0.075 Cl
ATOM      2  S   UNL     1     -32.891  27.648   4.294  0.00  0.00    +0.077 S 
ATOM      3  S   UNL     1     -36.293  25.254   4.079  0.00  0.00    -0.071 S 
ATOM      4  O   UNL     1     -32.563  28.004   5.660  0.00  0.00    -0.150 OA
ATOM      5  O   UNL     1     -31.927  27.032   3.406  0.00  0.00    -0.150 OA
ATOM      6  N   UNL     1     -33.649  28.970   3.515  0.00  0.00    -0.181 N 
ATOM      7  C   UNL     1     -34.097  26.455   4.467  0.00  0.00    +0.136 C 
ATOM      8  C   UNL     1     -34.796  28.725   2.658  0.00  0.00    +0.156 C 
ATOM      9  C   UNL     1     -35.247  26.577   3.725  0.00  0.00    +0.084 C 
ATOM     10  C   UNL     1     -35.559  27.614   2.791  0.00  0.00    +0.160 C 
ATOM     11  C   UNL     1     -34.034  25.317   5.302  0.00  0.00    +0.039 C 
ATOM     12  C   UNL     1     -32.818  30.188   3.344  0.00  0.00    +0.139 C 
ATOM     13  C   UNL     1     -35.182  24.569   5.189  0.00  0.00    +0.088 C 
ENDROOT
BRANCH   8  16
ATOM     14  O   UNL     1     -34.523  29.822   0.614  0.00  0.00    -0.268 OA
ATOM     15  N   UNL     1     -36.195  30.555   2.102  0.00  0.00    -0.265 N 
ATOM     16  C   UNL     1     -35.147  29.759   1.668  0.00  0.00    +0.269 C 
ATOM     17  H   UNL     1     -36.566  30.343   2.987  0.00  0.00    +0.157 HD
ATOM     18  N   UNL     1     -37.810  32.299   2.009  0.00  0.00    -0.229 NA
ATOM     19  C   UNL     1     -36.790  31.640   1.413  0.00  0.00    +0.134 C 
ATOM     20  C   UNL     1     -36.284  31.960   0.163  0.00  0.00    +0.034 C 
ATOM     21  C   UNL     1     -36.862  33.024  -0.520  0.00  0.00    +0.004 C 
ATOM     22  C   UNL     1     -38.346  33.327   1.313  0.00  0.00    +0.100 C 
ATOM     23  C   UNL     1     -37.914  33.726   0.059  0.00  0.00    +0.021 C 
ENDBRANCH   8  16
BRANCH  10  24
ATOM     24  O   UNL     1     -36.702  27.360   2.057  0.00  0.00    -0.504 OA
ATOM     25  H   UNL     1     -36.987  26.477   1.922  0.00  0.00    +0.292 HD
ENDBRANCH  10  24
TORSDOF 2
ENDMDL
