MODEL 1
REMARK VINA RESULT:      -5.6      0.000      0.000
REMARK  Name = 198229
REMARK  11 active torsions:
REMARK  status: ('A' for Active; 'I' for Inactive)
REMARK    1  A    between atoms: C_1  and  C_2
REMARK    2  A    between atoms: C_1  and  C_15
REMARK    3  A    between atoms: C_2  and  C_3
REMARK    4  A    between atoms: C_3  and  C_4
REMARK    5  A    between atoms: C_4  and  N_5
REMARK    6  A    between atoms: N_5  and  C_8
REMARK    7  A    between atoms: C_8  and  C_9
REMARK    8  A    between atoms: C_9  and  S_10
REMARK    9  A    between atoms: S_10  and  S_11
REMARK   10  A    between atoms: C_15  and  O_16
REMARK   11  A    between atoms: O_16  and  C_19
REMARK                            x       y       z     vdW  Elec       q    Type
REMARK                         _______ _______ _______ _____ _____    ______ ____
ROOT
ATOM      1  C   UNL     1     -35.543  22.574   5.999  0.00  0.00    +0.047 C 
ENDROOT
BRANCH   1   2
ATOM      2  C   UNL     1     -34.884  23.891   5.579  0.00  0.00    +0.002 C 
BRANCH   2   3
ATOM      3  C   UNL     1     -35.929  24.981   5.328  0.00  0.00    -0.023 C 
BRANCH   3   4
ATOM      4  C   UNL     1     -35.716  25.649   3.971  0.00  0.00    -0.082 C 
BRANCH   4   5
ATOM      5  N   UNL     1     -35.667  27.099   4.124  0.00  0.00    +0.384 N 
ATOM      6  H   UNL     1     -35.372  27.325   5.072  0.00  0.00    -0.084 HD
ATOM      7  H   UNL     1     -36.596  27.477   3.939  0.00  0.00    -0.084 HD
BRANCH   5   8
ATOM      8  C   UNL     1     -34.729  27.688   3.178  0.00  0.00    -0.068 C 
BRANCH   8   9
ATOM      9  C   UNL     1     -33.492  26.806   3.058  0.00  0.00    +0.058 C 
BRANCH   9  10
ATOM     10  S   UNL     1     -31.993  27.773   3.401  0.00  0.00    +0.012 S 
BRANCH  10  11
ATOM     11  S   UNL     1     -32.117  28.070   5.472  0.00  0.00    +0.066 S 
ATOM     12  O   UNL     1     -32.562  29.630   5.626  0.00  0.00    -0.059 OA
ATOM     13  O   UNL     1     -33.203  27.245   5.964  0.00  0.00    -0.059 OA
ATOM     14  O   UNL     1     -30.776  27.932   6.010  0.00  0.00    -0.059 OA
ENDBRANCH  10  11
ENDBRANCH   9  10
ENDBRANCH   8   9
ENDBRANCH   5   8
ENDBRANCH   4   5
ENDBRANCH   3   4
ENDBRANCH   2   3
ENDBRANCH   1   2
BRANCH   1  15
ATOM     15  C   UNL     1     -35.317  21.466   4.979  0.00  0.00    +0.205 C 
BRANCH  15  16
ATOM     16  O   UNL     1     -35.188  22.022   3.678  0.00  0.00    -0.476 OA
BRANCH  16  19
ATOM     17 CL   UNL     1     -34.572  17.287  -1.091  0.00  0.00    -0.087 Cl
ATOM     18  N   UNL     1     -37.851  20.670   0.793  0.00  0.00    -0.248 NA
ATOM     19  C   UNL     1     -36.051  21.559   2.718  0.00  0.00    +0.138 C 
ATOM     20  C   UNL     1     -35.678  20.544   1.826  0.00  0.00    +0.030 C 
ATOM     21  C   UNL     1     -36.623  20.125   0.865  0.00  0.00    +0.064 C 
ATOM     22  C   UNL     1     -37.316  22.123   2.645  0.00  0.00    +0.057 C 
ATOM     23  C   UNL     1     -34.404  19.953   1.873  0.00  0.00    +0.057 C 
ATOM     24  C   UNL     1     -36.252  19.117  -0.021  0.00  0.00    +0.083 C 
ATOM     25  C   UNL     1     -38.172  21.647   1.673  0.00  0.00    +0.102 C 
ATOM     26  C   UNL     1     -34.060  18.948   0.975  0.00  0.00    -0.014 C 
ATOM     27  C   UNL     1     -34.986  18.529   0.026  0.00  0.00    +0.037 C 
ENDBRANCH  16  19
ENDBRANCH  15  16
ENDBRANCH   1  15
TORSDOF 11
ENDMDL
MODEL 2
REMARK VINA RESULT:      -5.5      2.082      3.187
REMARK  Name = 198229
REMARK  11 active torsions:
REMARK  status: ('A' for Active; 'I' for Inactive)
REMARK    1  A    between atoms: C_1  and  C_2
REMARK    2  A    between atoms: C_1  and  C_15
REMARK    3  A    between atoms: C_2  and  C_3
REMARK    4  A    between atoms: C_3  and  C_4
REMARK    5  A    between atoms: C_4  and  N_5
REMARK    6  A    between atoms: N_5  and  C_8
REMARK    7  A    between atoms: C_8  and  C_9
REMARK    8  A    between atoms: C_9  and  S_10
REMARK    9  A    between atoms: S_10  and  S_11
REMARK   10  A    between atoms: C_15  and  O_16
REMARK   11  A    between atoms: O_16  and  C_19
REMARK                            x       y       z     vdW  Elec       q    Type
REMARK                         _______ _______ _______ _____ _____    ______ ____
ROOT
ATOM      1  C   UNL     1     -35.447  22.731   6.028  0.00  0.00    +0.047 C 
ENDROOT
BRANCH   1   2
ATOM      2  C   UNL     1     -34.711  24.001   5.590  0.00  0.00    +0.002 C 
BRANCH   2   3
ATOM      3  C   UNL     1     -35.674  25.183   5.457  0.00  0.00    -0.023 C 
BRANCH   3   4
ATOM      4  C   UNL     1     -35.528  25.863   4.097  0.00  0.00    -0.082 C 
BRANCH   4   5
ATOM      5  N   UNL     1     -35.512  27.313   4.255  0.00  0.00    +0.384 N 
ATOM      6  H   UNL     1     -35.153  27.544   5.181  0.00  0.00    -0.084 HD
ATOM      7  H   UNL     1     -36.463  27.663   4.144  0.00  0.00    -0.084 HD
BRANCH   5   8
ATOM      8  C   UNL     1     -34.665  27.936   3.247  0.00  0.00    -0.068 C 
BRANCH   8   9
ATOM      9  C   UNL     1     -33.447  27.060   2.981  0.00  0.00    +0.058 C 
BRANCH   9  10
ATOM     10  S   UNL     1     -31.920  28.005   3.253  0.00  0.00    +0.012 S 
BRANCH  10  11
ATOM     11  S   UNL     1     -31.830  28.118   5.343  0.00  0.00    +0.066 S 
ATOM     12  O   UNL     1     -32.448  29.586   5.691  0.00  0.00    -0.059 OA
ATOM     13  O   UNL     1     -32.736  27.116   5.871  0.00  0.00    -0.059 OA
ATOM     14  O   UNL     1     -30.428  28.124   5.717  0.00  0.00    -0.059 OA
ENDBRANCH  10  11
ENDBRANCH   9  10
ENDBRANCH   8   9
ENDBRANCH   5   8
ENDBRANCH   4   5
ENDBRANCH   3   4
ENDBRANCH   2   3
ENDBRANCH   1   2
BRANCH   1  15
ATOM     15  C   UNL     1     -35.349  21.621   4.990  0.00  0.00    +0.205 C 
BRANCH  15  16
ATOM     16  O   UNL     1     -35.287  22.180   3.685  0.00  0.00    -0.476 OA
BRANCH  16  19
ATOM     17 CL   UNL     1     -41.174  23.917   0.881  0.00  0.00    -0.087 Cl
ATOM     18  N   UNL     1     -37.583  20.335   0.760  0.00  0.00    -0.248 NA
ATOM     19  C   UNL     1     -36.061  21.590   2.721  0.00  0.00    +0.138 C 
ATOM     20  C   UNL     1     -37.270  22.161   2.300  0.00  0.00    +0.030 C 
ATOM     21  C   UNL     1     -38.010  21.490   1.303  0.00  0.00    +0.064 C 
ATOM     22  C   UNL     1     -35.620  20.399   2.162  0.00  0.00    +0.057 C 
ATOM     23  C   UNL     1     -37.745  23.365   2.845  0.00  0.00    +0.057 C 
ATOM     24  C   UNL     1     -39.211  22.057   0.885  0.00  0.00    +0.083 C 
ATOM     25  C   UNL     1     -36.411  19.817   1.193  0.00  0.00    +0.102 C 
ATOM     26  C   UNL     1     -38.949  23.910   2.410  0.00  0.00    -0.014 C 
ATOM     27  C   UNL     1     -39.683  23.254   1.428  0.00  0.00    +0.037 C 
ENDBRANCH  16  19
ENDBRANCH  15  16
ENDBRANCH   1  15
TORSDOF 11
ENDMDL
MODEL 3
REMARK VINA RESULT:      -5.3      2.354      3.673
REMARK  Name = 198229
REMARK  11 active torsions:
REMARK  status: ('A' for Active; 'I' for Inactive)
REMARK    1  A    between atoms: C_1  and  C_2
REMARK    2  A    between atoms: C_1  and  C_15
REMARK    3  A    between atoms: C_2  and  C_3
REMARK    4  A    between atoms: C_3  and  C_4
REMARK    5  A    between atoms: C_4  and  N_5
REMARK    6  A    between atoms: N_5  and  C_8
REMARK    7  A    between atoms: C_8  and  C_9
REMARK    8  A    between atoms: C_9  and  S_10
REMARK    9  A    between atoms: S_10  and  S_11
REMARK   10  A    between atoms: C_15  and  O_16
REMARK   11  A    between atoms: O_16  and  C_19
REMARK                            x       y       z     vdW  Elec       q    Type
REMARK                         _______ _______ _______ _____ _____    ______ ____
ROOT
ATOM      1  C   UNL     1     -34.208  26.239   4.744  0.00  0.00    +0.047 C 
ENDROOT
BRANCH   1   2
ATOM      2  C   UNL     1     -34.727  26.890   3.458  0.00  0.00    +0.002 C 
BRANCH   2   3
ATOM      3  C   UNL     1     -33.823  28.044   3.016  0.00  0.00    -0.023 C 
BRANCH   3   4
ATOM      4  C   UNL     1     -34.624  29.328   2.817  0.00  0.00    -0.082 C 
BRANCH   4   5
ATOM      5  N   UNL     1     -34.029  30.420   3.579  0.00  0.00    +0.384 N 
ATOM      6  H   UNL     1     -33.724  30.067   4.486  0.00  0.00    -0.084 HD
ATOM      7  H   UNL     1     -34.727  31.153   3.698  0.00  0.00    -0.084 HD
BRANCH   5   8
ATOM      8  C   UNL     1     -32.882  30.978   2.876  0.00  0.00    -0.068 C 
BRANCH   8   9
ATOM      9  C   UNL     1     -31.841  31.456   3.881  0.00  0.00    +0.058 C 
BRANCH   9  10
ATOM     10  S   UNL     1     -30.460  30.279   3.966  0.00  0.00    +0.012 S 
BRANCH  10  11
ATOM     11  S   UNL     1     -30.993  29.084   5.603  0.00  0.00    +0.066 S 
ATOM     12  O   UNL     1     -29.991  29.568   6.794  0.00  0.00    -0.059 OA
ATOM     13  O   UNL     1     -32.345  29.446   5.982  0.00  0.00    -0.059 OA
ATOM     14  O   UNL     1     -30.656  27.713   5.266  0.00  0.00    -0.059 OA
ENDBRANCH  10  11
ENDBRANCH   9  10
ENDBRANCH   8   9
ENDBRANCH   5   8
ENDBRANCH   4   5
ENDBRANCH   3   4
ENDBRANCH   2   3
ENDBRANCH   1   2
BRANCH   1  15
ATOM     15  C   UNL     1     -35.340  25.759   5.643  0.00  0.00    +0.205 C 
BRANCH  15  16
ATOM     16  O   UNL     1     -36.192  24.878   4.924  0.00  0.00    -0.476 OA
BRANCH  16  19
ATOM     17 CL   UNL     1     -35.580  20.465  -0.145  0.00  0.00    -0.087 Cl
ATOM     18  N   UNL     1     -35.087  20.876   4.888  0.00  0.00    -0.248 NA
ATOM     19  C   UNL     1     -35.829  23.557   4.887  0.00  0.00    +0.138 C 
ATOM     20  C   UNL     1     -35.777  22.845   3.681  0.00  0.00    +0.030 C 
ATOM     21  C   UNL     1     -35.395  21.486   3.729  0.00  0.00    +0.064 C 
ATOM     22  C   UNL     1     -35.513  22.930   6.083  0.00  0.00    +0.057 C 
ATOM     23  C   UNL     1     -36.092  23.450   2.454  0.00  0.00    +0.057 C 
ATOM     24  C   UNL     1     -35.344  20.779   2.531  0.00  0.00    +0.083 C 
ATOM     25  C   UNL     1     -35.150  21.599   6.030  0.00  0.00    +0.102 C 
ATOM     26  C   UNL     1     -36.032  22.719   1.271  0.00  0.00    -0.014 C 
ATOM     27  C   UNL     1     -35.657  21.381   1.311  0.00  0.00    +0.037 C 
ENDBRANCH  16  19
ENDBRANCH  15  16
ENDBRANCH   1  15
TORSDOF 11
ENDMDL
MODEL 4
REMARK VINA RESULT:      -5.1      4.049      5.030
REMARK  Name = 198229
REMARK  11 active torsions:
REMARK  status: ('A' for Active; 'I' for Inactive)
REMARK    1  A    between atoms: C_1  and  C_2
REMARK    2  A    between atoms: C_1  and  C_15
REMARK    3  A    between atoms: C_2  and  C_3
REMARK    4  A    between atoms: C_3  and  C_4
REMARK    5  A    between atoms: C_4  and  N_5
REMARK    6  A    between atoms: N_5  and  C_8
REMARK    7  A    between atoms: C_8  and  C_9
REMARK    8  A    between atoms: C_9  and  S_10
REMARK    9  A    between atoms: S_10  and  S_11
REMARK   10  A    between atoms: C_15  and  O_16
REMARK   11  A    between atoms: O_16  and  C_19
REMARK                            x       y       z     vdW  Elec       q    Type
REMARK                         _______ _______ _______ _____ _____    ______ ____
ROOT
ATOM      1  C   UNL     1     -35.180  22.149   5.308  0.00  0.00    +0.047 C 
ENDROOT
BRANCH   1   2
ATOM      2  C   UNL     1     -34.761  23.612   5.477  0.00  0.00    +0.002 C 
BRANCH   2   3
ATOM      3  C   UNL     1     -35.975  24.544   5.453  0.00  0.00    -0.023 C 
BRANCH   3   4
ATOM      4  C   UNL     1     -35.803  25.648   4.411  0.00  0.00    -0.082 C 
BRANCH   4   5
ATOM      5  N   UNL     1     -37.105  26.116   3.951  0.00  0.00    +0.384 N 
ATOM      6  H   UNL     1     -36.979  26.679   3.110  0.00  0.00    -0.084 HD
ATOM      7  H   UNL     1     -37.532  26.673   4.691  0.00  0.00    -0.084 HD
BRANCH   5   8
ATOM      8  C   UNL     1     -37.982  24.994   3.647  0.00  0.00    -0.068 C 
BRANCH   8   9
ATOM      9  C   UNL     1     -37.837  24.607   2.180  0.00  0.00    +0.058 C 
BRANCH   9  10
ATOM     10  S   UNL     1     -39.241  25.241   1.218  0.00  0.00    +0.012 S 
BRANCH  10  11
ATOM     11  S   UNL     1     -40.359  23.505   0.861  0.00  0.00    +0.066 S 
ATOM     12  O   UNL     1     -40.058  22.562   2.157  0.00  0.00    -0.059 OA
ATOM     13  O   UNL     1     -41.760  23.877   0.896  0.00  0.00    -0.059 OA
ATOM     14  O   UNL     1     -39.790  22.856  -0.305  0.00  0.00    -0.059 OA
ENDBRANCH  10  11
ENDBRANCH   9  10
ENDBRANCH   8   9
ENDBRANCH   5   8
ENDBRANCH   4   5
ENDBRANCH   3   4
ENDBRANCH   2   3
ENDBRANCH   1   2
BRANCH   1  15
ATOM     15  C   UNL     1     -35.796  21.881   3.940  0.00  0.00    +0.205 C 
BRANCH  15  16
ATOM     16  O   UNL     1     -35.294  20.662   3.412  0.00  0.00    -0.476 OA
BRANCH  16  19
ATOM     17 CL   UNL     1     -32.319  17.213  -1.568  0.00  0.00    -0.087 Cl
ATOM     18  N   UNL     1     -36.611  19.653  -0.395  0.00  0.00    -0.248 NA
ATOM     19  C   UNL     1     -35.708  20.316   2.151  0.00  0.00    +0.138 C 
ATOM     20  C   UNL     1     -34.887  19.579   1.287  0.00  0.00    +0.030 C 
ATOM     21  C   UNL     1     -35.386  19.265   0.005  0.00  0.00    +0.064 C 
ATOM     22  C   UNL     1     -36.971  20.717   1.742  0.00  0.00    +0.057 C 
ATOM     23  C   UNL     1     -33.603  19.158   1.671  0.00  0.00    +0.057 C 
ATOM     24  C   UNL     1     -34.570  18.533  -0.854  0.00  0.00    +0.083 C 
ATOM     25  C   UNL     1     -37.372  20.363   0.470  0.00  0.00    +0.102 C 
ATOM     26  C   UNL     1     -32.808  18.428   0.793  0.00  0.00    -0.014 C 
ATOM     27  C   UNL     1     -33.293  18.115  -0.472  0.00  0.00    +0.037 C 
ENDBRANCH  16  19
ENDBRANCH  15  16
ENDBRANCH   1  15
TORSDOF 11
ENDMDL
MODEL 5
REMARK VINA RESULT:      -5.1      2.672      3.924
REMARK  Name = 198229
REMARK  11 active torsions:
REMARK  status: ('A' for Active; 'I' for Inactive)
REMARK    1  A    between atoms: C_1  and  C_2
REMARK    2  A    between atoms: C_1  and  C_15
REMARK    3  A    between atoms: C_2  and  C_3
REMARK    4  A    between atoms: C_3  and  C_4
REMARK    5  A    between atoms: C_4  and  N_5
REMARK    6  A    between atoms: N_5  and  C_8
REMARK    7  A    between atoms: C_8  and  C_9
REMARK    8  A    between atoms: C_9  and  S_10
REMARK    9  A    between atoms: S_10  and  S_11
REMARK   10  A    between atoms: C_15  and  O_16
REMARK   11  A    between atoms: O_16  and  C_19
REMARK                            x       y       z     vdW  Elec       q    Type
REMARK                         _______ _______ _______ _____ _____    ______ ____
ROOT
ATOM      1  C   UNL     1     -37.961  21.147   1.126  0.00  0.00    +0.047 C 
ENDROOT
BRANCH   1   2
ATOM      2  C   UNL     1     -38.970  22.296   1.035  0.00  0.00    +0.002 C 
BRANCH   2   3
ATOM      3  C   UNL     1     -39.324  22.835   2.423  0.00  0.00    -0.023 C 
BRANCH   3   4
ATOM      4  C   UNL     1     -39.124  24.347   2.496  0.00  0.00    -0.082 C 
BRANCH   4   5
ATOM      5  N   UNL     1     -38.630  24.730   3.814  0.00  0.00    +0.384 N 
ATOM      6  H   UNL     1     -38.420  23.888   4.349  0.00  0.00    -0.084 HD
ATOM      7  H   UNL     1     -39.348  25.281   4.283  0.00  0.00    -0.084 HD
BRANCH   5   8
ATOM      8  C   UNL     1     -37.423  25.537   3.701  0.00  0.00    -0.068 C 
BRANCH   8   9
ATOM      9  C   UNL     1     -36.216  24.729   4.163  0.00  0.00    +0.058 C 
BRANCH   9  10
ATOM     10  S   UNL     1     -35.478  25.487   5.639  0.00  0.00    +0.012 S 
BRANCH  10  11
ATOM     11  S   UNL     1     -33.801  26.464   4.849  0.00  0.00    +0.066 S 
ATOM     12  O   UNL     1     -34.429  27.666   3.944  0.00  0.00    -0.059 OA
ATOM     13  O   UNL     1     -33.087  27.066   5.958  0.00  0.00    -0.059 OA
ATOM     14  O   UNL     1     -33.138  25.533   3.955  0.00  0.00    -0.059 OA
ENDBRANCH  10  11
ENDBRANCH   9  10
ENDBRANCH   8   9
ENDBRANCH   5   8
ENDBRANCH   4   5
ENDBRANCH   3   4
ENDBRANCH   2   3
ENDBRANCH   1   2
BRANCH   1  15
ATOM     15  C   UNL     1     -36.812  21.463   2.075  0.00  0.00    +0.205 C 
BRANCH  15  16
ATOM     16  O   UNL     1     -35.755  20.533   1.885  0.00  0.00    -0.476 OA
BRANCH  16  19
ATOM     17 CL   UNL     1     -29.889  17.603   0.288  0.00  0.00    -0.087 Cl
ATOM     18  N   UNL     1     -32.518  21.900  -0.327  0.00  0.00    -0.248 NA
ATOM     19  C   UNL     1     -34.675  20.962   1.158  0.00  0.00    +0.138 C 
ATOM     20  C   UNL     1     -33.551  20.147   0.965  0.00  0.00    +0.030 C 
ATOM     21  C   UNL     1     -32.480  20.664   0.205  0.00  0.00    +0.064 C 
ATOM     22  C   UNL     1     -34.716  22.237   0.611  0.00  0.00    +0.057 C 
ATOM     23  C   UNL     1     -33.478  18.853   1.505  0.00  0.00    +0.057 C 
ATOM     24  C   UNL     1     -31.364  19.854   0.013  0.00  0.00    +0.083 C 
ATOM     25  C   UNL     1     -33.621  22.654  -0.117  0.00  0.00    +0.102 C 
ATOM     26  C   UNL     1     -32.350  18.065   1.297  0.00  0.00    -0.014 C 
ATOM     27  C   UNL     1     -31.291  18.567   0.550  0.00  0.00    +0.037 C 
ENDBRANCH  16  19
ENDBRANCH  15  16
ENDBRANCH   1  15
TORSDOF 11
ENDMDL
MODEL 6
REMARK VINA RESULT:      -5.0      5.873      9.273
REMARK  Name = 198229
REMARK  11 active torsions:
REMARK  status: ('A' for Active; 'I' for Inactive)
REMARK    1  A    between atoms: C_1  and  C_2
REMARK    2  A    between atoms: C_1  and  C_15
REMARK    3  A    between atoms: C_2  and  C_3
REMARK    4  A    between atoms: C_3  and  C_4
REMARK    5  A    between atoms: C_4  and  N_5
REMARK    6  A    between atoms: N_5  and  C_8
REMARK    7  A    between atoms: C_8  and  C_9
REMARK    8  A    between atoms: C_9  and  S_10
REMARK    9  A    between atoms: S_10  and  S_11
REMARK   10  A    between atoms: C_15  and  O_16
REMARK   11  A    between atoms: O_16  and  C_19
REMARK                            x       y       z     vdW  Elec       q    Type
REMARK                         _______ _______ _______ _____ _____    ______ ____
ROOT
ATOM      1  C   UNL     1     -34.821  21.095   1.362  0.00  0.00    +0.047 C 
ENDROOT
BRANCH   1   2
ATOM      2  C   UNL     1     -34.291  19.737   1.830  0.00  0.00    +0.002 C 
BRANCH   2   3
ATOM      3  C   UNL     1     -33.292  19.154   0.826  0.00  0.00    -0.023 C 
BRANCH   3   4
ATOM      4  C   UNL     1     -33.787  17.823   0.265  0.00  0.00    -0.082 C 
BRANCH   4   5
ATOM      5  N   UNL     1     -35.238  17.842   0.122  0.00  0.00    +0.384 N 
ATOM      6  H   UNL     1     -35.636  18.453   0.834  0.00  0.00    -0.084 HD
ATOM      7  H   UNL     1     -35.589  16.891   0.231  0.00  0.00    -0.084 HD
BRANCH   5   8
ATOM      8  C   UNL     1     -35.623  18.332  -1.195  0.00  0.00    -0.068 C 
BRANCH   8   9
ATOM      9  C   UNL     1     -35.027  17.437  -2.274  0.00  0.00    +0.058 C 
BRANCH   9  10
ATOM     10  S   UNL     1     -36.260  16.233  -2.847  0.00  0.00    +0.012 S 
BRANCH  10  11
ATOM     11  S   UNL     1     -36.236  14.804  -1.315  0.00  0.00    +0.066 S 
ATOM     12  O   UNL     1     -37.220  15.425  -0.174  0.00  0.00    -0.059 OA
ATOM     13  O   UNL     1     -36.858  13.601  -1.834  0.00  0.00    -0.059 OA
ATOM     14  O   UNL     1     -34.890  14.771  -0.774  0.00  0.00    -0.059 OA
ENDBRANCH  10  11
ENDBRANCH   9  10
ENDBRANCH   8   9
ENDBRANCH   5   8
ENDBRANCH   4   5
ENDBRANCH   3   4
ENDBRANCH   2   3
ENDBRANCH   1   2
BRANCH   1  15
ATOM     15  C   UNL     1     -36.342  21.163   1.396  0.00  0.00    +0.205 C 
BRANCH  15  16
ATOM     16  O   UNL     1     -36.788  21.412   2.722  0.00  0.00    -0.476 OA
BRANCH  16  19
ATOM     17 CL   UNL     1     -33.878  26.347   6.287  0.00  0.00    -0.087 Cl
ATOM     18  N   UNL     1     -38.029  25.282   3.571  0.00  0.00    -0.248 NA
ATOM     19  C   UNL     1     -37.177  22.693   3.014  0.00  0.00    +0.138 C 
ATOM     20  C   UNL     1     -36.377  23.542   3.792  0.00  0.00    +0.030 C 
ATOM     21  C   UNL     1     -36.849  24.847   4.049  0.00  0.00    +0.064 C 
ATOM     22  C   UNL     1     -38.393  23.139   2.520  0.00  0.00    +0.057 C 
ATOM     23  C   UNL     1     -35.140  23.121   4.307  0.00  0.00    +0.057 C 
ATOM     24  C   UNL     1     -36.055  25.690   4.822  0.00  0.00    +0.083 C 
ATOM     25  C   UNL     1     -38.771  24.431   2.824  0.00  0.00    +0.102 C 
ATOM     26  C   UNL     1     -34.366  23.984   5.077  0.00  0.00    -0.014 C 
ATOM     27  C   UNL     1     -34.825  25.270   5.335  0.00  0.00    +0.037 C 
ENDBRANCH  16  19
ENDBRANCH  15  16
ENDBRANCH   1  15
TORSDOF 11
ENDMDL
MODEL 7
REMARK VINA RESULT:      -5.0      1.932      2.835
REMARK  Name = 198229
REMARK  11 active torsions:
REMARK  status: ('A' for Active; 'I' for Inactive)
REMARK    1  A    between atoms: C_1  and  C_2
REMARK    2  A    between atoms: C_1  and  C_15
REMARK    3  A    between atoms: C_2  and  C_3
REMARK    4  A    between atoms: C_3  and  C_4
REMARK    5  A    between atoms: C_4  and  N_5
REMARK    6  A    between atoms: N_5  and  C_8
REMARK    7  A    between atoms: C_8  and  C_9
REMARK    8  A    between atoms: C_9  and  S_10
REMARK    9  A    between atoms: S_10  and  S_11
REMARK   10  A    between atoms: C_15  and  O_16
REMARK   11  A    between atoms: O_16  and  C_19
REMARK                            x       y       z     vdW  Elec       q    Type
REMARK                         _______ _______ _______ _____ _____    ______ ____
ROOT
ATOM      1  C   UNL     1     -34.357  25.194   5.057  0.00  0.00    +0.047 C 
ENDROOT
BRANCH   1   2
ATOM      2  C   UNL     1     -33.801  26.467   4.412  0.00  0.00    +0.002 C 
BRANCH   2   3
ATOM      3  C   UNL     1     -34.145  26.531   2.922  0.00  0.00    -0.023 C 
BRANCH   3   4
ATOM      4  C   UNL     1     -35.102  27.683   2.625  0.00  0.00    -0.082 C 
BRANCH   4   5
ATOM      5  N   UNL     1     -34.849  28.798   3.530  0.00  0.00    +0.384 N 
ATOM      6  H   UNL     1     -33.993  28.616   4.052  0.00  0.00    -0.084 HD
ATOM      7  H   UNL     1     -35.642  28.889   4.165  0.00  0.00    -0.084 HD
BRANCH   5   8
ATOM      8  C   UNL     1     -34.700  30.043   2.790  0.00  0.00    -0.068 C 
BRANCH   8   9
ATOM      9  C   UNL     1     -33.470  30.795   3.285  0.00  0.00    +0.058 C 
BRANCH   9  10
ATOM     10  S   UNL     1     -31.957  29.904   2.822  0.00  0.00    +0.012 S 
BRANCH  10  11
ATOM     11  S   UNL     1     -31.167  29.366   4.686  0.00  0.00    +0.066 S 
ATOM     12  O   UNL     1     -32.459  29.351   5.679  0.00  0.00    -0.059 OA
ATOM     13  O   UNL     1     -30.675  28.005   4.572  0.00  0.00    -0.059 OA
ATOM     14  O   UNL     1     -30.289  30.440   5.111  0.00  0.00    -0.059 OA
ENDBRANCH  10  11
ENDBRANCH   9  10
ENDBRANCH   8   9
ENDBRANCH   5   8
ENDBRANCH   4   5
ENDBRANCH   3   4
ENDBRANCH   2   3
ENDBRANCH   1   2
BRANCH   1  15
ATOM     15  C   UNL     1     -35.824  25.337   5.444  0.00  0.00    +0.205 C 
BRANCH  15  16
ATOM     16  O   UNL     1     -36.538  24.162   5.086  0.00  0.00    -0.476 OA
BRANCH  16  19
ATOM     17 CL   UNL     1     -35.173  19.319   0.590  0.00  0.00    -0.087 Cl
ATOM     18  N   UNL     1     -37.549  23.776   1.077  0.00  0.00    -0.248 NA
ATOM     19  C   UNL     1     -36.861  24.013   3.762  0.00  0.00    +0.138 C 
ATOM     20  C   UNL     1     -36.450  22.890   3.031  0.00  0.00    +0.030 C 
ATOM     21  C   UNL     1     -36.821  22.812   1.671  0.00  0.00    +0.064 C 
ATOM     22  C   UNL     1     -37.610  25.008   3.153  0.00  0.00    +0.057 C 
ATOM     23  C   UNL     1     -35.690  21.865   3.618  0.00  0.00    +0.057 C 
ATOM     24  C   UNL     1     -36.413  21.697   0.944  0.00  0.00    +0.083 C 
ATOM     25  C   UNL     1     -37.925  24.843   1.819  0.00  0.00    +0.102 C 
ATOM     26  C   UNL     1     -35.295  20.762   2.868  0.00  0.00    -0.014 C 
ATOM     27  C   UNL     1     -35.657  20.678   1.529  0.00  0.00    +0.037 C 
ENDBRANCH  16  19
ENDBRANCH  15  16
ENDBRANCH   1  15
TORSDOF 11
ENDMDL
MODEL 8
REMARK VINA RESULT:      -5.0      4.566      8.010
REMARK  Name = 198229
REMARK  11 active torsions:
REMARK  status: ('A' for Active; 'I' for Inactive)
REMARK    1  A    between atoms: C_1  and  C_2
REMARK    2  A    between atoms: C_1  and  C_15
REMARK    3  A    between atoms: C_2  and  C_3
REMARK    4  A    between atoms: C_3  and  C_4
REMARK    5  A    between atoms: C_4  and  N_5
REMARK    6  A    between atoms: N_5  and  C_8
REMARK    7  A    between atoms: C_8  and  C_9
REMARK    8  A    between atoms: C_9  and  S_10
REMARK    9  A    between atoms: S_10  and  S_11
REMARK   10  A    between atoms: C_15  and  O_16
REMARK   11  A    between atoms: O_16  and  C_19
REMARK                            x       y       z     vdW  Elec       q    Type
REMARK                         _______ _______ _______ _____ _____    ______ ____
ROOT
ATOM      1  C   UNL     1     -35.563  22.115   3.062  0.00  0.00    +0.047 C 
ENDROOT
BRANCH   1   2
ATOM      2  C   UNL     1     -35.286  20.625   2.846  0.00  0.00    +0.002 C 
BRANCH   2   3
ATOM      3  C   UNL     1     -34.606  20.376   1.497  0.00  0.00    -0.023 C 
BRANCH   3   4
ATOM      4  C   UNL     1     -35.267  19.218   0.751  0.00  0.00    -0.082 C 
BRANCH   4   5
ATOM      5  N   UNL     1     -36.677  19.124   1.112  0.00  0.00    +0.384 N 
ATOM      6  H   UNL     1     -36.869  19.766   1.880  0.00  0.00    -0.084 HD
ATOM      7  H   UNL     1     -36.879  18.164   1.389  0.00  0.00    -0.084 HD
BRANCH   5   8
ATOM      8  C   UNL     1     -37.526  19.469  -0.020  0.00  0.00    -0.068 C 
BRANCH   8   9
ATOM      9  C   UNL     1     -37.901  20.945   0.046  0.00  0.00    +0.058 C 
BRANCH   9  10
ATOM     10  S   UNL     1     -39.692  21.151  -0.181  0.00  0.00    +0.012 S 
BRANCH  10  11
ATOM     11  S   UNL     1     -40.066  22.948   0.830  0.00  0.00    +0.066 S 
ATOM     12  O   UNL     1     -41.589  23.338   0.400  0.00  0.00    -0.059 OA
ATOM     13  O   UNL     1     -40.064  22.655   2.250  0.00  0.00    -0.059 OA
ATOM     14  O   UNL     1     -39.175  23.950   0.276  0.00  0.00    -0.059 OA
ENDBRANCH  10  11
ENDBRANCH   9  10
ENDBRANCH   8   9
ENDBRANCH   5   8
ENDBRANCH   4   5
ENDBRANCH   3   4
ENDBRANCH   2   3
ENDBRANCH   1   2
BRANCH   1  15
ATOM     15  C   UNL     1     -35.937  22.429   4.505  0.00  0.00    +0.205 C 
BRANCH  15  16
ATOM     16  O   UNL     1     -36.596  23.685   4.574  0.00  0.00    -0.476 OA
BRANCH  16  19
ATOM     17 CL   UNL     1     -36.242  29.140   0.617  0.00  0.00    -0.087 Cl
ATOM     18  N   UNL     1     -34.149  27.036   4.733  0.00  0.00    -0.248 NA
ATOM     19  C   UNL     1     -35.800  24.801   4.607  0.00  0.00    +0.138 C 
ATOM     20  C   UNL     1     -35.924  25.817   3.650  0.00  0.00    +0.030 C 
ATOM     21  C   UNL     1     -35.065  26.933   3.752  0.00  0.00    +0.064 C 
ATOM     22  C   UNL     1     -34.856  24.905   5.618  0.00  0.00    +0.057 C 
ATOM     23  C   UNL     1     -36.869  25.743   2.614  0.00  0.00    +0.057 C 
ATOM     24  C   UNL     1     -35.188  27.943   2.802  0.00  0.00    +0.083 C 
ATOM     25  C   UNL     1     -34.062  26.033   5.637  0.00  0.00    +0.102 C 
ATOM     26  C   UNL     1     -36.970  26.766   1.677  0.00  0.00    -0.014 C 
ATOM     27  C   UNL     1     -36.128  27.868   1.771  0.00  0.00    +0.037 C 
ENDBRANCH  16  19
ENDBRANCH  15  16
ENDBRANCH   1  15
TORSDOF 11
ENDMDL
MODEL 9
REMARK VINA RESULT:      -5.0      5.069      8.763
REMARK  Name = 198229
REMARK  11 active torsions:
REMARK  status: ('A' for Active; 'I' for Inactive)
REMARK    1  A    between atoms: C_1  and  C_2
REMARK    2  A    between atoms: C_1  and  C_15
REMARK    3  A    between atoms: C_2  and  C_3
REMARK    4  A    between atoms: C_3  and  C_4
REMARK    5  A    between atoms: C_4  and  N_5
REMARK    6  A    between atoms: N_5  and  C_8
REMARK    7  A    between atoms: C_8  and  C_9
REMARK    8  A    between atoms: C_9  and  S_10
REMARK    9  A    between atoms: S_10  and  S_11
REMARK   10  A    between atoms: C_15  and  O_16
REMARK   11  A    between atoms: O_16  and  C_19
REMARK                            x       y       z     vdW  Elec       q    Type
REMARK                         _______ _______ _______ _____ _____    ______ ____
ROOT
ATOM      1  C   UNL     1     -34.058  24.671   5.135  0.00  0.00    +0.047 C 
ENDROOT
BRANCH   1   2
ATOM      2  C   UNL     1     -35.385  24.103   5.646  0.00  0.00    +0.002 C 
BRANCH   2   3
ATOM      3  C   UNL     1     -35.438  22.582   5.483  0.00  0.00    -0.023 C 
BRANCH   3   4
ATOM      4  C   UNL     1     -35.908  22.194   4.082  0.00  0.00    -0.082 C 
BRANCH   4   5
ATOM      5  N   UNL     1     -37.105  22.944   3.724  0.00  0.00    +0.384 N 
ATOM      6  H   UNL     1     -36.855  23.921   3.572  0.00  0.00    -0.084 HD
ATOM      7  H   UNL     1     -37.781  22.863   4.484  0.00  0.00    -0.084 HD
BRANCH   5   8
ATOM      8  C   UNL     1     -37.707  22.413   2.508  0.00  0.00    -0.068 C 
BRANCH   8   9
ATOM      9  C   UNL     1     -39.006  23.150   2.209  0.00  0.00    +0.058 C 
BRANCH   9  10
ATOM     10  S   UNL     1     -38.711  24.487   1.015  0.00  0.00    +0.012 S 
BRANCH  10  11
ATOM     11  S   UNL     1     -38.424  26.145   2.264  0.00  0.00    +0.066 S 
ATOM     12  O   UNL     1     -38.227  27.392   1.233  0.00  0.00    -0.059 OA
ATOM     13  O   UNL     1     -39.659  26.359   2.993  0.00  0.00    -0.059 OA
ATOM     14  O   UNL     1     -37.171  25.946   2.967  0.00  0.00    -0.059 OA
ENDBRANCH  10  11
ENDBRANCH   9  10
ENDBRANCH   8   9
ENDBRANCH   5   8
ENDBRANCH   4   5
ENDBRANCH   3   4
ENDBRANCH   2   3
ENDBRANCH   1   2
BRANCH   1  15
ATOM     15  C   UNL     1     -34.183  26.128   4.705  0.00  0.00    +0.205 C 
BRANCH  15  16
ATOM     16  O   UNL     1     -32.908  26.637   4.341  0.00  0.00    -0.476 OA
BRANCH  16  19
ATOM     17 CL   UNL     1     -32.423  32.874   1.808  0.00  0.00    -0.087 Cl
ATOM     18  N   UNL     1     -31.774  30.229   6.089  0.00  0.00    -0.248 NA
ATOM     19  C   UNL     1     -32.538  27.835   4.897  0.00  0.00    +0.138 C 
ATOM     20  C   UNL     1     -32.519  29.017   4.144  0.00  0.00    +0.030 C 
ATOM     21  C   UNL     1     -32.125  30.208   4.790  0.00  0.00    +0.064 C 
ATOM     22  C   UNL     1     -32.176  27.853   6.236  0.00  0.00    +0.057 C 
ATOM     23  C   UNL     1     -32.879  29.032   2.786  0.00  0.00    +0.057 C 
ATOM     24  C   UNL     1     -32.106  31.383   4.042  0.00  0.00    +0.083 C 
ATOM     25  C   UNL     1     -31.805  29.066   6.780  0.00  0.00    +0.102 C 
ATOM     26  C   UNL     1     -32.851  30.220   2.063  0.00  0.00    -0.014 C 
ATOM     27  C   UNL     1     -32.464  31.397   2.692  0.00  0.00    +0.037 C 
ENDBRANCH  16  19
ENDBRANCH  15  16
ENDBRANCH   1  15
TORSDOF 11
ENDMDL
