MODEL 1
REMARK VINA RESULT:      -5.2      0.000      0.000
REMARK  Name = 194429
REMARK  9 active torsions:
REMARK  status: ('A' for Active; 'I' for Inactive)
REMARK    1  A    between atoms: N_3  and  C_13
REMARK    2  A    between atoms: C_4  and  C_6
REMARK    3  A    between atoms: C_5  and  C_19
REMARK    4  A    between atoms: C_6  and  N_9
REMARK    5  A    between atoms: C_13  and  C_16
REMARK    6  A    between atoms: C_16  and  O_17
REMARK    7  A    between atoms: C_19  and  N_22
REMARK    8  A    between atoms: C_23  and  O_25
REMARK    9  A    between atoms: O_25  and  C_26
REMARK                            x       y       z     vdW  Elec       q    Type
REMARK                         _______ _______ _______ _____ _____    ______ ____
ROOT
ATOM      1  O   UNL     1     -39.723  19.566  -0.664  0.00  0.00    -0.277 OA
ATOM      2  O   UNL     1     -36.634  19.744   1.874  0.00  0.00    -0.273 OA
ATOM      3  N   UNL     1     -38.062  20.792   0.364  0.00  0.00    -0.221 N 
ATOM      4  C   UNL     1     -38.534  19.688  -0.358  0.00  0.00    +0.213 C 
ATOM      5  C   UNL     1     -36.960  20.752   1.241  0.00  0.00    +0.250 C 
ENDROOT
BRANCH   4   6
ATOM      6  C   UNL     1     -37.458  18.679  -0.825  0.00  0.00    +0.022 C 
ATOM      7  C   UNL     1     -37.975  17.832  -1.990  0.00  0.00    -0.013 C 
ATOM      8  C   UNL     1     -36.118  19.334  -1.182  0.00  0.00    -0.013 C 
BRANCH   6   9
ATOM      9  N   UNL     1     -37.231  17.783   0.320  0.00  0.00    +0.388 N 
ATOM     10  H   UNL     1     -36.229  17.687   0.484  0.00  0.00    -0.088 HD
ATOM     11  H   UNL     1     -37.631  16.867   0.120  0.00  0.00    -0.088 HD
ATOM     12  H   UNL     1     -37.675  18.173   1.151  0.00  0.00    -0.088 HD
ENDBRANCH   6   9
ENDBRANCH   4   6
BRANCH   3  13
ATOM     13  C   UNL     1     -38.774  22.054   0.226  0.00  0.00    +0.181 C 
ATOM     14  C   UNL     1     -39.200  22.258  -1.219  0.00  0.00    +0.034 C 
BRANCH  13  16
ATOM     15  O   UNL     1     -40.096  21.426   2.147  0.00  0.00    -0.248 OA
ATOM     16  C   UNL     1     -39.980  22.132   1.150  0.00  0.00    +0.336 C 
BRANCH  16  17
ATOM     17  O   UNL     1     -40.883  23.067   0.743  0.00  0.00    -0.443 OA
ATOM     18  C   UNL     1     -40.809  24.334   1.405  0.00  0.00    +0.256 C 
ENDBRANCH  16  17
ENDBRANCH  13  16
ENDBRANCH   3  13
BRANCH   5  19
ATOM     19  C   UNL     1     -36.138  22.036   1.345  0.00  0.00    +0.152 C 
ATOM     20  C   UNL     1     -34.668  21.740   1.085  0.00  0.00    +0.031 C 
BRANCH  19  22
ATOM     21  O   UNL     1     -37.180  24.640   2.101  0.00  0.00    -0.226 OA
ATOM     22  N   UNL     1     -36.331  22.559   2.676  0.00  0.00    -0.264 N 
ATOM     23  C   UNL     1     -36.836  23.816   2.942  0.00  0.00    +0.402 C 
ATOM     24  H   UNL     1     -36.088  21.985   3.438  0.00  0.00    +0.153 HD
BRANCH  23  25
ATOM     25  O   UNL     1     -36.897  24.013   4.293  0.00  0.00    -0.442 OA
BRANCH  25  26
ATOM     26  C   UNL     1     -35.676  24.424   4.918  0.00  0.00    +0.138 C 
ATOM     27  C   UNL     1     -35.244  23.340   5.904  0.00  0.00    +0.044 C 
ATOM     28  C   UNL     1     -35.955  25.736   5.651  0.00  0.00    +0.044 C 
ATOM     29  C   UNL     1     -34.619  24.629   3.835  0.00  0.00    +0.044 C 
ENDBRANCH  25  26
ENDBRANCH  23  25
ENDBRANCH  19  22
ENDBRANCH   5  19
TORSDOF 9
ENDMDL
MODEL 2
REMARK VINA RESULT:      -5.1      4.350      6.588
REMARK  Name = 194429
REMARK  9 active torsions:
REMARK  status: ('A' for Active; 'I' for Inactive)
REMARK    1  A    between atoms: N_3  and  C_13
REMARK    2  A    between atoms: C_4  and  C_6
REMARK    3  A    between atoms: C_5  and  C_19
REMARK    4  A    between atoms: C_6  and  N_9
REMARK    5  A    between atoms: C_13  and  C_16
REMARK    6  A    between atoms: C_16  and  O_17
REMARK    7  A    between atoms: C_19  and  N_22
REMARK    8  A    between atoms: C_23  and  O_25
REMARK    9  A    between atoms: O_25  and  C_26
REMARK                            x       y       z     vdW  Elec       q    Type
REMARK                         _______ _______ _______ _____ _____    ______ ____
ROOT
ATOM      1  O   UNL     1     -38.514  26.426   1.280  0.00  0.00    -0.277 OA
ATOM      2  O   UNL     1     -36.732  25.908   4.825  0.00  0.00    -0.273 OA
ATOM      3  N   UNL     1     -36.583  26.258   2.529  0.00  0.00    -0.221 N 
ATOM      4  C   UNL     1     -37.844  25.812   2.114  0.00  0.00    +0.213 C 
ATOM      5  C   UNL     1     -36.042  26.025   3.809  0.00  0.00    +0.250 C 
ENDROOT
BRANCH   4   6
ATOM      6  C   UNL     1     -38.304  24.457   2.700  0.00  0.00    +0.022 C 
ATOM      7  C   UNL     1     -39.327  23.785   1.780  0.00  0.00    -0.013 C 
ATOM      8  C   UNL     1     -37.148  23.501   3.015  0.00  0.00    -0.013 C 
BRANCH   6   9
ATOM      9  N   UNL     1     -38.980  24.780   3.967  0.00  0.00    +0.388 N 
ATOM     10  H   UNL     1     -38.725  25.724   4.257  0.00  0.00    -0.088 HD
ATOM     11  H   UNL     1     -38.694  24.115   4.685  0.00  0.00    -0.088 HD
ATOM     12  H   UNL     1     -39.990  24.726   3.838  0.00  0.00    -0.088 HD
ENDBRANCH   6   9
ENDBRANCH   4   6
BRANCH   3  13
ATOM     13  C   UNL     1     -35.792  27.042   1.590  0.00  0.00    +0.181 C 
ATOM     14  C   UNL     1     -36.018  26.540   0.172  0.00  0.00    +0.034 C 
BRANCH  13  16
ATOM     15  O   UNL     1     -36.997  29.057   1.027  0.00  0.00    -0.248 OA
ATOM     16  C   UNL     1     -36.105  28.527   1.683  0.00  0.00    +0.336 C 
BRANCH  16  17
ATOM     17  O   UNL     1     -35.296  29.171   2.570  0.00  0.00    -0.443 OA
ATOM     18  C   UNL     1     -34.493  30.226   2.030  0.00  0.00    +0.256 C 
ENDBRANCH  16  17
ENDBRANCH  13  16
ENDBRANCH   3  13
BRANCH   5  19
ATOM     19  C   UNL     1     -34.522  25.879   3.878  0.00  0.00    +0.152 C 
ATOM     20  C   UNL     1     -34.150  24.679   4.736  0.00  0.00    +0.031 C 
BRANCH  19  22
ATOM     21  O   UNL     1     -31.897  27.055   3.469  0.00  0.00    -0.226 OA
ATOM     22  N   UNL     1     -34.002  27.099   4.445  0.00  0.00    -0.264 N 
ATOM     23  C   UNL     1     -32.734  27.585   4.193  0.00  0.00    +0.402 C 
ATOM     24  H   UNL     1     -34.585  27.615   5.047  0.00  0.00    +0.153 HD
BRANCH  23  25
ATOM     25  O   UNL     1     -32.543  28.754   4.875  0.00  0.00    -0.442 OA
BRANCH  25  26
ATOM     26  C   UNL     1     -31.760  28.658   6.069  0.00  0.00    +0.138 C 
ATOM     27  C   UNL     1     -30.313  28.359   5.680  0.00  0.00    +0.044 C 
ATOM     28  C   UNL     1     -32.337  27.517   6.906  0.00  0.00    +0.044 C 
ATOM     29  C   UNL     1     -31.859  29.982   6.825  0.00  0.00    +0.044 C 
ENDBRANCH  25  26
ENDBRANCH  23  25
ENDBRANCH  19  22
ENDBRANCH   5  19
TORSDOF 9
ENDMDL
MODEL 3
REMARK VINA RESULT:      -5.0      2.627      6.316
REMARK  Name = 194429
REMARK  9 active torsions:
REMARK  status: ('A' for Active; 'I' for Inactive)
REMARK    1  A    between atoms: N_3  and  C_13
REMARK    2  A    between atoms: C_4  and  C_6
REMARK    3  A    between atoms: C_5  and  C_19
REMARK    4  A    between atoms: C_6  and  N_9
REMARK    5  A    between atoms: C_13  and  C_16
REMARK    6  A    between atoms: C_16  and  O_17
REMARK    7  A    between atoms: C_19  and  N_22
REMARK    8  A    between atoms: C_23  and  O_25
REMARK    9  A    between atoms: O_25  and  C_26
REMARK                            x       y       z     vdW  Elec       q    Type
REMARK                         _______ _______ _______ _____ _____    ______ ____
ROOT
ATOM      1  O   UNL     1     -37.767  23.752   3.698  0.00  0.00    -0.277 OA
ATOM      2  O   UNL     1     -36.707  20.163   2.282  0.00  0.00    -0.273 OA
ATOM      3  N   UNL     1     -36.229  22.416   2.619  0.00  0.00    -0.221 N 
ATOM      4  C   UNL     1     -37.518  22.930   2.813  0.00  0.00    +0.213 C 
ATOM      5  C   UNL     1     -35.957  21.129   2.113  0.00  0.00    +0.250 C 
ENDROOT
BRANCH   4   6
ATOM      6  C   UNL     1     -38.586  22.471   1.794  0.00  0.00    +0.022 C 
ATOM      7  C   UNL     1     -39.811  23.387   1.838  0.00  0.00    -0.013 C 
ATOM      8  C   UNL     1     -38.053  22.347   0.361  0.00  0.00    -0.013 C 
BRANCH   6   9
ATOM      9  N   UNL     1     -39.007  21.132   2.235  0.00  0.00    +0.388 N 
ATOM     10  H   UNL     1     -39.656  20.737   1.554  0.00  0.00    -0.088 HD
ATOM     11  H   UNL     1     -39.468  21.202   3.142  0.00  0.00    -0.088 HD
ATOM     12  H   UNL     1     -38.190  20.527   2.315  0.00  0.00    -0.088 HD
ENDBRANCH   6   9
ENDBRANCH   4   6
BRANCH   3  13
ATOM     13  C   UNL     1     -35.096  23.251   2.993  0.00  0.00    +0.181 C 
ATOM     14  C   UNL     1     -35.216  24.618   2.338  0.00  0.00    +0.034 C 
BRANCH  13  16
ATOM     15  O   UNL     1     -34.912  24.488   5.059  0.00  0.00    -0.248 OA
ATOM     16  C   UNL     1     -34.970  23.396   4.502  0.00  0.00    +0.336 C 
BRANCH  16  17
ATOM     17  O   UNL     1     -34.941  22.190   5.136  0.00  0.00    -0.443 OA
ATOM     18  C   UNL     1     -35.571  22.147   6.420  0.00  0.00    +0.256 C 
ENDBRANCH  16  17
ENDBRANCH  13  16
ENDBRANCH   3  13
BRANCH   5  19
ATOM     19  C   UNL     1     -34.679  20.989   1.287  0.00  0.00    +0.152 C 
ATOM     20  C   UNL     1     -34.921  21.459  -0.139  0.00  0.00    +0.031 C 
BRANCH  19  22
ATOM     21  O   UNL     1     -32.079  19.830   0.707  0.00  0.00    -0.226 OA
ATOM     22  N   UNL     1     -34.305  19.595   1.315  0.00  0.00    -0.264 N 
ATOM     23  C   UNL     1     -33.038  19.133   1.022  0.00  0.00    +0.402 C 
ATOM     24  H   UNL     1     -34.996  18.936   1.555  0.00  0.00    +0.153 HD
BRANCH  23  25
ATOM     25  O   UNL     1     -33.005  17.772   1.136  0.00  0.00    -0.442 OA
BRANCH  25  26
ATOM     26  C   UNL     1     -32.979  17.044  -0.097  0.00  0.00    +0.138 C 
ATOM     27  C   UNL     1     -31.596  16.418  -0.264  0.00  0.00    +0.044 C 
ATOM     28  C   UNL     1     -33.258  18.039  -1.222  0.00  0.00    +0.044 C 
ATOM     29  C   UNL     1     -34.063  15.968  -0.050  0.00  0.00    +0.044 C 
ENDBRANCH  25  26
ENDBRANCH  23  25
ENDBRANCH  19  22
ENDBRANCH   5  19
TORSDOF 9
ENDMDL
MODEL 4
REMARK VINA RESULT:      -5.0      2.424      4.097
REMARK  Name = 194429
REMARK  9 active torsions:
REMARK  status: ('A' for Active; 'I' for Inactive)
REMARK    1  A    between atoms: N_3  and  C_13
REMARK    2  A    between atoms: C_4  and  C_6
REMARK    3  A    between atoms: C_5  and  C_19
REMARK    4  A    between atoms: C_6  and  N_9
REMARK    5  A    between atoms: C_13  and  C_16
REMARK    6  A    between atoms: C_16  and  O_17
REMARK    7  A    between atoms: C_19  and  N_22
REMARK    8  A    between atoms: C_23  and  O_25
REMARK    9  A    between atoms: O_25  and  C_26
REMARK                            x       y       z     vdW  Elec       q    Type
REMARK                         _______ _______ _______ _____ _____    ______ ____
ROOT
ATOM      1  O   UNL     1     -42.250  24.992   0.415  0.00  0.00    -0.277 OA
ATOM      2  O   UNL     1     -40.276  21.628   1.309  0.00  0.00    -0.273 OA
ATOM      3  N   UNL     1     -40.269  23.920   0.907  0.00  0.00    -0.221 N 
ATOM      4  C   UNL     1     -41.466  24.065   0.195  0.00  0.00    +0.213 C 
ATOM      5  C   UNL     1     -39.650  22.683   1.174  0.00  0.00    +0.250 C 
ENDROOT
BRANCH   4   6
ATOM      6  C   UNL     1     -41.701  23.043  -0.942  0.00  0.00    +0.022 C 
ATOM      7  C   UNL     1     -42.663  23.605  -1.990  0.00  0.00    -0.013 C 
ATOM      8  C   UNL     1     -40.406  22.552  -1.601  0.00  0.00    -0.013 C 
BRANCH   6   9
ATOM      9  N   UNL     1     -42.350  21.884  -0.307  0.00  0.00    +0.388 N 
ATOM     10  H   UNL     1     -43.298  21.785  -0.670  0.00  0.00    -0.088 HD
ATOM     11  H   UNL     1     -42.386  22.025   0.702  0.00  0.00    -0.088 HD
ATOM     12  H   UNL     1     -41.817  21.040  -0.513  0.00  0.00    -0.088 HD
ENDBRANCH   6   9
ENDBRANCH   4   6
BRANCH   3  13
ATOM     13  C   UNL     1     -39.637  25.122   1.435  0.00  0.00    +0.181 C 
ATOM     14  C   UNL     1     -39.846  26.284   0.477  0.00  0.00    +0.034 C 
BRANCH  13  16
ATOM     15  O   UNL     1     -40.011  24.740   3.790  0.00  0.00    -0.248 OA
ATOM     16  C   UNL     1     -40.157  25.477   2.819  0.00  0.00    +0.336 C 
BRANCH  16  17
ATOM     17  O   UNL     1     -40.778  26.690   2.842  0.00  0.00    -0.443 OA
ATOM     18  C   UNL     1     -41.847  26.824   3.785  0.00  0.00    +0.256 C 
ENDBRANCH  16  17
ENDBRANCH  13  16
ENDBRANCH   3  13
BRANCH   5  19
ATOM     19  C   UNL     1     -38.124  22.698   1.251  0.00  0.00    +0.152 C 
ATOM     20  C   UNL     1     -37.549  21.513   0.488  0.00  0.00    +0.031 C 
BRANCH  19  22
ATOM     21  O   UNL     1     -36.331  24.456   2.712  0.00  0.00    -0.226 OA
ATOM     22  N   UNL     1     -37.767  22.634   2.647  0.00  0.00    -0.264 N 
ATOM     23  C   UNL     1     -36.901  23.518   3.260  0.00  0.00    +0.402 C 
ATOM     24  H   UNL     1     -38.164  21.919   3.194  0.00  0.00    +0.153 HD
BRANCH  23  25
ATOM     25  O   UNL     1     -36.769  23.194   4.582  0.00  0.00    -0.442 OA
BRANCH  25  26
ATOM     26  C   UNL     1     -35.508  22.632   4.962  0.00  0.00    +0.138 C 
ATOM     27  C   UNL     1     -34.442  23.722   4.870  0.00  0.00    +0.044 C 
ATOM     28  C   UNL     1     -35.199  21.496   3.987  0.00  0.00    +0.044 C 
ATOM     29  C   UNL     1     -35.622  22.100   6.389  0.00  0.00    +0.044 C 
ENDBRANCH  25  26
ENDBRANCH  23  25
ENDBRANCH  19  22
ENDBRANCH   5  19
TORSDOF 9
ENDMDL
MODEL 5
REMARK VINA RESULT:      -5.0      2.607      6.190
REMARK  Name = 194429
REMARK  9 active torsions:
REMARK  status: ('A' for Active; 'I' for Inactive)
REMARK    1  A    between atoms: N_3  and  C_13
REMARK    2  A    between atoms: C_4  and  C_6
REMARK    3  A    between atoms: C_5  and  C_19
REMARK    4  A    between atoms: C_6  and  N_9
REMARK    5  A    between atoms: C_13  and  C_16
REMARK    6  A    between atoms: C_16  and  O_17
REMARK    7  A    between atoms: C_19  and  N_22
REMARK    8  A    between atoms: C_23  and  O_25
REMARK    9  A    between atoms: O_25  and  C_26
REMARK                            x       y       z     vdW  Elec       q    Type
REMARK                         _______ _______ _______ _____ _____    ______ ____
ROOT
ATOM      1  O   UNL     1     -36.840  26.832   1.976  0.00  0.00    -0.277 OA
ATOM      2  O   UNL     1     -34.331  23.904   3.048  0.00  0.00    -0.273 OA
ATOM      3  N   UNL     1     -36.491  24.765   2.937  0.00  0.00    -0.221 N 
ATOM      4  C   UNL     1     -36.220  26.130   2.779  0.00  0.00    +0.213 C 
ATOM      5  C   UNL     1     -35.532  23.806   3.318  0.00  0.00    +0.250 C 
ENDROOT
BRANCH   4   6
ATOM      6  C   UNL     1     -35.160  26.721   3.738  0.00  0.00    +0.022 C 
ATOM      7  C   UNL     1     -35.424  26.281   5.180  0.00  0.00    -0.013 C 
ATOM      8  C   UNL     1     -33.717  26.402   3.328  0.00  0.00    -0.013 C 
BRANCH   6   9
ATOM      9  N   UNL     1     -35.335  28.181   3.672  0.00  0.00    +0.388 N 
ATOM     10  H   UNL     1     -36.271  28.396   3.328  0.00  0.00    -0.088 HD
ATOM     11  H   UNL     1     -34.642  28.579   3.039  0.00  0.00    -0.088 HD
ATOM     12  H   UNL     1     -35.215  28.581   4.602  0.00  0.00    -0.088 HD
ENDBRANCH   6   9
ENDBRANCH   4   6
BRANCH   3  13
ATOM     13  C   UNL     1     -37.842  24.299   2.658  0.00  0.00    +0.181 C 
ATOM     14  C   UNL     1     -38.853  25.146   3.414  0.00  0.00    +0.034 C 
BRANCH  13  16
ATOM     15  O   UNL     1     -37.362  23.890   0.326  0.00  0.00    -0.248 OA
ATOM     16  C   UNL     1     -38.151  24.308   1.169  0.00  0.00    +0.336 C 
BRANCH  16  17
ATOM     17  O   UNL     1     -39.387  24.817   0.901  0.00  0.00    -0.443 OA
ATOM     18  C   UNL     1     -39.465  25.704  -0.220  0.00  0.00    +0.256 C 
ENDBRANCH  16  17
ENDBRANCH  13  16
ENDBRANCH   3  13
BRANCH   5  19
ATOM     19  C   UNL     1     -36.051  22.627   4.140  0.00  0.00    +0.152 C 
ATOM     20  C   UNL     1     -35.682  22.805   5.605  0.00  0.00    +0.031 C 
BRANCH  19  22
ATOM     21  O   UNL     1     -37.000  21.002   1.926  0.00  0.00    -0.226 OA
ATOM     22  N   UNL     1     -35.450  21.432   3.598  0.00  0.00    -0.264 N 
ATOM     23  C   UNL     1     -35.974  20.721   2.537  0.00  0.00    +0.402 C 
ATOM     24  H   UNL     1     -34.617  21.106   4.010  0.00  0.00    +0.153 HD
BRANCH  23  25
ATOM     25  O   UNL     1     -35.176  19.645   2.263  0.00  0.00    -0.442 OA
BRANCH  25  26
ATOM     26  C   UNL     1     -34.428  19.720   1.045  0.00  0.00    +0.138 C 
ATOM     27  C   UNL     1     -35.261  19.103  -0.077  0.00  0.00    +0.044 C 
ATOM     28  C   UNL     1     -33.136  18.929   1.252  0.00  0.00    +0.044 C 
ATOM     29  C   UNL     1     -34.119  21.187   0.752  0.00  0.00    +0.044 C 
ENDBRANCH  25  26
ENDBRANCH  23  25
ENDBRANCH  19  22
ENDBRANCH   5  19
TORSDOF 9
ENDMDL
MODEL 6
REMARK VINA RESULT:      -4.9      4.535      7.198
REMARK  Name = 194429
REMARK  9 active torsions:
REMARK  status: ('A' for Active; 'I' for Inactive)
REMARK    1  A    between atoms: N_3  and  C_13
REMARK    2  A    between atoms: C_4  and  C_6
REMARK    3  A    between atoms: C_5  and  C_19
REMARK    4  A    between atoms: C_6  and  N_9
REMARK    5  A    between atoms: C_13  and  C_16
REMARK    6  A    between atoms: C_16  and  O_17
REMARK    7  A    between atoms: C_19  and  N_22
REMARK    8  A    between atoms: C_23  and  O_25
REMARK    9  A    between atoms: O_25  and  C_26
REMARK                            x       y       z     vdW  Elec       q    Type
REMARK                         _______ _______ _______ _____ _____    ______ ____
ROOT
ATOM      1  O   UNL     1     -36.516  24.976   1.359  0.00  0.00    -0.277 OA
ATOM      2  O   UNL     1     -36.009  26.734   4.917  0.00  0.00    -0.273 OA
ATOM      3  N   UNL     1     -35.108  25.851   2.962  0.00  0.00    -0.221 N 
ATOM      4  C   UNL     1     -36.159  25.027   2.539  0.00  0.00    +0.213 C 
ATOM      5  C   UNL     1     -35.021  26.429   4.244  0.00  0.00    +0.250 C 
ENDROOT
BRANCH   4   6
ATOM      6  C   UNL     1     -36.783  24.121   3.625  0.00  0.00    +0.022 C 
ATOM      7  C   UNL     1     -37.391  22.863   3.002  0.00  0.00    -0.013 C 
ATOM      8  C   UNL     1     -35.809  23.753   4.751  0.00  0.00    -0.013 C 
BRANCH   6   9
ATOM      9  N   UNL     1     -37.878  24.907   4.217  0.00  0.00    +0.388 N 
ATOM     10  H   UNL     1     -38.471  24.296   4.779  0.00  0.00    -0.088 HD
ATOM     11  H   UNL     1     -38.434  25.329   3.474  0.00  0.00    -0.088 HD
ATOM     12  H   UNL     1     -37.489  25.641   4.809  0.00  0.00    -0.088 HD
ENDBRANCH   6   9
ENDBRANCH   4   6
BRANCH   3  13
ATOM     13  C   UNL     1     -34.053  26.158   2.006  0.00  0.00    +0.181 C 
ATOM     14  C   UNL     1     -33.675  24.909   1.226  0.00  0.00    +0.034 C 
BRANCH  13  16
ATOM     15  O   UNL     1     -34.573  27.104  -0.154  0.00  0.00    -0.248 OA
ATOM     16  C   UNL     1     -34.453  27.276   1.055  0.00  0.00    +0.336 C 
BRANCH  16  17
ATOM     17  O   UNL     1     -34.666  28.455   1.704  0.00  0.00    -0.443 OA
ATOM     18  C   UNL     1     -35.940  29.068   1.480  0.00  0.00    +0.256 C 
ENDBRANCH  16  17
ENDBRANCH  13  16
ENDBRANCH   3  13
BRANCH   5  19
ATOM     19  C   UNL     1     -33.610  26.627   4.796  0.00  0.00    +0.152 C 
ATOM     20  C   UNL     1     -33.597  26.388   6.299  0.00  0.00    +0.031 C 
BRANCH  19  22
ATOM     21  O   UNL     1     -31.004  27.571   3.927  0.00  0.00    -0.226 OA
ATOM     22  N   UNL     1     -33.218  27.981   4.486  0.00  0.00    -0.264 N 
ATOM     23  C   UNL     1     -31.948  28.338   4.077  0.00  0.00    +0.402 C 
ATOM     24  H   UNL     1     -33.895  28.690   4.571  0.00  0.00    +0.153 HD
BRANCH  23  25
ATOM     25  O   UNL     1     -31.895  29.687   3.863  0.00  0.00    -0.442 OA
BRANCH  25  26
ATOM     26  C   UNL     1     -31.140  30.441   4.818  0.00  0.00    +0.138 C 
ATOM     27  C   UNL     1     -31.785  30.269   6.193  0.00  0.00    +0.044 C 
ATOM     28  C   UNL     1     -31.182  31.905   4.384  0.00  0.00    +0.044 C 
ATOM     29  C   UNL     1     -29.703  29.922   4.821  0.00  0.00    +0.044 C 
ENDBRANCH  25  26
ENDBRANCH  23  25
ENDBRANCH  19  22
ENDBRANCH   5  19
TORSDOF 9
ENDMDL
MODEL 7
REMARK VINA RESULT:      -4.8      3.476      6.274
REMARK  Name = 194429
REMARK  9 active torsions:
REMARK  status: ('A' for Active; 'I' for Inactive)
REMARK    1  A    between atoms: N_3  and  C_13
REMARK    2  A    between atoms: C_4  and  C_6
REMARK    3  A    between atoms: C_5  and  C_19
REMARK    4  A    between atoms: C_6  and  N_9
REMARK    5  A    between atoms: C_13  and  C_16
REMARK    6  A    between atoms: C_16  and  O_17
REMARK    7  A    between atoms: C_19  and  N_22
REMARK    8  A    between atoms: C_23  and  O_25
REMARK    9  A    between atoms: O_25  and  C_26
REMARK                            x       y       z     vdW  Elec       q    Type
REMARK                         _______ _______ _______ _____ _____    ______ ____
ROOT
ATOM      1  O   UNL     1     -37.546  23.206   1.251  0.00  0.00    -0.277 OA
ATOM      2  O   UNL     1     -36.302  26.721   2.703  0.00  0.00    -0.273 OA
ATOM      3  N   UNL     1     -36.198  24.396   2.695  0.00  0.00    -0.221 N 
ATOM      4  C   UNL     1     -37.433  24.081   2.113  0.00  0.00    +0.213 C 
ATOM      5  C   UNL     1     -35.852  25.673   3.177  0.00  0.00    +0.250 C 
ENDROOT
BRANCH   4   6
ATOM      6  C   UNL     1     -38.656  24.836   2.682  0.00  0.00    +0.022 C 
ATOM      7  C   UNL     1     -38.847  26.178   1.972  0.00  0.00    -0.013 C 
ATOM      8  C   UNL     1     -39.952  24.016   2.650  0.00  0.00    -0.013 C 
BRANCH   6   9
ATOM      9  N   UNL     1     -38.332  25.112   4.091  0.00  0.00    +0.388 N 
ATOM     10  H   UNL     1     -37.541  25.754   4.139  0.00  0.00    -0.088 HD
ATOM     11  H   UNL     1     -38.092  24.240   4.562  0.00  0.00    -0.088 HD
ATOM     12  H   UNL     1     -39.139  25.534   4.550  0.00  0.00    -0.088 HD
ENDBRANCH   6   9
ENDBRANCH   4   6
BRANCH   3  13
ATOM     13  C   UNL     1     -35.193  23.345   2.778  0.00  0.00    +0.181 C 
ATOM     14  C   UNL     1     -35.767  22.130   3.492  0.00  0.00    +0.034 C 
BRANCH  13  16
ATOM     15  O   UNL     1     -34.271  23.777   0.588  0.00  0.00    -0.248 OA
ATOM     16  C   UNL     1     -34.665  22.952   1.407  0.00  0.00    +0.336 C 
BRANCH  16  17
ATOM     17  O   UNL     1     -34.676  21.603   1.216  0.00  0.00    -0.443 OA
ATOM     18  C   UNL     1     -33.653  21.087   0.357  0.00  0.00    +0.256 C 
ENDBRANCH  16  17
ENDBRANCH  13  16
ENDBRANCH   3  13
BRANCH   5  19
ATOM     19  C   UNL     1     -34.900  25.705   4.373  0.00  0.00    +0.152 C 
ATOM     20  C   UNL     1     -35.641  25.312   5.642  0.00  0.00    +0.031 C 
BRANCH  19  22
ATOM     21  O   UNL     1     -32.249  26.651   3.656  0.00  0.00    -0.226 OA
ATOM     22  N   UNL     1     -34.385  27.048   4.471  0.00  0.00    -0.264 N 
ATOM     23  C   UNL     1     -33.103  27.409   4.105  0.00  0.00    +0.402 C 
ATOM     24  H   UNL     1     -34.981  27.749   4.821  0.00  0.00    +0.153 HD
BRANCH  23  25
ATOM     25  O   UNL     1     -32.921  28.747   4.317  0.00  0.00    -0.442 OA
BRANCH  25  26
ATOM     26  C   UNL     1     -31.912  29.094   5.272  0.00  0.00    +0.138 C 
ATOM     27  C   UNL     1     -32.102  30.557   5.671  0.00  0.00    +0.044 C 
ATOM     28  C   UNL     1     -30.555  28.893   4.599  0.00  0.00    +0.044 C 
ATOM     29  C   UNL     1     -32.053  28.176   6.485  0.00  0.00    +0.044 C 
ENDBRANCH  25  26
ENDBRANCH  23  25
ENDBRANCH  19  22
ENDBRANCH   5  19
TORSDOF 9
ENDMDL
MODEL 8
REMARK VINA RESULT:      -4.8      8.442     11.938
REMARK  Name = 194429
REMARK  9 active torsions:
REMARK  status: ('A' for Active; 'I' for Inactive)
REMARK    1  A    between atoms: N_3  and  C_13
REMARK    2  A    between atoms: C_4  and  C_6
REMARK    3  A    between atoms: C_5  and  C_19
REMARK    4  A    between atoms: C_6  and  N_9
REMARK    5  A    between atoms: C_13  and  C_16
REMARK    6  A    between atoms: C_16  and  O_17
REMARK    7  A    between atoms: C_19  and  N_22
REMARK    8  A    between atoms: C_23  and  O_25
REMARK    9  A    between atoms: O_25  and  C_26
REMARK                            x       y       z     vdW  Elec       q    Type
REMARK                         _______ _______ _______ _____ _____    ______ ____
ROOT
ATOM      1  O   UNL     1     -45.754  32.218   6.601  0.00  0.00    -0.277 OA
ATOM      2  O   UNL     1     -42.814  29.660   5.695  0.00  0.00    -0.273 OA
ATOM      3  N   UNL     1     -44.943  30.505   5.287  0.00  0.00    -0.221 N 
ATOM      4  C   UNL     1     -45.227  31.106   6.521  0.00  0.00    +0.213 C 
ATOM      5  C   UNL     1     -43.875  29.613   5.068  0.00  0.00    +0.250 C 
ENDROOT
BRANCH   4   6
ATOM      6  C   UNL     1     -44.920  30.251   7.772  0.00  0.00    +0.022 C 
ATOM      7  C   UNL     1     -45.650  30.800   9.000  0.00  0.00    -0.013 C 
ATOM      8  C   UNL     1     -45.220  28.759   7.584  0.00  0.00    -0.013 C 
BRANCH   6   9
ATOM      9  N   UNL     1     -43.473  30.393   8.005  0.00  0.00    +0.388 N 
ATOM     10  H   UNL     1     -42.962  30.035   7.199  0.00  0.00    -0.088 HD
ATOM     11  H   UNL     1     -43.209  29.866   8.837  0.00  0.00    -0.088 HD
ATOM     12  H   UNL     1     -43.246  31.378   8.141  0.00  0.00    -0.088 HD
ENDBRANCH   6   9
ENDBRANCH   4   6
BRANCH   3  13
ATOM     13  C   UNL     1     -45.786  30.848   4.150  0.00  0.00    +0.181 C 
ATOM     14  C   UNL     1     -47.249  30.625   4.498  0.00  0.00    +0.034 C 
BRANCH  13  16
ATOM     15  O   UNL     1     -46.489  33.042   3.425  0.00  0.00    -0.248 OA
ATOM     16  C   UNL     1     -45.563  32.280   3.688  0.00  0.00    +0.336 C 
BRANCH  16  17
ATOM     17  O   UNL     1     -44.240  32.599   3.615  0.00  0.00    -0.443 OA
ATOM     18  C   UNL     1     -43.881  33.884   4.133  0.00  0.00    +0.256 C 
ENDBRANCH  16  17
ENDBRANCH  13  16
ENDBRANCH   3  13
BRANCH   5  19
ATOM     19  C   UNL     1     -44.112  28.528   4.017  0.00  0.00    +0.152 C 
ATOM     20  C   UNL     1     -44.713  27.291   4.667  0.00  0.00    +0.031 C 
BRANCH  19  22
ATOM     21  O   UNL     1     -43.500  28.180   1.199  0.00  0.00    -0.226 OA
ATOM     22  N   UNL     1     -42.833  28.228   3.420  0.00  0.00    -0.264 N 
ATOM     23  C   UNL     1     -42.635  28.079   2.062  0.00  0.00    +0.402 C 
ATOM     24  H   UNL     1     -42.057  28.122   4.017  0.00  0.00    +0.153 HD
BRANCH  23  25
ATOM     25  O   UNL     1     -41.320  27.799   1.815  0.00  0.00    -0.442 OA
BRANCH  25  26
ATOM     26  C   UNL     1     -40.988  26.411   1.706  0.00  0.00    +0.138 C 
ATOM     27  C   UNL     1     -40.265  25.981   2.982  0.00  0.00    +0.044 C 
ATOM     28  C   UNL     1     -40.075  26.251   0.492  0.00  0.00    +0.044 C 
ATOM     29  C   UNL     1     -42.279  25.615   1.517  0.00  0.00    +0.044 C 
ENDBRANCH  25  26
ENDBRANCH  23  25
ENDBRANCH  19  22
ENDBRANCH   5  19
TORSDOF 9
ENDMDL
MODEL 9
REMARK VINA RESULT:      -4.8      2.406      5.955
REMARK  Name = 194429
REMARK  9 active torsions:
REMARK  status: ('A' for Active; 'I' for Inactive)
REMARK    1  A    between atoms: N_3  and  C_13
REMARK    2  A    between atoms: C_4  and  C_6
REMARK    3  A    between atoms: C_5  and  C_19
REMARK    4  A    between atoms: C_6  and  N_9
REMARK    5  A    between atoms: C_13  and  C_16
REMARK    6  A    between atoms: C_16  and  O_17
REMARK    7  A    between atoms: C_19  and  N_22
REMARK    8  A    between atoms: C_23  and  O_25
REMARK    9  A    between atoms: O_25  and  C_26
REMARK                            x       y       z     vdW  Elec       q    Type
REMARK                         _______ _______ _______ _____ _____    ______ ____
ROOT
ATOM      1  O   UNL     1     -38.445  24.096   3.751  0.00  0.00    -0.277 OA
ATOM      2  O   UNL     1     -38.448  21.149   1.043  0.00  0.00    -0.273 OA
ATOM      3  N   UNL     1     -37.322  22.843   2.173  0.00  0.00    -0.221 N 
ATOM      4  C   UNL     1     -38.398  23.626   2.611  0.00  0.00    +0.213 C 
ATOM      5  C   UNL     1     -37.426  21.821   1.210  0.00  0.00    +0.250 C 
ENDROOT
BRANCH   4   6
ATOM      6  C   UNL     1     -39.478  23.939   1.549  0.00  0.00    +0.022 C 
ATOM      7  C   UNL     1     -40.299  25.166   1.952  0.00  0.00    -0.013 C 
ATOM      8  C   UNL     1     -38.915  24.105   0.132  0.00  0.00    -0.013 C 
BRANCH   6   9
ATOM      9  N   UNL     1     -40.378  22.774   1.543  0.00  0.00    +0.388 N 
ATOM     10  H   UNL     1     -39.876  21.955   1.886  0.00  0.00    -0.088 HD
ATOM     11  H   UNL     1     -40.702  22.600   0.592  0.00  0.00    -0.088 HD
ATOM     12  H   UNL     1     -41.178  22.959   2.146  0.00  0.00    -0.088 HD
ENDBRANCH   6   9
ENDBRANCH   4   6
BRANCH   3  13
ATOM     13  C   UNL     1     -36.016  23.078   2.775  0.00  0.00    +0.181 C 
ATOM     14  C   UNL     1     -35.875  24.542   3.161  0.00  0.00    +0.034 C 
BRANCH  13  16
ATOM     15  O   UNL     1     -35.426  21.014   3.883  0.00  0.00    -0.248 OA
ATOM     16  C   UNL     1     -35.778  22.186   3.984  0.00  0.00    +0.336 C 
BRANCH  16  17
ATOM     17  O   UNL     1     -35.991  22.842   5.159  0.00  0.00    -0.443 OA
ATOM     18  C   UNL     1     -35.445  22.221   6.327  0.00  0.00    +0.256 C 
ENDBRANCH  16  17
ENDBRANCH  13  16
ENDBRANCH   3  13
BRANCH   5  19
ATOM     19  C   UNL     1     -36.197  21.600   0.328  0.00  0.00    +0.152 C 
ATOM     20  C   UNL     1     -36.600  21.591  -1.139  0.00  0.00    +0.031 C 
BRANCH  19  22
ATOM     21  O   UNL     1     -33.386  20.967   0.693  0.00  0.00    -0.226 OA
ATOM     22  N   UNL     1     -35.618  20.336   0.713  0.00  0.00    -0.264 N 
ATOM     23  C   UNL     1     -34.262  20.126   0.863  0.00  0.00    +0.402 C 
ATOM     24  H   UNL     1     -36.226  19.580   0.877  0.00  0.00    +0.153 HD
BRANCH  23  25
ATOM     25  O   UNL     1     -34.034  18.830   1.232  0.00  0.00    -0.442 OA
BRANCH  25  26
ATOM     26  C   UNL     1     -33.180  18.076   0.364  0.00  0.00    +0.138 C 
ATOM     27  C   UNL     1     -33.705  16.644   0.288  0.00  0.00    +0.044 C 
ATOM     28  C   UNL     1     -31.776  18.102   0.966  0.00  0.00    +0.044 C 
ATOM     29  C   UNL     1     -33.186  18.733  -1.015  0.00  0.00    +0.044 C 
ENDBRANCH  25  26
ENDBRANCH  23  25
ENDBRANCH  19  22
ENDBRANCH   5  19
TORSDOF 9
ENDMDL
