MODEL 1
REMARK VINA RESULT:      -5.7      0.000      0.000
REMARK  Name = 195945
REMARK  5 active torsions:
REMARK  status: ('A' for Active; 'I' for Inactive)
REMARK    1  A    between atoms: C_1  and  O_13
REMARK    2  A    between atoms: C_2  and  O_7
REMARK    3  A    between atoms: C_3  and  C_10
REMARK    4  A    between atoms: C_10  and  O_11
REMARK    5  A    between atoms: O_13  and  S_14
REMARK                            x       y       z     vdW  Elec       q    Type
REMARK                         _______ _______ _______ _____ _____    ______ ____
ROOT
ATOM      1  C   UNL     1     -35.537  24.001   4.864  0.00  0.00    +0.209 C 
ATOM      2  C   UNL     1     -35.991  24.013   3.545  0.00  0.00    +0.171 C 
ATOM      3  C   UNL     1     -35.604  21.633   3.392  0.00  0.00    +0.079 C 
ATOM      4  C   UNL     1     -35.118  22.806   5.447  0.00  0.00    +0.043 C 
ATOM      5  C   UNL     1     -36.024  22.829   2.808  0.00  0.00    +0.046 C 
ATOM      6  C   UNL     1     -35.151  21.622   4.710  0.00  0.00    +0.010 C 
ENDROOT
BRANCH   2   7
ATOM      7  O   UNL     1     -36.402  25.175   2.965  0.00  0.00    -0.503 OA
ATOM      8  H   UNL     1     -37.233  25.544   3.193  0.00  0.00    +0.292 HD
ENDBRANCH   2   7
BRANCH   3  10
ATOM      9  O   UNL     1     -34.702  19.896   2.010  0.00  0.00    -0.245 OA
ATOM     10  C   UNL     1     -35.640  20.399   2.624  0.00  0.00    +0.338 C 
BRANCH  10  11
ATOM     11  O   UNL     1     -36.872  19.817   2.650  0.00  0.00    -0.477 OA
ATOM     12  H   UNL     1     -37.278  19.544   1.851  0.00  0.00    +0.295 HD
ENDBRANCH  10  11
ENDBRANCH   3  10
BRANCH   1  13
ATOM     13  O   UNL     1     -35.500  25.152   5.593  0.00  0.00    -0.319 OA
BRANCH  13  14
ATOM     14  S   UNL     1     -34.288  26.228   5.321  0.00  0.00    +0.282 S 
ATOM     15  O   UNL     1     -33.176  25.364   4.496  0.00  0.00    -0.012 OA
ATOM     16  O   UNL     1     -34.776  27.278   4.445  0.00  0.00    -0.105 OA
ATOM     17  O   UNL     1     -33.707  26.569   6.606  0.00  0.00    -0.105 OA
ENDBRANCH  13  14
ENDBRANCH   1  13
TORSDOF 5
ENDMDL
MODEL 2
REMARK VINA RESULT:      -5.6      0.998      1.649
REMARK  Name = 195945
REMARK  5 active torsions:
REMARK  status: ('A' for Active; 'I' for Inactive)
REMARK    1  A    between atoms: C_1  and  O_13
REMARK    2  A    between atoms: C_2  and  O_7
REMARK    3  A    between atoms: C_3  and  C_10
REMARK    4  A    between atoms: C_10  and  O_11
REMARK    5  A    between atoms: O_13  and  S_14
REMARK                            x       y       z     vdW  Elec       q    Type
REMARK                         _______ _______ _______ _____ _____    ______ ____
ROOT
ATOM      1  C   UNL     1     -35.764  24.088   4.878  0.00  0.00    +0.209 C 
ATOM      2  C   UNL     1     -36.811  24.354   3.994  0.00  0.00    +0.171 C 
ATOM      3  C   UNL     1     -36.596  22.130   3.074  0.00  0.00    +0.079 C 
ATOM      4  C   UNL     1     -35.134  22.844   4.859  0.00  0.00    +0.043 C 
ATOM      5  C   UNL     1     -37.227  23.375   3.092  0.00  0.00    +0.046 C 
ATOM      6  C   UNL     1     -35.550  21.865   3.957  0.00  0.00    +0.010 C 
ENDROOT
BRANCH   2   7
ATOM      7  O   UNL     1     -37.433  25.565   4.003  0.00  0.00    -0.503 OA
ATOM      8  H   UNL     1     -37.018  26.303   4.406  0.00  0.00    +0.292 HD
ENDBRANCH   2   7
BRANCH   3  10
ATOM      9  O   UNL     1     -37.576  21.302   1.050  0.00  0.00    -0.245 OA
ATOM     10  C   UNL     1     -37.030  21.109   2.134  0.00  0.00    +0.338 C 
BRANCH  10  11
ATOM     11  O   UNL     1     -36.760  19.852   2.585  0.00  0.00    -0.477 OA
ATOM     12  H   UNL     1     -36.624  19.155   1.975  0.00  0.00    +0.295 HD
ENDBRANCH  10  11
ENDBRANCH   3  10
BRANCH   1  13
ATOM     13  O   UNL     1     -35.349  25.037   5.763  0.00  0.00    -0.319 OA
BRANCH  13  14
ATOM     14  S   UNL     1     -34.161  26.080   5.313  0.00  0.00    +0.282 S 
ATOM     15  O   UNL     1     -34.954  27.242   4.486  0.00  0.00    -0.012 OA
ATOM     16  O   UNL     1     -33.591  26.688   6.502  0.00  0.00    -0.105 OA
ATOM     17  O   UNL     1     -33.302  25.388   4.372  0.00  0.00    -0.105 OA
ENDBRANCH  13  14
ENDBRANCH   1  13
TORSDOF 5
ENDMDL
MODEL 3
REMARK VINA RESULT:      -5.5      2.057      3.150
REMARK  Name = 195945
REMARK  5 active torsions:
REMARK  status: ('A' for Active; 'I' for Inactive)
REMARK    1  A    between atoms: C_1  and  O_13
REMARK    2  A    between atoms: C_2  and  O_7
REMARK    3  A    between atoms: C_3  and  C_10
REMARK    4  A    between atoms: C_10  and  O_11
REMARK    5  A    between atoms: O_13  and  S_14
REMARK                            x       y       z     vdW  Elec       q    Type
REMARK                         _______ _______ _______ _____ _____    ______ ____
ROOT
ATOM      1  C   UNL     1     -35.501  25.807   3.517  0.00  0.00    +0.209 C 
ATOM      2  C   UNL     1     -35.985  25.612   4.811  0.00  0.00    +0.171 C 
ATOM      3  C   UNL     1     -35.495  23.252   4.639  0.00  0.00    +0.079 C 
ATOM      4  C   UNL     1     -35.014  24.725   2.784  0.00  0.00    +0.043 C 
ATOM      5  C   UNL     1     -35.982  24.335   5.372  0.00  0.00    +0.046 C 
ATOM      6  C   UNL     1     -35.011  23.448   3.345  0.00  0.00    +0.010 C 
ENDROOT
BRANCH   2   7
ATOM      7  O   UNL     1     -36.464  26.661   5.535  0.00  0.00    -0.503 OA
ATOM      8  H   UNL     1     -35.918  27.081   6.170  0.00  0.00    +0.292 HD
ENDBRANCH   2   7
BRANCH   3  10
ATOM      9  O   UNL     1     -35.027  20.903   4.715  0.00  0.00    -0.245 OA
ATOM     10  C   UNL     1     -35.491  21.921   5.223  0.00  0.00    +0.338 C 
BRANCH  10  11
ATOM     11  O   UNL     1     -36.078  21.903   6.453  0.00  0.00    -0.477 OA
ATOM     12  H   UNL     1     -36.217  22.705   6.917  0.00  0.00    +0.295 HD
ENDBRANCH  10  11
ENDBRANCH   3  10
BRANCH   1  13
ATOM     13  O   UNL     1     -35.500  27.050   2.959  0.00  0.00    -0.319 OA
BRANCH  13  14
ATOM     14  S   UNL     1     -34.195  28.022   3.186  0.00  0.00    +0.282 S 
ATOM     15  O   UNL     1     -34.832  29.524   3.244  0.00  0.00    -0.012 OA
ATOM     16  O   UNL     1     -33.611  27.734   4.483  0.00  0.00    -0.105 OA
ATOM     17  O   UNL     1     -33.376  27.945   1.990  0.00  0.00    -0.105 OA
ENDBRANCH  13  14
ENDBRANCH   1  13
TORSDOF 5
ENDMDL
MODEL 4
REMARK VINA RESULT:      -5.4      0.966      2.026
REMARK  Name = 195945
REMARK  5 active torsions:
REMARK  status: ('A' for Active; 'I' for Inactive)
REMARK    1  A    between atoms: C_1  and  O_13
REMARK    2  A    between atoms: C_2  and  O_7
REMARK    3  A    between atoms: C_3  and  C_10
REMARK    4  A    between atoms: C_10  and  O_11
REMARK    5  A    between atoms: O_13  and  S_14
REMARK                            x       y       z     vdW  Elec       q    Type
REMARK                         _______ _______ _______ _____ _____    ______ ____
ROOT
ATOM      1  C   UNL     1     -35.439  24.464   3.465  0.00  0.00    +0.209 C 
ATOM      2  C   UNL     1     -35.727  23.484   4.416  0.00  0.00    +0.171 C 
ATOM      3  C   UNL     1     -35.434  21.771   2.738  0.00  0.00    +0.079 C 
ATOM      4  C   UNL     1     -35.148  24.097   2.151  0.00  0.00    +0.043 C 
ATOM      5  C   UNL     1     -35.725  22.137   4.052  0.00  0.00    +0.046 C 
ATOM      6  C   UNL     1     -35.146  22.750   1.788  0.00  0.00    +0.010 C 
ENDROOT
BRANCH   2   7
ATOM      7  O   UNL     1     -36.013  23.831   5.701  0.00  0.00    -0.503 OA
ATOM      8  H   UNL     1     -36.268  23.174   6.319  0.00  0.00    +0.292 HD
ENDBRANCH   2   7
BRANCH   3  10
ATOM      9  O   UNL     1     -34.476  19.733   1.916  0.00  0.00    -0.245 OA
ATOM     10  C   UNL     1     -35.431  20.367   2.359  0.00  0.00    +0.338 C 
BRANCH  10  11
ATOM     11  O   UNL     1     -36.649  19.785   2.551  0.00  0.00    -0.477 OA
ATOM     12  H   UNL     1     -37.096  19.895   3.366  0.00  0.00    +0.295 HD
ENDBRANCH  10  11
ENDBRANCH   3  10
BRANCH   1  13
ATOM     13  O   UNL     1     -35.438  25.782   3.809  0.00  0.00    -0.319 OA
BRANCH  13  14
ATOM     14  S   UNL     1     -34.112  26.412   4.546  0.00  0.00    +0.282 S 
ATOM     15  O   UNL     1     -34.101  27.972   4.067  0.00  0.00    -0.012 OA
ATOM     16  O   UNL     1     -34.314  26.388   5.984  0.00  0.00    -0.105 OA
ATOM     17  O   UNL     1     -32.943  25.773   3.970  0.00  0.00    -0.105 OA
ENDBRANCH  13  14
ENDBRANCH   1  13
TORSDOF 5
ENDMDL
MODEL 5
REMARK VINA RESULT:      -5.4      1.741      2.358
REMARK  Name = 195945
REMARK  5 active torsions:
REMARK  status: ('A' for Active; 'I' for Inactive)
REMARK    1  A    between atoms: C_1  and  O_13
REMARK    2  A    between atoms: C_2  and  O_7
REMARK    3  A    between atoms: C_3  and  C_10
REMARK    4  A    between atoms: C_10  and  O_11
REMARK    5  A    between atoms: O_13  and  S_14
REMARK                            x       y       z     vdW  Elec       q    Type
REMARK                         _______ _______ _______ _____ _____    ______ ____
ROOT
ATOM      1  C   UNL     1     -34.822  25.595   4.459  0.00  0.00    +0.209 C 
ATOM      2  C   UNL     1     -34.843  24.892   3.254  0.00  0.00    +0.171 C 
ATOM      3  C   UNL     1     -35.163  22.826   4.465  0.00  0.00    +0.079 C 
ATOM      4  C   UNL     1     -34.971  24.913   5.666  0.00  0.00    +0.043 C 
ATOM      5  C   UNL     1     -35.013  23.508   3.257  0.00  0.00    +0.046 C 
ATOM      6  C   UNL     1     -35.142  23.529   5.669  0.00  0.00    +0.010 C 
ENDROOT
BRANCH   2   7
ATOM      7  O   UNL     1     -34.698  25.547   2.069  0.00  0.00    -0.503 OA
ATOM      8  H   UNL     1     -35.453  25.779   1.565  0.00  0.00    +0.292 HD
ENDBRANCH   2   7
BRANCH   3  10
ATOM      9  O   UNL     1     -35.428  20.657   3.481  0.00  0.00    -0.245 OA
ATOM     10  C   UNL     1     -35.340  21.383   4.468  0.00  0.00    +0.338 C 
BRANCH  10  11
ATOM     11  O   UNL     1     -35.401  20.879   5.733  0.00  0.00    -0.477 OA
ATOM     12  H   UNL     1     -36.225  20.621   6.095  0.00  0.00    +0.295 HD
ENDBRANCH  10  11
ENDBRANCH   3  10
BRANCH   1  13
ATOM     13  O   UNL     1     -34.657  26.947   4.468  0.00  0.00    -0.319 OA
BRANCH  13  14
ATOM     14  S   UNL     1     -33.139  27.562   4.608  0.00  0.00    +0.282 S 
ATOM     15  O   UNL     1     -33.283  29.088   4.048  0.00  0.00    -0.012 OA
ATOM     16  O   UNL     1     -32.785  27.633   6.014  0.00  0.00    -0.105 OA
ATOM     17  O   UNL     1     -32.286  26.840   3.683  0.00  0.00    -0.105 OA
ENDBRANCH  13  14
ENDBRANCH   1  13
TORSDOF 5
ENDMDL
MODEL 6
REMARK VINA RESULT:      -5.4      2.289      5.536
REMARK  Name = 195945
REMARK  5 active torsions:
REMARK  status: ('A' for Active; 'I' for Inactive)
REMARK    1  A    between atoms: C_1  and  O_13
REMARK    2  A    between atoms: C_2  and  O_7
REMARK    3  A    between atoms: C_3  and  C_10
REMARK    4  A    between atoms: C_10  and  O_11
REMARK    5  A    between atoms: O_13  and  S_14
REMARK                            x       y       z     vdW  Elec       q    Type
REMARK                         _______ _______ _______ _____ _____    ______ ____
ROOT
ATOM      1  C   UNL     1     -36.192  22.307   3.316  0.00  0.00    +0.209 C 
ATOM      2  C   UNL     1     -35.641  22.245   4.596  0.00  0.00    +0.171 C 
ATOM      3  C   UNL     1     -35.747  24.654   4.758  0.00  0.00    +0.079 C 
ATOM      4  C   UNL     1     -36.520  23.542   2.757  0.00  0.00    +0.043 C 
ATOM      5  C   UNL     1     -35.419  23.418   5.317  0.00  0.00    +0.046 C 
ATOM      6  C   UNL     1     -36.298  24.715   3.478  0.00  0.00    +0.010 C 
ENDROOT
BRANCH   2   7
ATOM      7  O   UNL     1     -35.316  21.045   5.152  0.00  0.00    -0.503 OA
ATOM      8  H   UNL     1     -34.545  20.965   5.678  0.00  0.00    +0.292 HD
ENDBRANCH   2   7
BRANCH   3  10
ATOM      9  O   UNL     1     -34.472  26.201   6.071  0.00  0.00    -0.245 OA
ATOM     10  C   UNL     1     -35.516  25.877   5.509  0.00  0.00    +0.338 C 
BRANCH  10  11
ATOM     11  O   UNL     1     -36.620  26.676   5.535  0.00  0.00    -0.477 OA
ATOM     12  H   UNL     1     -36.539  27.590   5.349  0.00  0.00    +0.295 HD
ENDBRANCH  10  11
ENDBRANCH   3  10
BRANCH   1  13
ATOM     13  O   UNL     1     -36.413  21.168   2.602  0.00  0.00    -0.319 OA
BRANCH  13  14
ATOM     14  S   UNL     1     -35.190  20.545   1.698  0.00  0.00    +0.282 S 
ATOM     15  O   UNL     1     -35.951  19.588   0.617  0.00  0.00    -0.012 OA
ATOM     16  O   UNL     1     -34.547  21.621   0.967  0.00  0.00    -0.105 OA
ATOM     17  O   UNL     1     -34.402  19.683   2.560  0.00  0.00    -0.105 OA
ENDBRANCH  13  14
ENDBRANCH   1  13
TORSDOF 5
ENDMDL
MODEL 7
REMARK VINA RESULT:      -5.1      1.991      2.859
REMARK  Name = 195945
REMARK  5 active torsions:
REMARK  status: ('A' for Active; 'I' for Inactive)
REMARK    1  A    between atoms: C_1  and  O_13
REMARK    2  A    between atoms: C_2  and  O_7
REMARK    3  A    between atoms: C_3  and  C_10
REMARK    4  A    between atoms: C_10  and  O_11
REMARK    5  A    between atoms: O_13  and  S_14
REMARK                            x       y       z     vdW  Elec       q    Type
REMARK                         _______ _______ _______ _____ _____    ______ ____
ROOT
ATOM      1  C   UNL     1     -34.500  26.062   5.126  0.00  0.00    +0.209 C 
ATOM      2  C   UNL     1     -35.476  26.375   4.179  0.00  0.00    +0.171 C 
ATOM      3  C   UNL     1     -36.111  24.047   4.065  0.00  0.00    +0.079 C 
ATOM      4  C   UNL     1     -34.331  24.742   5.542  0.00  0.00    +0.043 C 
ATOM      5  C   UNL     1     -36.281  25.368   3.648  0.00  0.00    +0.046 C 
ATOM      6  C   UNL     1     -35.136  23.734   5.012  0.00  0.00    +0.010 C 
ENDROOT
BRANCH   2   7
ATOM      7  O   UNL     1     -35.649  27.661   3.765  0.00  0.00    -0.503 OA
ATOM      8  H   UNL     1     -34.933  28.265   3.795  0.00  0.00    +0.292 HD
ENDBRANCH   2   7
BRANCH   3  10
ATOM      9  O   UNL     1     -38.097  23.128   3.088  0.00  0.00    -0.245 OA
ATOM     10  C   UNL     1     -36.951  22.997   3.512  0.00  0.00    +0.338 C 
BRANCH  10  11
ATOM     11  O   UNL     1     -36.319  21.790   3.503  0.00  0.00    -0.477 OA
ATOM     12  H   UNL     1     -36.211  21.324   2.697  0.00  0.00    +0.295 HD
ENDBRANCH  10  11
ENDBRANCH   3  10
BRANCH   1  13
ATOM     13  O   UNL     1     -33.707  27.038   5.651  0.00  0.00    -0.319 OA
BRANCH  13  14
ATOM     14  S   UNL     1     -32.543  27.712   4.707  0.00  0.00    +0.282 S 
ATOM     15  O   UNL     1     -31.285  27.918   5.725  0.00  0.00    -0.012 OA
ATOM     16  O   UNL     1     -32.145  26.753   3.692  0.00  0.00    -0.105 OA
ATOM     17  O   UNL     1     -33.005  29.030   4.315  0.00  0.00    -0.105 OA
ENDBRANCH  13  14
ENDBRANCH   1  13
TORSDOF 5
ENDMDL
MODEL 8
REMARK VINA RESULT:      -5.1      2.520      5.393
REMARK  Name = 195945
REMARK  5 active torsions:
REMARK  status: ('A' for Active; 'I' for Inactive)
REMARK    1  A    between atoms: C_1  and  O_13
REMARK    2  A    between atoms: C_2  and  O_7
REMARK    3  A    between atoms: C_3  and  C_10
REMARK    4  A    between atoms: C_10  and  O_11
REMARK    5  A    between atoms: O_13  and  S_14
REMARK                            x       y       z     vdW  Elec       q    Type
REMARK                         _______ _______ _______ _____ _____    ______ ____
ROOT
ATOM      1  C   UNL     1     -36.260  23.680   4.216  0.00  0.00    +0.209 C 
ATOM      2  C   UNL     1     -36.747  24.956   4.506  0.00  0.00    +0.171 C 
ATOM      3  C   UNL     1     -34.522  25.664   5.124  0.00  0.00    +0.079 C 
ATOM      4  C   UNL     1     -34.905  23.398   4.380  0.00  0.00    +0.043 C 
ATOM      5  C   UNL     1     -35.878  25.947   4.960  0.00  0.00    +0.046 C 
ATOM      6  C   UNL     1     -34.035  24.389   4.834  0.00  0.00    +0.010 C 
ENDROOT
BRANCH   2   7
ATOM      7  O   UNL     1     -38.069  25.243   4.350  0.00  0.00    -0.503 OA
ATOM      8  H   UNL     1     -38.717  24.595   4.548  0.00  0.00    +0.292 HD
ENDBRANCH   2   7
BRANCH   3  10
ATOM      9  O   UNL     1     -32.994  26.692   6.658  0.00  0.00    -0.245 OA
ATOM     10  C   UNL     1     -33.615  26.698   5.598  0.00  0.00    +0.338 C 
BRANCH  10  11
ATOM     11  O   UNL     1     -33.509  27.728   4.712  0.00  0.00    -0.477 OA
ATOM     12  H   UNL     1     -32.904  27.671   3.999  0.00  0.00    +0.295 HD
ENDBRANCH  10  11
ENDBRANCH   3  10
BRANCH   1  13
ATOM     13  O   UNL     1     -37.100  22.704   3.772  0.00  0.00    -0.319 OA
BRANCH  13  14
ATOM     14  S   UNL     1     -37.491  22.655   2.176  0.00  0.00    +0.282 S 
ATOM     15  O   UNL     1     -38.903  23.470   2.094  0.00  0.00    -0.012 OA
ATOM     16  O   UNL     1     -36.500  23.403   1.424  0.00  0.00    -0.105 OA
ATOM     17  O   UNL     1     -37.768  21.273   1.834  0.00  0.00    -0.105 OA
ENDBRANCH  13  14
ENDBRANCH   1  13
TORSDOF 5
ENDMDL
MODEL 9
REMARK VINA RESULT:      -5.1      2.411      3.836
REMARK  Name = 195945
REMARK  5 active torsions:
REMARK  status: ('A' for Active; 'I' for Inactive)
REMARK    1  A    between atoms: C_1  and  O_13
REMARK    2  A    between atoms: C_2  and  O_7
REMARK    3  A    between atoms: C_3  and  C_10
REMARK    4  A    between atoms: C_10  and  O_11
REMARK    5  A    between atoms: O_13  and  S_14
REMARK                            x       y       z     vdW  Elec       q    Type
REMARK                         _______ _______ _______ _____ _____    ______ ____
ROOT
ATOM      1  C   UNL     1     -35.626  25.585   3.095  0.00  0.00    +0.209 C 
ATOM      2  C   UNL     1     -35.819  25.671   4.474  0.00  0.00    +0.171 C 
ATOM      3  C   UNL     1     -35.622  23.270   4.651  0.00  0.00    +0.079 C 
ATOM      4  C   UNL     1     -35.431  24.341   2.495  0.00  0.00    +0.043 C 
ATOM      5  C   UNL     1     -35.817  24.514   5.252  0.00  0.00    +0.046 C 
ATOM      6  C   UNL     1     -35.429  23.184   3.273  0.00  0.00    +0.010 C 
ENDROOT
BRANCH   2   7
ATOM      7  O   UNL     1     -36.010  26.880   5.071  0.00  0.00    -0.503 OA
ATOM      8  H   UNL     1     -36.386  27.589   4.586  0.00  0.00    +0.292 HD
ENDBRANCH   2   7
BRANCH   3  10
ATOM      9  O   UNL     1     -35.874  21.991   6.662  0.00  0.00    -0.245 OA
ATOM     10  C   UNL     1     -35.620  22.063   5.463  0.00  0.00    +0.338 C 
BRANCH  10  11
ATOM     11  O   UNL     1     -35.295  20.959   4.733  0.00  0.00    -0.477 OA
ATOM     12  H   UNL     1     -34.464  20.911   4.302  0.00  0.00    +0.295 HD
ENDBRANCH  10  11
ENDBRANCH   3  10
BRANCH   1  13
ATOM     13  O   UNL     1     -35.626  26.709   2.325  0.00  0.00    -0.319 OA
BRANCH  13  14
ATOM     14  S   UNL     1     -37.016  27.156   1.571  0.00  0.00    +0.282 S 
ATOM     15  O   UNL     1     -36.930  26.415   0.120  0.00  0.00    -0.012 OA
ATOM     16  O   UNL     1     -38.145  26.599   2.292  0.00  0.00    -0.105 OA
ATOM     17  O   UNL     1     -36.944  28.586   1.331  0.00  0.00    -0.105 OA
ENDBRANCH  13  14
ENDBRANCH   1  13
TORSDOF 5
ENDMDL
