MODEL 1
REMARK VINA RESULT:      -6.4      0.000      0.000
REMARK  Name = 54430554
REMARK  5 active torsions:
REMARK  status: ('A' for Active; 'I' for Inactive)
REMARK    1  A    between atoms: C_6  and  C_16
REMARK    2  A    between atoms: C_8  and  S_10
REMARK    3  A    between atoms: S_10  and  N_13
REMARK    4  A    between atoms: C_16  and  C_17
REMARK    5  A    between atoms: C_17  and  C_18
REMARK                            x       y       z     vdW  Elec       q    Type
REMARK                         _______ _______ _______ _____ _____    ______ ____
ROOT
ATOM      1  S   UNL     1     -38.833  23.631   1.540  0.00  0.00    -0.011 S 
ATOM      2  O   UNL     1     -35.417  21.679   4.092  0.00  0.00    -0.275 OA
ATOM      3  N   UNL     1     -36.868  21.979   2.268  0.00  0.00    -0.263 N 
ATOM      4  N   UNL     1     -37.562  23.810   3.757  0.00  0.00    -0.124 NA
ATOM      5  N   UNL     1     -38.486  24.841   3.771  0.00  0.00    -0.119 NA
ATOM      6  C   UNL     1     -35.849  21.366   2.987  0.00  0.00    +0.228 C 
ATOM      7  C   UNL     1     -37.638  23.103   2.650  0.00  0.00    +0.189 A 
ATOM      8  C   UNL     1     -39.213  24.860   2.674  0.00  0.00    +0.256 A 
ATOM      9  H   UNL     1     -37.079  21.586   1.391  0.00  0.00    +0.157 HD
ENDROOT
BRANCH   8  10
ATOM     10  S   UNL     1     -40.477  25.987   2.297  0.00  0.00    +0.081 S 
ATOM     11  O   UNL     1     -39.927  27.048   1.459  0.00  0.00    -0.151 OA
ATOM     12  O   UNL     1     -41.648  25.248   1.836  0.00  0.00    -0.151 OA
BRANCH  10  13
ATOM     13  N   UNL     1     -40.821  26.637   3.842  0.00  0.00    -0.202 NA
ATOM     14  H   UNL     1     -41.741  26.321   4.146  0.00  0.00    +0.144 HD
ATOM     15  H   UNL     1     -40.811  27.656   3.791  0.00  0.00    +0.144 HD
ENDBRANCH  10  13
ENDBRANCH   8  10
BRANCH   6  16
ATOM     16  C   UNL     1     -35.233  20.206   2.221  0.00  0.00    +0.090 C 
BRANCH  16  17
ATOM     17  C   UNL     1     -34.407  20.698   1.022  0.00  0.00    +0.036 C 
BRANCH  17  18
ATOM     18  C   UNL     1     -33.144  19.937   0.802  0.00  0.00    -0.022 C 
ATOM     19  C   UNL     1     -32.116  20.497   0.042  0.00  0.00    -0.004 C 
ATOM     20  C   UNL     1     -32.989  18.667   1.357  0.00  0.00    -0.004 C 
ATOM     21  C   UNL     1     -30.934  19.785  -0.163  0.00  0.00    -0.000 C 
ATOM     22  C   UNL     1     -31.808  17.956   1.152  0.00  0.00    -0.000 C 
ATOM     23  C   UNL     1     -30.780  18.515   0.392  0.00  0.00    -0.000 C 
ENDBRANCH  17  18
ENDBRANCH  16  17
ENDBRANCH   6  16
TORSDOF 5
ENDMDL
MODEL 2
REMARK VINA RESULT:      -6.4      4.579      5.262
REMARK  Name = 54430554
REMARK  5 active torsions:
REMARK  status: ('A' for Active; 'I' for Inactive)
REMARK    1  A    between atoms: C_6  and  C_16
REMARK    2  A    between atoms: C_8  and  S_10
REMARK    3  A    between atoms: S_10  and  N_13
REMARK    4  A    between atoms: C_16  and  C_17
REMARK    5  A    between atoms: C_17  and  C_18
REMARK                            x       y       z     vdW  Elec       q    Type
REMARK                         _______ _______ _______ _____ _____    ______ ____
ROOT
ATOM      1  S   UNL     1     -33.442  26.128   3.518  0.00  0.00    -0.011 S 
ATOM      2  O   UNL     1     -36.400  22.812   5.017  0.00  0.00    -0.275 OA
ATOM      3  N   UNL     1     -35.068  24.013   3.498  0.00  0.00    -0.263 N 
ATOM      4  N   UNL     1     -34.671  25.250   5.588  0.00  0.00    -0.124 NA
ATOM      5  N   UNL     1     -33.943  26.344   6.022  0.00  0.00    -0.119 NA
ATOM      6  C   UNL     1     -35.947  23.012   3.894  0.00  0.00    +0.228 C 
ATOM      7  C   UNL     1     -34.499  25.029   4.301  0.00  0.00    +0.189 A 
ATOM      8  C   UNL     1     -33.258  26.894   5.042  0.00  0.00    +0.256 A 
ATOM      9  H   UNL     1     -34.813  24.016   2.548  0.00  0.00    +0.157 HD
ENDROOT
BRANCH   8  10
ATOM     10  S   UNL     1     -32.221  28.280   5.163  0.00  0.00    +0.081 S 
ATOM     11  O   UNL     1     -30.899  27.924   4.655  0.00  0.00    -0.151 OA
ATOM     12  O   UNL     1     -32.912  29.438   4.607  0.00  0.00    -0.151 OA
BRANCH  10  13
ATOM     13  N   UNL     1     -32.117  28.475   6.861  0.00  0.00    -0.202 NA
ATOM     14  H   UNL     1     -32.717  27.789   7.318  0.00  0.00    +0.144 HD
ATOM     15  H   UNL     1     -32.420  29.415   7.113  0.00  0.00    +0.144 HD
ENDBRANCH  10  13
ENDBRANCH   8  10
BRANCH   6  16
ATOM     16  C   UNL     1     -36.305  22.084   2.744  0.00  0.00    +0.090 C 
BRANCH  16  17
ATOM     17  C   UNL     1     -35.457  22.380   1.497  0.00  0.00    +0.036 C 
BRANCH  17  18
ATOM     18  C   UNL     1     -34.444  21.330   1.188  0.00  0.00    -0.022 C 
ATOM     19  C   UNL     1     -33.394  21.610   0.313  0.00  0.00    -0.004 C 
ATOM     20  C   UNL     1     -34.546  20.069   1.776  0.00  0.00    -0.004 C 
ATOM     21  C   UNL     1     -32.447  20.628   0.025  0.00  0.00    -0.000 C 
ATOM     22  C   UNL     1     -33.599  19.087   1.487  0.00  0.00    -0.000 C 
ATOM     23  C   UNL     1     -32.549  19.367   0.612  0.00  0.00    -0.000 C 
ENDBRANCH  17  18
ENDBRANCH  16  17
ENDBRANCH   6  16
TORSDOF 5
ENDMDL
MODEL 3
REMARK VINA RESULT:      -6.4      4.585      5.362
REMARK  Name = 54430554
REMARK  5 active torsions:
REMARK  status: ('A' for Active; 'I' for Inactive)
REMARK    1  A    between atoms: C_6  and  C_16
REMARK    2  A    between atoms: C_8  and  S_10
REMARK    3  A    between atoms: S_10  and  N_13
REMARK    4  A    between atoms: C_16  and  C_17
REMARK    5  A    between atoms: C_17  and  C_18
REMARK                            x       y       z     vdW  Elec       q    Type
REMARK                         _______ _______ _______ _____ _____    ______ ____
ROOT
ATOM      1  S   UNL     1     -33.388  26.115   3.538  0.00  0.00    -0.011 S 
ATOM      2  O   UNL     1     -36.433  22.832   4.934  0.00  0.00    -0.275 OA
ATOM      3  N   UNL     1     -35.026  24.010   3.465  0.00  0.00    -0.263 N 
ATOM      4  N   UNL     1     -34.714  25.264   5.559  0.00  0.00    -0.124 NA
ATOM      5  N   UNL     1     -33.998  26.357   6.015  0.00  0.00    -0.119 NA
ATOM      6  C   UNL     1     -35.929  23.019   3.830  0.00  0.00    +0.228 C 
ATOM      7  C   UNL     1     -34.486  25.029   4.284  0.00  0.00    +0.189 A 
ATOM      8  C   UNL     1     -33.266  26.893   5.062  0.00  0.00    +0.256 A 
ATOM      9  H   UNL     1     -34.729  24.003   2.527  0.00  0.00    +0.157 HD
ENDROOT
BRANCH   8  10
ATOM     10  S   UNL     1     -32.225  28.273   5.217  0.00  0.00    +0.081 S 
ATOM     11  O   UNL     1     -30.909  27.932   4.686  0.00  0.00    -0.151 OA
ATOM     12  O   UNL     1     -32.920  29.449   4.702  0.00  0.00    -0.151 OA
BRANCH  10  13
ATOM     13  N   UNL     1     -32.106  28.416   6.918  0.00  0.00    -0.202 NA
ATOM     14  H   UNL     1     -32.044  27.486   7.333  0.00  0.00    +0.144 HD
ATOM     15  H   UNL     1     -32.933  28.893   7.277  0.00  0.00    +0.144 HD
ENDBRANCH  10  13
ENDBRANCH   8  10
BRANCH   6  16
ATOM     16  C   UNL     1     -36.242  22.082   2.674  0.00  0.00    +0.090 C 
BRANCH  16  17
ATOM     17  C   UNL     1     -35.340  22.364   1.462  0.00  0.00    +0.036 C 
BRANCH  17  18
ATOM     18  C   UNL     1     -34.362  21.277   1.167  0.00  0.00    -0.022 C 
ATOM     19  C   UNL     1     -34.476  20.043   1.809  0.00  0.00    -0.004 C 
ATOM     20  C   UNL     1     -33.335  21.494   0.249  0.00  0.00    -0.004 C 
ATOM     21  C   UNL     1     -33.561  19.028   1.533  0.00  0.00    -0.000 C 
ATOM     22  C   UNL     1     -32.420  20.479  -0.026  0.00  0.00    -0.000 C 
ATOM     23  C   UNL     1     -32.534  19.245   0.615  0.00  0.00    -0.000 C 
ENDBRANCH  17  18
ENDBRANCH  16  17
ENDBRANCH   6  16
TORSDOF 5
ENDMDL
MODEL 4
REMARK VINA RESULT:      -6.3      3.240      3.642
REMARK  Name = 54430554
REMARK  5 active torsions:
REMARK  status: ('A' for Active; 'I' for Inactive)
REMARK    1  A    between atoms: C_6  and  C_16
REMARK    2  A    between atoms: C_8  and  S_10
REMARK    3  A    between atoms: S_10  and  N_13
REMARK    4  A    between atoms: C_16  and  C_17
REMARK    5  A    between atoms: C_17  and  C_18
REMARK                            x       y       z     vdW  Elec       q    Type
REMARK                         _______ _______ _______ _____ _____    ______ ____
ROOT
ATOM      1  S   UNL     1     -34.463  24.268   2.972  0.00  0.00    -0.011 S 
ATOM      2  O   UNL     1     -36.404  20.012   2.631  0.00  0.00    -0.275 OA
ATOM      3  N   UNL     1     -34.975  21.800   2.096  0.00  0.00    -0.263 N 
ATOM      4  N   UNL     1     -36.219  22.718   4.010  0.00  0.00    -0.124 NA
ATOM      5  N   UNL     1     -36.268  23.887   4.748  0.00  0.00    -0.119 NA
ATOM      6  C   UNL     1     -35.520  20.529   1.954  0.00  0.00    +0.228 C 
ATOM      7  C   UNL     1     -35.319  22.784   3.052  0.00  0.00    +0.189 A 
ATOM      8  C   UNL     1     -35.404  24.777   4.311  0.00  0.00    +0.256 A 
ATOM      9  H   UNL     1     -34.268  22.044   1.456  0.00  0.00    +0.157 HD
ENDROOT
BRANCH   8  10
ATOM     10  S   UNL     1     -35.147  26.367   4.959  0.00  0.00    +0.081 S 
ATOM     11  O   UNL     1     -34.123  26.294   5.995  0.00  0.00    -0.151 OA
ATOM     12  O   UNL     1     -34.980  27.307   3.854  0.00  0.00    -0.151 OA
BRANCH  10  13
ATOM     13  N   UNL     1     -36.656  26.674   5.706  0.00  0.00    -0.202 NA
ATOM     14  H   UNL     1     -37.163  25.796   5.821  0.00  0.00    +0.144 HD
ATOM     15  H   UNL     1     -37.202  27.307   5.122  0.00  0.00    +0.144 HD
ENDBRANCH  10  13
ENDBRANCH   8  10
BRANCH   6  16
ATOM     16  C   UNL     1     -34.858  19.750   0.829  0.00  0.00    +0.090 C 
BRANCH  16  17
ATOM     17  C   UNL     1     -33.675  18.914   1.344  0.00  0.00    +0.036 C 
BRANCH  17  18
ATOM     18  C   UNL     1     -32.372  19.247   0.701  0.00  0.00    -0.022 C 
ATOM     19  C   UNL     1     -31.299  18.359   0.797  0.00  0.00    -0.004 C 
ATOM     20  C   UNL     1     -32.225  20.444   0.000  0.00  0.00    -0.004 C 
ATOM     21  C   UNL     1     -30.081  18.670   0.195  0.00  0.00    -0.000 C 
ATOM     22  C   UNL     1     -31.006  20.755  -0.601  0.00  0.00    -0.000 C 
ATOM     23  C   UNL     1     -29.934  19.867  -0.504  0.00  0.00    -0.000 C 
ENDBRANCH  17  18
ENDBRANCH  16  17
ENDBRANCH   6  16
TORSDOF 5
ENDMDL
MODEL 5
REMARK VINA RESULT:      -6.3      4.091      9.892
REMARK  Name = 54430554
REMARK  5 active torsions:
REMARK  status: ('A' for Active; 'I' for Inactive)
REMARK    1  A    between atoms: C_6  and  C_16
REMARK    2  A    between atoms: C_8  and  S_10
REMARK    3  A    between atoms: S_10  and  N_13
REMARK    4  A    between atoms: C_16  and  C_17
REMARK    5  A    between atoms: C_17  and  C_18
REMARK                            x       y       z     vdW  Elec       q    Type
REMARK                         _______ _______ _______ _____ _____    ______ ____
ROOT
ATOM      1  S   UNL     1     -38.326  22.391   1.922  0.00  0.00    -0.011 S 
ATOM      2  O   UNL     1     -40.428  26.343   3.321  0.00  0.00    -0.275 OA
ATOM      3  N   UNL     1     -40.102  24.376   2.076  0.00  0.00    -0.263 N 
ATOM      4  N   UNL     1     -38.137  24.354   3.557  0.00  0.00    -0.124 NA
ATOM      5  N   UNL     1     -37.030  23.559   3.798  0.00  0.00    -0.119 NA
ATOM      6  C   UNL     1     -40.762  25.539   2.455  0.00  0.00    +0.228 C 
ATOM      7  C   UNL     1     -38.895  23.858   2.602  0.00  0.00    +0.189 A 
ATOM      8  C   UNL     1     -37.008  22.504   3.013  0.00  0.00    +0.256 A 
ATOM      9  H   UNL     1     -40.523  23.852   1.357  0.00  0.00    +0.157 HD
ENDROOT
BRANCH   8  10
ATOM     10  S   UNL     1     -35.796  21.262   2.994  0.00  0.00    +0.081 S 
ATOM     11  O   UNL     1     -34.846  21.547   1.924  0.00  0.00    -0.151 OA
ATOM     12  O   UNL     1     -35.302  21.061   4.353  0.00  0.00    -0.151 OA
BRANCH  10  13
ATOM     13  N   UNL     1     -36.723  19.894   2.548  0.00  0.00    -0.202 NA
ATOM     14  H   UNL     1     -37.073  19.433   3.388  0.00  0.00    +0.144 HD
ATOM     15  H   UNL     1     -36.138  19.244   2.022  0.00  0.00    +0.144 HD
ENDBRANCH  10  13
ENDBRANCH   8  10
BRANCH   6  16
ATOM     16  C   UNL     1     -42.054  25.737   1.679  0.00  0.00    +0.090 C 
BRANCH  16  17
ATOM     17  C   UNL     1     -42.892  26.884   2.266  0.00  0.00    +0.036 C 
BRANCH  17  18
ATOM     18  C   UNL     1     -44.073  26.431   3.055  0.00  0.00    -0.022 C 
ATOM     19  C   UNL     1     -44.288  26.932   4.339  0.00  0.00    -0.004 C 
ATOM     20  C   UNL     1     -44.965  25.509   2.508  0.00  0.00    -0.004 C 
ATOM     21  C   UNL     1     -45.393  26.509   5.077  0.00  0.00    -0.000 C 
ATOM     22  C   UNL     1     -46.069  25.085   3.246  0.00  0.00    -0.000 C 
ATOM     23  C   UNL     1     -46.284  25.585   4.530  0.00  0.00    -0.000 C 
ENDBRANCH  17  18
ENDBRANCH  16  17
ENDBRANCH   6  16
TORSDOF 5
ENDMDL
MODEL 6
REMARK VINA RESULT:      -6.1      3.341      4.396
REMARK  Name = 54430554
REMARK  5 active torsions:
REMARK  status: ('A' for Active; 'I' for Inactive)
REMARK    1  A    between atoms: C_6  and  C_16
REMARK    2  A    between atoms: C_8  and  S_10
REMARK    3  A    between atoms: S_10  and  N_13
REMARK    4  A    between atoms: C_16  and  C_17
REMARK    5  A    between atoms: C_17  and  C_18
REMARK                            x       y       z     vdW  Elec       q    Type
REMARK                         _______ _______ _______ _____ _____    ______ ____
ROOT
ATOM      1  S   UNL     1     -39.593  24.864   2.978  0.00  0.00    -0.011 S 
ATOM      2  O   UNL     1     -38.847  20.834   0.697  0.00  0.00    -0.275 OA
ATOM      3  N   UNL     1     -38.436  22.584   2.210  0.00  0.00    -0.263 N 
ATOM      4  N   UNL     1     -40.562  23.297   1.196  0.00  0.00    -0.124 NA
ATOM      5  N   UNL     1     -41.456  24.350   1.295  0.00  0.00    -0.119 NA
ATOM      6  C   UNL     1     -38.172  21.385   1.561  0.00  0.00    +0.228 C 
ATOM      7  C   UNL     1     -39.545  23.442   2.020  0.00  0.00    +0.189 A 
ATOM      8  C   UNL     1     -41.069  25.236   2.188  0.00  0.00    +0.256 A 
ATOM      9  H   UNL     1     -37.775  22.872   2.881  0.00  0.00    +0.157 HD
ENDROOT
BRANCH   8  10
ATOM     10  S   UNL     1     -41.903  26.697   2.615  0.00  0.00    +0.081 S 
ATOM     11  O   UNL     1     -41.537  27.742   1.664  0.00  0.00    -0.151 OA
ATOM     12  O   UNL     1     -43.313  26.391   2.832  0.00  0.00    -0.151 OA
BRANCH  10  13
ATOM     13  N   UNL     1     -41.188  27.062   4.127  0.00  0.00    -0.202 NA
ATOM     14  H   UNL     1     -40.661  27.932   4.051  0.00  0.00    +0.144 HD
ATOM     15  H   UNL     1     -40.560  26.305   4.396  0.00  0.00    +0.144 HD
ENDBRANCH  10  13
ENDBRANCH   8  10
BRANCH   6  16
ATOM     16  C   UNL     1     -36.896  20.734   2.071  0.00  0.00    +0.090 C 
BRANCH  16  17
ATOM     17  C   UNL     1     -35.775  21.767   2.263  0.00  0.00    +0.036 C 
BRANCH  17  18
ATOM     18  C   UNL     1     -35.583  22.198   3.678  0.00  0.00    -0.022 C 
ATOM     19  C   UNL     1     -35.245  21.259   4.654  0.00  0.00    -0.004 C 
ATOM     20  C   UNL     1     -35.738  23.539   4.026  0.00  0.00    -0.004 C 
ATOM     21  C   UNL     1     -35.065  21.662   5.977  0.00  0.00    -0.000 C 
ATOM     22  C   UNL     1     -35.559  23.942   5.348  0.00  0.00    -0.000 C 
ATOM     23  C   UNL     1     -35.222  23.003   6.324  0.00  0.00    -0.000 C 
ENDBRANCH  17  18
ENDBRANCH  16  17
ENDBRANCH   6  16
TORSDOF 5
ENDMDL
MODEL 7
REMARK VINA RESULT:      -6.0      6.130      7.567
REMARK  Name = 54430554
REMARK  5 active torsions:
REMARK  status: ('A' for Active; 'I' for Inactive)
REMARK    1  A    between atoms: C_6  and  C_16
REMARK    2  A    between atoms: C_8  and  S_10
REMARK    3  A    between atoms: S_10  and  N_13
REMARK    4  A    between atoms: C_16  and  C_17
REMARK    5  A    between atoms: C_17  and  C_18
REMARK                            x       y       z     vdW  Elec       q    Type
REMARK                         _______ _______ _______ _____ _____    ______ ____
ROOT
ATOM      1  S   UNL     1     -35.287  22.834   2.832  0.00  0.00    -0.011 S 
ATOM      2  O   UNL     1     -36.055  26.267   5.934  0.00  0.00    -0.275 OA
ATOM      3  N   UNL     1     -34.821  24.822   4.550  0.00  0.00    -0.263 N 
ATOM      4  N   UNL     1     -37.127  24.089   4.100  0.00  0.00    -0.124 NA
ATOM      5  N   UNL     1     -37.782  23.148   3.324  0.00  0.00    -0.119 NA
ATOM      6  C   UNL     1     -34.998  25.847   5.472  0.00  0.00    +0.228 C 
ATOM      7  C   UNL     1     -35.822  24.031   3.937  0.00  0.00    +0.189 A 
ATOM      8  C   UNL     1     -36.939  22.428   2.615  0.00  0.00    +0.256 A 
ATOM      9  H   UNL     1     -33.892  24.622   4.294  0.00  0.00    +0.157 HD
ENDROOT
BRANCH   8  10
ATOM     10  S   UNL     1     -37.350  21.148   1.518  0.00  0.00    +0.081 S 
ATOM     11  O   UNL     1     -38.799  21.121   1.347  0.00  0.00    -0.151 OA
ATOM     12  O   UNL     1     -36.493  21.241   0.340  0.00  0.00    -0.151 OA
BRANCH  10  13
ATOM     13  N   UNL     1     -36.883  19.769   2.419  0.00  0.00    -0.202 NA
ATOM     14  H   UNL     1     -37.666  19.117   2.472  0.00  0.00    +0.144 HD
ATOM     15  H   UNL     1     -36.615  20.055   3.361  0.00  0.00    +0.144 HD
ENDBRANCH  10  13
ENDBRANCH   8  10
BRANCH   6  16
ATOM     16  C   UNL     1     -33.677  26.486   5.870  0.00  0.00    +0.090 C 
BRANCH  16  17
ATOM     17  C   UNL     1     -33.102  27.343   4.732  0.00  0.00    +0.036 C 
BRANCH  17  18
ATOM     18  C   UNL     1     -31.976  28.228   5.148  0.00  0.00    -0.022 C 
ATOM     19  C   UNL     1     -30.983  28.573   4.230  0.00  0.00    -0.004 C 
ATOM     20  C   UNL     1     -31.915  28.712   6.454  0.00  0.00    -0.004 C 
ATOM     21  C   UNL     1     -29.931  29.401   4.619  0.00  0.00    -0.000 C 
ATOM     22  C   UNL     1     -30.863  29.539   6.844  0.00  0.00    -0.000 C 
ATOM     23  C   UNL     1     -29.870  29.884   5.926  0.00  0.00    -0.000 C 
ENDBRANCH  17  18
ENDBRANCH  16  17
ENDBRANCH   6  16
TORSDOF 5
ENDMDL
MODEL 8
REMARK VINA RESULT:      -5.9      5.505      8.911
REMARK  Name = 54430554
REMARK  5 active torsions:
REMARK  status: ('A' for Active; 'I' for Inactive)
REMARK    1  A    between atoms: C_6  and  C_16
REMARK    2  A    between atoms: C_8  and  S_10
REMARK    3  A    between atoms: S_10  and  N_13
REMARK    4  A    between atoms: C_16  and  C_17
REMARK    5  A    between atoms: C_17  and  C_18
REMARK                            x       y       z     vdW  Elec       q    Type
REMARK                         _______ _______ _______ _____ _____    ______ ____
ROOT
ATOM      1  S   UNL     1     -32.580  18.230   1.028  0.00  0.00    -0.011 S 
ATOM      2  O   UNL     1     -37.147  19.040   0.336  0.00  0.00    -0.275 OA
ATOM      3  N   UNL     1     -34.989  19.362   1.210  0.00  0.00    -0.263 N 
ATOM      4  N   UNL     1     -34.653  17.391  -0.223  0.00  0.00    -0.124 NA
ATOM      5  N   UNL     1     -33.625  16.538  -0.588  0.00  0.00    -0.119 NA
ATOM      6  C   UNL     1     -36.340  19.642   1.038  0.00  0.00    +0.228 C 
ATOM      7  C   UNL     1     -34.242  18.318   0.616  0.00  0.00    +0.189 A 
ATOM      8  C   UNL     1     -32.491  16.865  -0.006  0.00  0.00    +0.256 A 
ATOM      9  H   UNL     1     -34.495  19.959   1.817  0.00  0.00    +0.157 HD
ENDROOT
BRANCH   8  10
ATOM     10  S   UNL     1     -30.967  16.055  -0.195  0.00  0.00    +0.081 S 
ATOM     11  O   UNL     1     -30.603  16.061  -1.608  0.00  0.00    -0.151 OA
ATOM     12  O   UNL     1     -30.026  16.583   0.787  0.00  0.00    -0.151 OA
BRANCH  10  13
ATOM     13  N   UNL     1     -31.378  14.455   0.255  0.00  0.00    -0.202 NA
ATOM     14  H   UNL     1     -30.679  14.096   0.904  0.00  0.00    +0.144 HD
ATOM     15  H   UNL     1     -31.405  13.866  -0.577  0.00  0.00    +0.144 HD
ENDBRANCH  10  13
ENDBRANCH   8  10
BRANCH   6  16
ATOM     16  C   UNL     1     -36.768  20.874   1.819  0.00  0.00    +0.090 C 
BRANCH  16  17
ATOM     17  C   UNL     1     -35.575  21.797   2.111  0.00  0.00    +0.036 C 
BRANCH  17  18
ATOM     18  C   UNL     1     -35.467  22.217   3.538  0.00  0.00    -0.022 C 
ATOM     19  C   UNL     1     -35.610  23.561   3.883  0.00  0.00    -0.004 C 
ATOM     20  C   UNL     1     -35.225  21.265   4.528  0.00  0.00    -0.004 C 
ATOM     21  C   UNL     1     -35.510  23.953   5.218  0.00  0.00    -0.000 C 
ATOM     22  C   UNL     1     -35.124  21.656   5.862  0.00  0.00    -0.000 C 
ATOM     23  C   UNL     1     -35.267  23.001   6.207  0.00  0.00    -0.000 C 
ENDBRANCH  17  18
ENDBRANCH  16  17
ENDBRANCH   6  16
TORSDOF 5
ENDMDL
MODEL 9
REMARK VINA RESULT:      -5.9      4.973      7.427
REMARK  Name = 54430554
REMARK  5 active torsions:
REMARK  status: ('A' for Active; 'I' for Inactive)
REMARK    1  A    between atoms: C_6  and  C_16
REMARK    2  A    between atoms: C_8  and  S_10
REMARK    3  A    between atoms: S_10  and  N_13
REMARK    4  A    between atoms: C_16  and  C_17
REMARK    5  A    between atoms: C_17  and  C_18
REMARK                            x       y       z     vdW  Elec       q    Type
REMARK                         _______ _______ _______ _____ _____    ______ ____
ROOT
ATOM      1  S   UNL     1     -34.950  20.238   1.875  0.00  0.00    -0.011 S 
ATOM      2  O   UNL     1     -37.041  23.672   4.290  0.00  0.00    -0.275 OA
ATOM      3  N   UNL     1     -35.317  22.220   3.623  0.00  0.00    -0.263 N 
ATOM      4  N   UNL     1     -37.160  21.504   2.159  0.00  0.00    -0.124 NA
ATOM      5  N   UNL     1     -37.389  20.569   1.164  0.00  0.00    -0.119 NA
ATOM      6  C   UNL     1     -35.892  23.245   4.365  0.00  0.00    +0.228 C 
ATOM      7  C   UNL     1     -35.927  21.437   2.615  0.00  0.00    +0.189 A 
ATOM      8  C   UNL     1     -36.319  19.844   0.920  0.00  0.00    +0.256 A 
ATOM      9  H   UNL     1     -34.375  22.015   3.822  0.00  0.00    +0.157 HD
ENDROOT
BRANCH   8  10
ATOM     10  S   UNL     1     -36.185  18.568  -0.249  0.00  0.00    +0.081 S 
ATOM     11  O   UNL     1     -36.656  19.061  -1.540  0.00  0.00    -0.151 OA
ATOM     12  O   UNL     1     -34.855  17.975  -0.153  0.00  0.00    -0.151 OA
BRANCH  10  13
ATOM     13  N   UNL     1     -37.325  17.441   0.351  0.00  0.00    -0.202 NA
ATOM     14  H   UNL     1     -37.922  17.897   1.040  0.00  0.00    +0.144 HD
ATOM     15  H   UNL     1     -36.834  16.662   0.789  0.00  0.00    +0.144 HD
ENDBRANCH  10  13
ENDBRANCH   8  10
BRANCH   6  16
ATOM     16  C   UNL     1     -34.899  23.874   5.329  0.00  0.00    +0.090 C 
BRANCH  16  17
ATOM     17  C   UNL     1     -35.284  25.323   5.666  0.00  0.00    +0.036 C 
BRANCH  17  18
ATOM     18  C   UNL     1     -34.166  26.299   5.515  0.00  0.00    -0.022 C 
ATOM     19  C   UNL     1     -33.896  26.864   4.268  0.00  0.00    -0.004 C 
ATOM     20  C   UNL     1     -33.391  26.647   6.621  0.00  0.00    -0.004 C 
ATOM     21  C   UNL     1     -32.850  27.776   4.128  0.00  0.00    -0.000 C 
ATOM     22  C   UNL     1     -32.345  27.559   6.480  0.00  0.00    -0.000 C 
ATOM     23  C   UNL     1     -32.075  28.124   5.233  0.00  0.00    -0.000 C 
ENDBRANCH  17  18
ENDBRANCH  16  17
ENDBRANCH   6  16
TORSDOF 5
ENDMDL
