MODEL 1
REMARK VINA RESULT:      -6.4      0.000      0.000
REMARK  Name = 189751
REMARK  12 active torsions:
REMARK  status: ('A' for Active; 'I' for Inactive)
REMARK    1  A    between atoms: C_1  and  C_4
REMARK    2  A    between atoms: C_1  and  N_16
REMARK    3  A    between atoms: C_1  and  C_27
REMARK    4  A    between atoms: N_3  and  C_6
REMARK    5  A    between atoms: C_11  and  N_14
REMARK    6  A    between atoms: C_17  and  O_19
REMARK    7  A    between atoms: O_19  and  C_20
REMARK    8  A    between atoms: C_20  and  C_21
REMARK    9  A    between atoms: C_27  and  C_28
REMARK   10  A    between atoms: C_28  and  C_29
REMARK   11  A    between atoms: C_29  and  C_30
REMARK   12  A    between atoms: C_30  and  N_31
REMARK                            x       y       z     vdW  Elec       q    Type
REMARK                         _______ _______ _______ _____ _____    ______ ____
ROOT
ATOM      1  C   UNL     1     -32.474  29.595   3.610  0.00  0.00    +0.151 C 
ENDROOT
BRANCH   1   4
ATOM      2  O   UNL     1     -31.479  27.465   4.154  0.00  0.00    -0.273 OA
ATOM      3  N   UNL     1     -33.815  27.631   4.011  0.00  0.00    -0.283 N 
ATOM      4  C   UNL     1     -32.508  28.108   3.969  0.00  0.00    +0.244 C 
ATOM      5  H   UNL     1     -34.524  28.285   3.811  0.00  0.00    +0.155 HD
BRANCH   3   6
ATOM      6  C   UNL     1     -34.244  26.315   4.306  0.00  0.00    +0.050 C 
ATOM      7  C   UNL     1     -34.608  25.975   5.609  0.00  0.00    +0.016 C 
ATOM      8  C   UNL     1     -34.305  25.358   3.292  0.00  0.00    +0.016 C 
ATOM      9  C   UNL     1     -35.031  24.678   5.897  0.00  0.00    +0.025 C 
ATOM     10  C   UNL     1     -34.729  24.061   3.581  0.00  0.00    +0.025 C 
ATOM     11  C   UNL     1     -35.092  23.721   4.884  0.00  0.00    +0.143 C 
BRANCH  11  14
ATOM     12  O   UNL     1     -35.995  22.155   6.316  0.00  0.00    -0.126 OA
ATOM     13  O   UNL     1     -35.425  21.516   4.295  0.00  0.00    -0.126 OA
ATOM     14  N   UNL     1     -35.524  22.401   5.179  0.00  0.00    +0.058 N 
ENDBRANCH  11  14
ENDBRANCH   3   6
ENDBRANCH   1   4
BRANCH   1  16
ATOM     15  O   UNL     1     -33.588  31.484   1.705  0.00  0.00    -0.226 OA
ATOM     16  N   UNL     1     -33.825  30.091   3.547  0.00  0.00    -0.264 N 
ATOM     17  C   UNL     1     -34.270  30.994   2.601  0.00  0.00    +0.402 C 
ATOM     18  H   UNL     1     -34.469  29.769   4.218  0.00  0.00    +0.153 HD
BRANCH  17  19
ATOM     19  O   UNL     1     -35.593  31.267   2.805  0.00  0.00    -0.430 OA
BRANCH  19  20
ATOM     20  C   UNL     1     -36.391  31.411   1.625  0.00  0.00    +0.237 C 
BRANCH  20  21
ATOM     21  C   UNL     1     -36.948  32.804   1.579  0.00  0.00    +0.021 C 
ATOM     22  C   UNL     1     -36.147  33.861   1.143  0.00  0.00    -0.001 C 
ATOM     23  C   UNL     1     -38.265  33.043   1.971  0.00  0.00    -0.001 C 
ATOM     24  C   UNL     1     -36.665  35.155   1.099  0.00  0.00    -0.000 C 
ATOM     25  C   UNL     1     -38.781  34.337   1.928  0.00  0.00    -0.000 C 
ATOM     26  C   UNL     1     -37.982  35.394   1.492  0.00  0.00    -0.000 C 
ENDBRANCH  20  21
ENDBRANCH  19  20
ENDBRANCH  17  19
ENDBRANCH   1  16
BRANCH   1  27
ATOM     27  C   UNL     1     -31.601  30.416   4.568  0.00  0.00    +0.029 C 
BRANCH  27  28
ATOM     28  C   UNL     1     -32.192  30.568   5.977  0.00  0.00    +0.000 C 
BRANCH  28  29
ATOM     29  C   UNL     1     -31.482  29.704   7.026  0.00  0.00    -0.024 C 
BRANCH  29  30
ATOM     30  C   UNL     1     -30.017  29.429   6.690  0.00  0.00    -0.086 C 
BRANCH  30  31
ATOM     31  N   UNL     1     -29.756  27.994   6.710  0.00  0.00    +0.380 N 
ATOM     32  H   UNL     1     -28.924  27.790   6.156  0.00  0.00    -0.089 HD
ATOM     33  H   UNL     1     -30.556  27.497   6.317  0.00  0.00    -0.089 HD
ATOM     34  H   UNL     1     -29.607  27.688   7.673  0.00  0.00    -0.089 HD
ENDBRANCH  30  31
ENDBRANCH  29  30
ENDBRANCH  28  29
ENDBRANCH  27  28
ENDBRANCH   1  27
TORSDOF 12
ENDMDL
MODEL 2
REMARK VINA RESULT:      -6.2      5.283     10.006
REMARK  Name = 189751
REMARK  12 active torsions:
REMARK  status: ('A' for Active; 'I' for Inactive)
REMARK    1  A    between atoms: C_1  and  C_4
REMARK    2  A    between atoms: C_1  and  N_16
REMARK    3  A    between atoms: C_1  and  C_27
REMARK    4  A    between atoms: N_3  and  C_6
REMARK    5  A    between atoms: C_11  and  N_14
REMARK    6  A    between atoms: C_17  and  O_19
REMARK    7  A    between atoms: O_19  and  C_20
REMARK    8  A    between atoms: C_20  and  C_21
REMARK    9  A    between atoms: C_27  and  C_28
REMARK   10  A    between atoms: C_28  and  C_29
REMARK   11  A    between atoms: C_29  and  C_30
REMARK   12  A    between atoms: C_30  and  N_31
REMARK                            x       y       z     vdW  Elec       q    Type
REMARK                         _______ _______ _______ _____ _____    ______ ____
ROOT
ATOM      1  C   UNL     1     -36.022  23.484   3.857  0.00  0.00    +0.151 C 
ENDROOT
BRANCH   1   4
ATOM      2  O   UNL     1     -36.810  25.570   2.933  0.00  0.00    -0.273 OA
ATOM      3  N   UNL     1     -38.289  23.754   3.078  0.00  0.00    -0.283 N 
ATOM      4  C   UNL     1     -37.067  24.405   3.224  0.00  0.00    +0.244 C 
ATOM      5  H   UNL     1     -38.324  22.820   3.390  0.00  0.00    +0.155 HD
BRANCH   3   6
ATOM      6  C   UNL     1     -39.486  24.277   2.536  0.00  0.00    +0.050 C 
ATOM      7  C   UNL     1     -40.108  25.370   3.141  0.00  0.00    +0.016 C 
ATOM      8  C   UNL     1     -40.046  23.700   1.395  0.00  0.00    +0.016 C 
ATOM      9  C   UNL     1     -41.288  25.885   2.605  0.00  0.00    +0.025 C 
ATOM     10  C   UNL     1     -41.226  24.216   0.860  0.00  0.00    +0.025 C 
ATOM     11  C   UNL     1     -41.846  25.308   1.464  0.00  0.00    +0.143 C 
BRANCH  11  14
ATOM     12  O   UNL     1     -43.406  26.993   1.244  0.00  0.00    -0.126 OA
ATOM     13  O   UNL     1     -43.717  25.129   0.127  0.00  0.00    -0.126 OA
ATOM     14  N   UNL     1     -43.047  25.834   0.919  0.00  0.00    +0.058 N 
ENDBRANCH  11  14
ENDBRANCH   3   6
ENDBRANCH   1   4
BRANCH   1  16
ATOM     15  O   UNL     1     -35.126  20.861   4.722  0.00  0.00    -0.226 OA
ATOM     16  N   UNL     1     -35.919  22.283   3.069  0.00  0.00    -0.264 N 
ATOM     17  C   UNL     1     -35.480  21.072   3.567  0.00  0.00    +0.402 C 
ATOM     18  H   UNL     1     -36.177  22.328   2.121  0.00  0.00    +0.153 HD
BRANCH  17  19
ATOM     19  O   UNL     1     -35.496  20.130   2.577  0.00  0.00    -0.430 OA
BRANCH  19  20
ATOM     20  C   UNL     1     -35.077  20.576   1.283  0.00  0.00    +0.237 C 
BRANCH  20  21
ATOM     21  C   UNL     1     -33.726  19.998   0.980  0.00  0.00    +0.021 C 
ATOM     22  C   UNL     1     -33.379  18.740   1.475  0.00  0.00    -0.001 C 
ATOM     23  C   UNL     1     -32.817  20.718   0.204  0.00  0.00    -0.001 C 
ATOM     24  C   UNL     1     -32.123  18.203   1.193  0.00  0.00    -0.000 C 
ATOM     25  C   UNL     1     -31.561  20.180  -0.077  0.00  0.00    -0.000 C 
ATOM     26  C   UNL     1     -31.214  18.923   0.417  0.00  0.00    -0.000 C 
ENDBRANCH  20  21
ENDBRANCH  19  20
ENDBRANCH  17  19
ENDBRANCH   1  16
BRANCH   1  27
ATOM     27  C   UNL     1     -34.663  24.171   4.044  0.00  0.00    +0.029 C 
BRANCH  27  28
ATOM     28  C   UNL     1     -34.374  24.603   5.488  0.00  0.00    +0.000 C 
BRANCH  28  29
ATOM     29  C   UNL     1     -34.269  26.123   5.655  0.00  0.00    -0.024 C 
BRANCH  29  30
ATOM     30  C   UNL     1     -33.932  26.851   4.355  0.00  0.00    -0.086 C 
BRANCH  30  31
ATOM     31  N   UNL     1     -35.033  27.727   3.968  0.00  0.00    +0.380 N 
ATOM     32  H   UNL     1     -35.432  28.160   4.801  0.00  0.00    -0.089 HD
ATOM     33  H   UNL     1     -35.751  27.181   3.492  0.00  0.00    -0.089 HD
ATOM     34  H   UNL     1     -34.686  28.453   3.341  0.00  0.00    -0.089 HD
ENDBRANCH  30  31
ENDBRANCH  29  30
ENDBRANCH  28  29
ENDBRANCH  27  28
ENDBRANCH   1  27
TORSDOF 12
ENDMDL
MODEL 3
REMARK VINA RESULT:      -6.1      5.124      8.656
REMARK  Name = 189751
REMARK  12 active torsions:
REMARK  status: ('A' for Active; 'I' for Inactive)
REMARK    1  A    between atoms: C_1  and  C_4
REMARK    2  A    between atoms: C_1  and  N_16
REMARK    3  A    between atoms: C_1  and  C_27
REMARK    4  A    between atoms: N_3  and  C_6
REMARK    5  A    between atoms: C_11  and  N_14
REMARK    6  A    between atoms: C_17  and  O_19
REMARK    7  A    between atoms: O_19  and  C_20
REMARK    8  A    between atoms: C_20  and  C_21
REMARK    9  A    between atoms: C_27  and  C_28
REMARK   10  A    between atoms: C_28  and  C_29
REMARK   11  A    between atoms: C_29  and  C_30
REMARK   12  A    between atoms: C_30  and  N_31
REMARK                            x       y       z     vdW  Elec       q    Type
REMARK                         _______ _______ _______ _____ _____    ______ ____
ROOT
ATOM      1  C   UNL     1     -35.859  22.495   2.442  0.00  0.00    +0.151 C 
ENDROOT
BRANCH   1   4
ATOM      2  O   UNL     1     -35.394  20.380   3.509  0.00  0.00    -0.273 OA
ATOM      3  N   UNL     1     -34.891  20.647   1.232  0.00  0.00    -0.283 N 
ATOM      4  C   UNL     1     -35.370  21.045   2.476  0.00  0.00    +0.244 C 
ATOM      5  H   UNL     1     -34.925  21.322   0.516  0.00  0.00    +0.155 HD
BRANCH   3   6
ATOM      6  C   UNL     1     -34.359  19.385   0.876  0.00  0.00    +0.050 C 
ATOM      7  C   UNL     1     -33.105  18.997   1.349  0.00  0.00    +0.016 C 
ATOM      8  C   UNL     1     -35.089  18.528   0.051  0.00  0.00    +0.016 C 
ATOM      9  C   UNL     1     -32.582  17.753   0.998  0.00  0.00    +0.025 C 
ATOM     10  C   UNL     1     -34.565  17.283  -0.299  0.00  0.00    +0.025 C 
ATOM     11  C   UNL     1     -33.312  16.896   0.174  0.00  0.00    +0.143 C 
BRANCH  11  14
ATOM     12  O   UNL     1     -33.422  14.900  -0.977  0.00  0.00    -0.126 OA
ATOM     13  O   UNL     1     -31.679  15.273   0.305  0.00  0.00    -0.126 OA
ATOM     14  N   UNL     1     -32.779  15.629  -0.182  0.00  0.00    +0.058 N 
ENDBRANCH  11  14
ENDBRANCH   3   6
ENDBRANCH   1   4
BRANCH   1  16
ATOM     15  O   UNL     1     -36.293  23.157   5.236  0.00  0.00    -0.226 OA
ATOM     16  N   UNL     1     -35.019  23.291   3.301  0.00  0.00    -0.264 N 
ATOM     17  C   UNL     1     -35.306  23.556   4.626  0.00  0.00    +0.402 C 
ATOM     18  H   UNL     1     -34.193  23.667   2.921  0.00  0.00    +0.153 HD
BRANCH  17  19
ATOM     19  O   UNL     1     -34.321  24.334   5.167  0.00  0.00    -0.430 OA
BRANCH  19  20
ATOM     20  C   UNL     1     -34.755  25.550   5.785  0.00  0.00    +0.237 C 
BRANCH  20  21
ATOM     21  C   UNL     1     -33.692  26.595   5.609  0.00  0.00    +0.021 C 
ATOM     22  C   UNL     1     -32.959  27.036   6.711  0.00  0.00    -0.001 C 
ATOM     23  C   UNL     1     -33.438  27.125   4.344  0.00  0.00    -0.001 C 
ATOM     24  C   UNL     1     -31.971  28.007   6.547  0.00  0.00    -0.000 C 
ATOM     25  C   UNL     1     -32.450  28.096   4.181  0.00  0.00    -0.000 C 
ATOM     26  C   UNL     1     -31.716  28.537   5.282  0.00  0.00    -0.000 C 
ENDBRANCH  20  21
ENDBRANCH  19  20
ENDBRANCH  17  19
ENDBRANCH   1  16
BRANCH   1  27
ATOM     27  C   UNL     1     -35.932  23.063   1.019  0.00  0.00    +0.029 C 
BRANCH  27  28
ATOM     28  C   UNL     1     -36.590  24.446   0.930  0.00  0.00    +0.000 C 
BRANCH  28  29
ATOM     29  C   UNL     1     -37.954  24.512   1.627  0.00  0.00    -0.024 C 
BRANCH  29  30
ATOM     30  C   UNL     1     -38.021  25.573   2.724  0.00  0.00    -0.086 C 
BRANCH  30  31
ATOM     31  N   UNL     1     -38.466  24.973   3.978  0.00  0.00    +0.380 N 
ATOM     32  H   UNL     1     -37.662  24.816   4.584  0.00  0.00    -0.089 HD
ATOM     33  H   UNL     1     -38.927  24.084   3.785  0.00  0.00    -0.089 HD
ATOM     34  H   UNL     1     -39.123  25.602   4.442  0.00  0.00    -0.089 HD
ENDBRANCH  30  31
ENDBRANCH  29  30
ENDBRANCH  28  29
ENDBRANCH  27  28
ENDBRANCH   1  27
TORSDOF 12
ENDMDL
MODEL 4
REMARK VINA RESULT:      -6.1      3.126      9.607
REMARK  Name = 189751
REMARK  12 active torsions:
REMARK  status: ('A' for Active; 'I' for Inactive)
REMARK    1  A    between atoms: C_1  and  C_4
REMARK    2  A    between atoms: C_1  and  N_16
REMARK    3  A    between atoms: C_1  and  C_27
REMARK    4  A    between atoms: N_3  and  C_6
REMARK    5  A    between atoms: C_11  and  N_14
REMARK    6  A    between atoms: C_17  and  O_19
REMARK    7  A    between atoms: O_19  and  C_20
REMARK    8  A    between atoms: C_20  and  C_21
REMARK    9  A    between atoms: C_27  and  C_28
REMARK   10  A    between atoms: C_28  and  C_29
REMARK   11  A    between atoms: C_29  and  C_30
REMARK   12  A    between atoms: C_30  and  N_31
REMARK                            x       y       z     vdW  Elec       q    Type
REMARK                         _______ _______ _______ _____ _____    ______ ____
ROOT
ATOM      1  C   UNL     1     -35.072  28.566   2.368  0.00  0.00    +0.151 C 
ENDROOT
BRANCH   1   4
ATOM      2  O   UNL     1     -34.976  30.593   3.676  0.00  0.00    -0.273 OA
ATOM      3  N   UNL     1     -36.088  30.618   1.610  0.00  0.00    -0.283 N 
ATOM      4  C   UNL     1     -35.352  30.045   2.643  0.00  0.00    +0.244 C 
ATOM      5  H   UNL     1     -36.327  30.022   0.864  0.00  0.00    +0.155 HD
BRANCH   3   6
ATOM      6  C   UNL     1     -36.536  31.957   1.509  0.00  0.00    +0.050 C 
ATOM      7  C   UNL     1     -35.635  32.971   1.183  0.00  0.00    +0.016 C 
ATOM      8  C   UNL     1     -37.879  32.262   1.734  0.00  0.00    +0.016 C 
ATOM      9  C   UNL     1     -36.078  34.290   1.082  0.00  0.00    +0.025 C 
ATOM     10  C   UNL     1     -38.321  33.581   1.633  0.00  0.00    +0.025 C 
ATOM     11  C   UNL     1     -37.420  34.595   1.307  0.00  0.00    +0.143 C 
BRANCH  11  14
ATOM     12  O   UNL     1     -37.500  36.629   0.223  0.00  0.00    -0.126 OA
ATOM     13  O   UNL     1     -38.624  36.397   2.094  0.00  0.00    -0.126 OA
ATOM     14  N   UNL     1     -37.869  35.938   1.204  0.00  0.00    +0.058 N 
ENDBRANCH  11  14
ENDBRANCH   3   6
ENDBRANCH   1   4
BRANCH   1  16
ATOM     15  O   UNL     1     -33.182  26.852   3.756  0.00  0.00    -0.226 OA
ATOM     16  N   UNL     1     -35.286  27.818   3.580  0.00  0.00    -0.264 N 
ATOM     17  C   UNL     1     -34.324  27.024   4.173  0.00  0.00    +0.402 C 
ATOM     18  H   UNL     1     -36.168  27.876   4.012  0.00  0.00    +0.153 HD
BRANCH  17  19
ATOM     19  O   UNL     1     -34.829  26.449   5.306  0.00  0.00    -0.430 OA
BRANCH  19  20
ATOM     20  C   UNL     1     -36.067  25.747   5.150  0.00  0.00    +0.237 C 
BRANCH  20  21
ATOM     21  C   UNL     1     -35.782  24.283   4.985  0.00  0.00    +0.021 C 
ATOM     22  C   UNL     1     -35.929  23.681   3.734  0.00  0.00    -0.001 C 
ATOM     23  C   UNL     1     -35.370  23.524   6.080  0.00  0.00    -0.001 C 
ATOM     24  C   UNL     1     -35.663  22.320   3.581  0.00  0.00    -0.000 C 
ATOM     25  C   UNL     1     -35.105  22.163   5.926  0.00  0.00    -0.000 C 
ATOM     26  C   UNL     1     -35.251  21.561   4.676  0.00  0.00    -0.000 C 
ENDBRANCH  20  21
ENDBRANCH  19  20
ENDBRANCH  17  19
ENDBRANCH   1  16
BRANCH   1  27
ATOM     27  C   UNL     1     -35.896  28.015   1.197  0.00  0.00    +0.029 C 
BRANCH  27  28
ATOM     28  C   UNL     1     -36.499  26.627   1.456  0.00  0.00    +0.000 C 
BRANCH  28  29
ATOM     29  C   UNL     1     -38.031  26.613   1.395  0.00  0.00    -0.024 C 
BRANCH  29  30
ATOM     30  C   UNL     1     -38.660  25.538   2.280  0.00  0.00    -0.086 C 
BRANCH  30  31
ATOM     31  N   UNL     1     -39.228  26.144   3.480  0.00  0.00    +0.380 N 
ATOM     32  H   UNL     1     -38.879  25.657   4.305  0.00  0.00    -0.089 HD
ATOM     33  H   UNL     1     -40.245  26.073   3.448  0.00  0.00    -0.089 HD
ATOM     34  H   UNL     1     -38.958  27.127   3.526  0.00  0.00    -0.089 HD
ENDBRANCH  30  31
ENDBRANCH  29  30
ENDBRANCH  28  29
ENDBRANCH  27  28
ENDBRANCH   1  27
TORSDOF 12
ENDMDL
MODEL 5
REMARK VINA RESULT:      -6.0      1.591      2.204
REMARK  Name = 189751
REMARK  12 active torsions:
REMARK  status: ('A' for Active; 'I' for Inactive)
REMARK    1  A    between atoms: C_1  and  C_4
REMARK    2  A    between atoms: C_1  and  N_16
REMARK    3  A    between atoms: C_1  and  C_27
REMARK    4  A    between atoms: N_3  and  C_6
REMARK    5  A    between atoms: C_11  and  N_14
REMARK    6  A    between atoms: C_17  and  O_19
REMARK    7  A    between atoms: O_19  and  C_20
REMARK    8  A    between atoms: C_20  and  C_21
REMARK    9  A    between atoms: C_27  and  C_28
REMARK   10  A    between atoms: C_28  and  C_29
REMARK   11  A    between atoms: C_29  and  C_30
REMARK   12  A    between atoms: C_30  and  N_31
REMARK                            x       y       z     vdW  Elec       q    Type
REMARK                         _______ _______ _______ _____ _____    ______ ____
ROOT
ATOM      1  C   UNL     1     -34.354  30.028   2.592  0.00  0.00    +0.151 C 
ENDROOT
BRANCH   1   4
ATOM      2  O   UNL     1     -33.875  27.853   1.661  0.00  0.00    -0.273 OA
ATOM      3  N   UNL     1     -34.953  27.994   3.741  0.00  0.00    -0.283 N 
ATOM      4  C   UNL     1     -34.345  28.498   2.595  0.00  0.00    +0.244 C 
ATOM      5  H   UNL     1     -35.298  28.660   4.379  0.00  0.00    +0.155 HD
BRANCH   3   6
ATOM      6  C   UNL     1     -35.133  26.636   4.096  0.00  0.00    +0.050 C 
ATOM      7  C   UNL     1     -36.400  26.057   4.017  0.00  0.00    +0.016 C 
ATOM      8  C   UNL     1     -34.044  25.876   4.525  0.00  0.00    +0.016 C 
ATOM      9  C   UNL     1     -36.576  24.718   4.366  0.00  0.00    +0.025 C 
ATOM     10  C   UNL     1     -34.222  24.538   4.874  0.00  0.00    +0.025 C 
ATOM     11  C   UNL     1     -35.487  23.959   4.794  0.00  0.00    +0.143 C 
BRANCH  11  14
ATOM     12  O   UNL     1     -36.015  22.313   6.322  0.00  0.00    -0.126 OA
ATOM     13  O   UNL     1     -35.479  21.710   4.281  0.00  0.00    -0.126 OA
ATOM     14  N   UNL     1     -35.668  22.596   5.149  0.00  0.00    +0.058 N 
ENDBRANCH  11  14
ENDBRANCH   3   6
ENDBRANCH   1   4
BRANCH   1  16
ATOM     15  O   UNL     1     -35.439  32.314   1.167  0.00  0.00    -0.226 OA
ATOM     16  N   UNL     1     -35.719  30.487   2.570  0.00  0.00    -0.264 N 
ATOM     17  C   UNL     1     -36.148  31.591   1.860  0.00  0.00    +0.402 C 
ATOM     18  H   UNL     1     -36.385  29.984   3.092  0.00  0.00    +0.153 HD
BRANCH  17  19
ATOM     19  O   UNL     1     -37.491  31.766   2.041  0.00  0.00    -0.430 OA
BRANCH  19  20
ATOM     20  C   UNL     1     -38.196  32.365   0.948  0.00  0.00    +0.237 C 
BRANCH  20  21
ATOM     21  C   UNL     1     -39.013  33.514   1.463  0.00  0.00    +0.021 C 
ATOM     22  C   UNL     1     -40.374  33.590   1.164  0.00  0.00    -0.001 C 
ATOM     23  C   UNL     1     -38.412  34.504   2.239  0.00  0.00    -0.001 C 
ATOM     24  C   UNL     1     -41.134  34.657   1.643  0.00  0.00    -0.000 C 
ATOM     25  C   UNL     1     -39.172  35.572   2.717  0.00  0.00    -0.000 C 
ATOM     26  C   UNL     1     -40.533  35.648   2.420  0.00  0.00    -0.000 C 
ENDBRANCH  20  21
ENDBRANCH  19  20
ENDBRANCH  17  19
ENDBRANCH   1  16
BRANCH   1  27
ATOM     27  C   UNL     1     -33.561  30.628   3.761  0.00  0.00    +0.029 C 
BRANCH  27  28
ATOM     28  C   UNL     1     -32.063  30.295   3.736  0.00  0.00    +0.000 C 
BRANCH  28  29
ATOM     29  C   UNL     1     -31.615  29.434   4.922  0.00  0.00    -0.024 C 
BRANCH  29  30
ATOM     30  C   UNL     1     -31.791  30.127   6.272  0.00  0.00    -0.086 C 
BRANCH  30  31
ATOM     31  N   UNL     1     -31.688  29.153   7.355  0.00  0.00    +0.380 N 
ATOM     32  H   UNL     1     -30.934  28.497   7.153  0.00  0.00    -0.089 HD
ATOM     33  H   UNL     1     -32.568  28.644   7.438  0.00  0.00    -0.089 HD
ATOM     34  H   UNL     1     -31.492  29.638   8.231  0.00  0.00    -0.089 HD
ENDBRANCH  30  31
ENDBRANCH  29  30
ENDBRANCH  28  29
ENDBRANCH  27  28
ENDBRANCH   1  27
TORSDOF 12
ENDMDL
MODEL 6
REMARK VINA RESULT:      -6.0      5.419      7.917
REMARK  Name = 189751
REMARK  12 active torsions:
REMARK  status: ('A' for Active; 'I' for Inactive)
REMARK    1  A    between atoms: C_1  and  C_4
REMARK    2  A    between atoms: C_1  and  N_16
REMARK    3  A    between atoms: C_1  and  C_27
REMARK    4  A    between atoms: N_3  and  C_6
REMARK    5  A    between atoms: C_11  and  N_14
REMARK    6  A    between atoms: C_17  and  O_19
REMARK    7  A    between atoms: O_19  and  C_20
REMARK    8  A    between atoms: C_20  and  C_21
REMARK    9  A    between atoms: C_27  and  C_28
REMARK   10  A    between atoms: C_28  and  C_29
REMARK   11  A    between atoms: C_29  and  C_30
REMARK   12  A    between atoms: C_30  and  N_31
REMARK                            x       y       z     vdW  Elec       q    Type
REMARK                         _______ _______ _______ _____ _____    ______ ____
ROOT
ATOM      1  C   UNL     1     -35.839  22.861   3.980  0.00  0.00    +0.151 C 
ENDROOT
BRANCH   1   4
ATOM      2  O   UNL     1     -35.105  20.611   4.450  0.00  0.00    -0.273 OA
ATOM      3  N   UNL     1     -35.409  21.271   2.219  0.00  0.00    -0.283 N 
ATOM      4  C   UNL     1     -35.417  21.441   3.600  0.00  0.00    +0.244 C 
ATOM      5  H   UNL     1     -35.666  22.056   1.682  0.00  0.00    +0.155 HD
BRANCH   3   6
ATOM      6  C   UNL     1     -35.074  20.102   1.495  0.00  0.00    +0.050 C 
ATOM      7  C   UNL     1     -33.815  19.521   1.651  0.00  0.00    +0.016 C 
ATOM      8  C   UNL     1     -36.003  19.530   0.625  0.00  0.00    +0.016 C 
ATOM      9  C   UNL     1     -33.486  18.369   0.937  0.00  0.00    +0.025 C 
ATOM     10  C   UNL     1     -35.673  18.377  -0.088  0.00  0.00    +0.025 C 
ATOM     11  C   UNL     1     -34.415  17.797   0.068  0.00  0.00    +0.143 C 
BRANCH  11  14
ATOM     12  O   UNL     1     -33.207  15.850  -0.192  0.00  0.00    -0.126 OA
ATOM     13  O   UNL     1     -34.664  16.391  -1.743  0.00  0.00    -0.126 OA
ATOM     14  N   UNL     1     -34.080  16.624  -0.657  0.00  0.00    +0.058 N 
ENDBRANCH  11  14
ENDBRANCH   3   6
ENDBRANCH   1   4
BRANCH   1  16
ATOM     15  O   UNL     1     -37.197  25.104   2.730  0.00  0.00    -0.226 OA
ATOM     16  N   UNL     1     -37.250  23.011   3.731  0.00  0.00    -0.264 N 
ATOM     17  C   UNL     1     -37.812  24.119   3.127  0.00  0.00    +0.402 C 
ATOM     18  H   UNL     1     -37.849  22.281   4.007  0.00  0.00    +0.153 HD
BRANCH  17  19
ATOM     19  O   UNL     1     -39.166  23.960   3.033  0.00  0.00    -0.430 OA
BRANCH  19  20
ATOM     20  C   UNL     1     -39.772  24.461   1.837  0.00  0.00    +0.237 C 
BRANCH  20  21
ATOM     21  C   UNL     1     -40.960  25.302   2.205  0.00  0.00    +0.021 C 
ATOM     22  C   UNL     1     -42.127  25.230   1.445  0.00  0.00    -0.001 C 
ATOM     23  C   UNL     1     -40.895  26.155   3.307  0.00  0.00    -0.001 C 
ATOM     24  C   UNL     1     -43.231  26.011   1.788  0.00  0.00    -0.000 C 
ATOM     25  C   UNL     1     -41.999  26.936   3.649  0.00  0.00    -0.000 C 
ATOM     26  C   UNL     1     -43.167  26.864   2.890  0.00  0.00    -0.000 C 
ENDBRANCH  20  21
ENDBRANCH  19  20
ENDBRANCH  17  19
ENDBRANCH   1  16
BRANCH   1  27
ATOM     27  C   UNL     1     -35.466  23.225   5.423  0.00  0.00    +0.029 C 
BRANCH  27  28
ATOM     28  C   UNL     1     -34.927  24.653   5.588  0.00  0.00    +0.000 C 
BRANCH  28  29
ATOM     29  C   UNL     1     -34.030  25.098   4.428  0.00  0.00    -0.024 C 
BRANCH  29  30
ATOM     30  C   UNL     1     -34.291  26.536   3.980  0.00  0.00    -0.086 C 
BRANCH  30  31
ATOM     31  N   UNL     1     -35.583  26.992   4.483  0.00  0.00    +0.380 N 
ATOM     32  H   UNL     1     -35.722  26.643   5.431  0.00  0.00    -0.089 HD
ATOM     33  H   UNL     1     -36.326  26.643   3.879  0.00  0.00    -0.089 HD
ATOM     34  H   UNL     1     -35.603  28.013   4.491  0.00  0.00    -0.089 HD
ENDBRANCH  30  31
ENDBRANCH  29  30
ENDBRANCH  28  29
ENDBRANCH  27  28
ENDBRANCH   1  27
TORSDOF 12
ENDMDL
MODEL 7
REMARK VINA RESULT:      -6.0      6.532     10.595
REMARK  Name = 189751
REMARK  12 active torsions:
REMARK  status: ('A' for Active; 'I' for Inactive)
REMARK    1  A    between atoms: C_1  and  C_4
REMARK    2  A    between atoms: C_1  and  N_16
REMARK    3  A    between atoms: C_1  and  C_27
REMARK    4  A    between atoms: N_3  and  C_6
REMARK    5  A    between atoms: C_11  and  N_14
REMARK    6  A    between atoms: C_17  and  O_19
REMARK    7  A    between atoms: O_19  and  C_20
REMARK    8  A    between atoms: C_20  and  C_21
REMARK    9  A    between atoms: C_27  and  C_28
REMARK   10  A    between atoms: C_28  and  C_29
REMARK   11  A    between atoms: C_29  and  C_30
REMARK   12  A    between atoms: C_30  and  N_31
REMARK                            x       y       z     vdW  Elec       q    Type
REMARK                         _______ _______ _______ _____ _____    ______ ____
ROOT
ATOM      1  C   UNL     1     -36.941  23.123   3.067  0.00  0.00    +0.151 C 
ENDROOT
BRANCH   1   4
ATOM      2  O   UNL     1     -39.134  22.727   2.140  0.00  0.00    -0.273 OA
ATOM      3  N   UNL     1     -38.555  24.898   2.818  0.00  0.00    -0.283 N 
ATOM      4  C   UNL     1     -38.347  23.535   2.625  0.00  0.00    +0.244 C 
ATOM      5  H   UNL     1     -37.801  25.404   3.199  0.00  0.00    +0.155 HD
BRANCH   3   6
ATOM      6  C   UNL     1     -39.724  25.641   2.530  0.00  0.00    +0.050 C 
ATOM      7  C   UNL     1     -40.642  25.919   3.543  0.00  0.00    +0.016 C 
ATOM      8  C   UNL     1     -39.958  26.097   1.232  0.00  0.00    +0.016 C 
ATOM      9  C   UNL     1     -41.794  26.653   3.257  0.00  0.00    +0.025 C 
ATOM     10  C   UNL     1     -41.110  26.831   0.947  0.00  0.00    +0.025 C 
ATOM     11  C   UNL     1     -42.027  27.109   1.960  0.00  0.00    +0.143 C 
BRANCH  11  14
ATOM     12  O   UNL     1     -43.449  28.882   2.349  0.00  0.00    -0.126 OA
ATOM     13  O   UNL     1     -43.953  27.472   0.744  0.00  0.00    -0.126 OA
ATOM     14  N   UNL     1     -43.199  27.856   1.670  0.00  0.00    +0.058 N 
ENDBRANCH  11  14
ENDBRANCH   3   6
ENDBRANCH   1   4
BRANCH   1  16
ATOM     15  O   UNL     1     -36.134  20.335   2.976  0.00  0.00    -0.226 OA
ATOM     16  N   UNL     1     -36.297  22.426   1.983  0.00  0.00    -0.264 N 
ATOM     17  C   UNL     1     -35.947  21.091   2.028  0.00  0.00    +0.402 C 
ATOM     18  H   UNL     1     -36.095  22.931   1.163  0.00  0.00    +0.153 HD
BRANCH  17  19
ATOM     19  O   UNL     1     -35.356  20.726   0.850  0.00  0.00    -0.430 OA
BRANCH  19  20
ATOM     20  C   UNL     1     -34.064  21.288   0.599  0.00  0.00    +0.237 C 
BRANCH  20  21
ATOM     21  C   UNL     1     -33.038  20.193   0.638  0.00  0.00    +0.021 C 
ATOM     22  C   UNL     1     -31.821  20.355  -0.024  0.00  0.00    -0.001 C 
ATOM     23  C   UNL     1     -33.303  19.014   1.334  0.00  0.00    -0.001 C 
ATOM     24  C   UNL     1     -30.867  19.337   0.012  0.00  0.00    -0.000 C 
ATOM     25  C   UNL     1     -32.349  17.996   1.369  0.00  0.00    -0.000 C 
ATOM     26  C   UNL     1     -31.131  18.158   0.709  0.00  0.00    -0.000 C 
ENDBRANCH  20  21
ENDBRANCH  19  20
ENDBRANCH  17  19
ENDBRANCH   1  16
BRANCH   1  27
ATOM     27  C   UNL     1     -36.106  24.309   3.568  0.00  0.00    +0.029 C 
BRANCH  27  28
ATOM     28  C   UNL     1     -35.959  24.368   5.095  0.00  0.00    +0.000 C 
BRANCH  28  29
ATOM     29  C   UNL     1     -34.905  23.397   5.640  0.00  0.00    -0.024 C 
BRANCH  29  30
ATOM     30  C   UNL     1     -35.509  22.201   6.375  0.00  0.00    -0.086 C 
BRANCH  30  31
ATOM     31  N   UNL     1     -35.176  20.963   5.679  0.00  0.00    +0.380 N 
ATOM     32  H   UNL     1     -36.034  20.462   5.446  0.00  0.00    -0.089 HD
ATOM     33  H   UNL     1     -34.595  20.380   6.281  0.00  0.00    -0.089 HD
ATOM     34  H   UNL     1     -34.667  21.180   4.821  0.00  0.00    -0.089 HD
ENDBRANCH  30  31
ENDBRANCH  29  30
ENDBRANCH  28  29
ENDBRANCH  27  28
ENDBRANCH   1  27
TORSDOF 12
ENDMDL
MODEL 8
REMARK VINA RESULT:      -5.9      2.980      9.365
REMARK  Name = 189751
REMARK  12 active torsions:
REMARK  status: ('A' for Active; 'I' for Inactive)
REMARK    1  A    between atoms: C_1  and  C_4
REMARK    2  A    between atoms: C_1  and  N_16
REMARK    3  A    between atoms: C_1  and  C_27
REMARK    4  A    between atoms: N_3  and  C_6
REMARK    5  A    between atoms: C_11  and  N_14
REMARK    6  A    between atoms: C_17  and  O_19
REMARK    7  A    between atoms: O_19  and  C_20
REMARK    8  A    between atoms: C_20  and  C_21
REMARK    9  A    between atoms: C_27  and  C_28
REMARK   10  A    between atoms: C_28  and  C_29
REMARK   11  A    between atoms: C_29  and  C_30
REMARK   12  A    between atoms: C_30  and  N_31
REMARK                            x       y       z     vdW  Elec       q    Type
REMARK                         _______ _______ _______ _____ _____    ______ ____
ROOT
ATOM      1  C   UNL     1     -34.915  28.641   2.532  0.00  0.00    +0.151 C 
ENDROOT
BRANCH   1   4
ATOM      2  O   UNL     1     -34.901  30.679   3.826  0.00  0.00    -0.273 OA
ATOM      3  N   UNL     1     -35.926  30.673   1.715  0.00  0.00    -0.283 N 
ATOM      4  C   UNL     1     -35.226  30.119   2.783  0.00  0.00    +0.244 C 
ATOM      5  H   UNL     1     -36.125  30.068   0.964  0.00  0.00    +0.155 HD
BRANCH   3   6
ATOM      6  C   UNL     1     -36.386  32.005   1.584  0.00  0.00    +0.050 C 
ATOM      7  C   UNL     1     -37.731  32.304   1.803  0.00  0.00    +0.016 C 
ATOM      8  C   UNL     1     -35.494  33.020   1.235  0.00  0.00    +0.016 C 
ATOM      9  C   UNL     1     -38.183  33.617   1.674  0.00  0.00    +0.025 C 
ATOM     10  C   UNL     1     -35.947  34.333   1.106  0.00  0.00    +0.025 C 
ATOM     11  C   UNL     1     -37.291  34.631   1.325  0.00  0.00    +0.143 C 
BRANCH  11  14
ATOM     12  O   UNL     1     -38.629  36.389   1.989  0.00  0.00    -0.126 OA
ATOM     13  O   UNL     1     -37.270  36.692   0.291  0.00  0.00    -0.126 OA
ATOM     14  N   UNL     1     -37.752  35.968   1.195  0.00  0.00    +0.058 N 
ENDBRANCH  11  14
ENDBRANCH   3   6
ENDBRANCH   1   4
BRANCH   1  16
ATOM     15  O   UNL     1     -33.223  26.652   3.803  0.00  0.00    -0.226 OA
ATOM     16  N   UNL     1     -35.180  27.898   3.737  0.00  0.00    -0.264 N 
ATOM     17  C   UNL     1     -34.312  26.966   4.272  0.00  0.00    +0.402 C 
ATOM     18  H   UNL     1     -36.028  28.064   4.207  0.00  0.00    +0.153 HD
BRANCH  17  19
ATOM     19  O   UNL     1     -34.846  26.436   5.414  0.00  0.00    -0.430 OA
BRANCH  19  20
ATOM     20  C   UNL     1     -36.093  25.750   5.260  0.00  0.00    +0.237 C 
BRANCH  20  21
ATOM     21  C   UNL     1     -35.825  24.290   5.040  0.00  0.00    +0.021 C 
ATOM     22  C   UNL     1     -36.100  23.709   3.802  0.00  0.00    -0.001 C 
ATOM     23  C   UNL     1     -35.301  23.514   6.074  0.00  0.00    -0.001 C 
ATOM     24  C   UNL     1     -35.850  22.352   3.598  0.00  0.00    -0.000 C 
ATOM     25  C   UNL     1     -35.052  22.157   5.870  0.00  0.00    -0.000 C 
ATOM     26  C   UNL     1     -35.326  21.576   4.632  0.00  0.00    -0.000 C 
ENDBRANCH  20  21
ENDBRANCH  19  20
ENDBRANCH  17  19
ENDBRANCH   1  16
BRANCH   1  27
ATOM     27  C   UNL     1     -35.672  28.073   1.325  0.00  0.00    +0.029 C 
BRANCH  27  28
ATOM     28  C   UNL     1     -34.843  27.111   0.464  0.00  0.00    +0.000 C 
BRANCH  28  29
ATOM     29  C   UNL     1     -35.205  25.637   0.683  0.00  0.00    -0.024 C 
BRANCH  29  30
ATOM     30  C   UNL     1     -33.991  24.752   0.962  0.00  0.00    -0.086 C 
BRANCH  30  31
ATOM     31  N   UNL     1     -32.785  25.568   1.060  0.00  0.00    +0.380 N 
ATOM     32  H   UNL     1     -32.078  25.210   0.418  0.00  0.00    -0.089 HD
ATOM     33  H   UNL     1     -32.428  25.532   2.015  0.00  0.00    -0.089 HD
ATOM     34  H   UNL     1     -33.007  26.534   0.817  0.00  0.00    -0.089 HD
ENDBRANCH  30  31
ENDBRANCH  29  30
ENDBRANCH  28  29
ENDBRANCH  27  28
ENDBRANCH   1  27
TORSDOF 12
ENDMDL
MODEL 9
REMARK VINA RESULT:      -5.8      4.575      9.095
REMARK  Name = 189751
REMARK  12 active torsions:
REMARK  status: ('A' for Active; 'I' for Inactive)
REMARK    1  A    between atoms: C_1  and  C_4
REMARK    2  A    between atoms: C_1  and  N_16
REMARK    3  A    between atoms: C_1  and  C_27
REMARK    4  A    between atoms: N_3  and  C_6
REMARK    5  A    between atoms: C_11  and  N_14
REMARK    6  A    between atoms: C_17  and  O_19
REMARK    7  A    between atoms: O_19  and  C_20
REMARK    8  A    between atoms: C_20  and  C_21
REMARK    9  A    between atoms: C_27  and  C_28
REMARK   10  A    between atoms: C_28  and  C_29
REMARK   11  A    between atoms: C_29  and  C_30
REMARK   12  A    between atoms: C_30  and  N_31
REMARK                            x       y       z     vdW  Elec       q    Type
REMARK                         _______ _______ _______ _____ _____    ______ ____
ROOT
ATOM      1  C   UNL     1     -34.924  26.196   3.716  0.00  0.00    +0.151 C 
ENDROOT
BRANCH   1   4
ATOM      2  O   UNL     1     -32.541  25.988   3.397  0.00  0.00    -0.273 OA
ATOM      3  N   UNL     1     -33.378  27.828   4.589  0.00  0.00    -0.283 N 
ATOM      4  C   UNL     1     -33.469  26.646   3.860  0.00  0.00    +0.244 C 
ATOM      5  H   UNL     1     -34.228  28.209   4.908  0.00  0.00    +0.155 HD
BRANCH   3   6
ATOM      6  C   UNL     1     -32.206  28.544   4.927  0.00  0.00    +0.050 C 
ATOM      7  C   UNL     1     -31.444  29.149   3.928  0.00  0.00    +0.016 C 
ATOM      8  C   UNL     1     -31.812  28.647   6.262  0.00  0.00    +0.016 C 
ATOM      9  C   UNL     1     -30.289  29.856   4.263  0.00  0.00    +0.025 C 
ATOM     10  C   UNL     1     -30.657  29.354   6.597  0.00  0.00    +0.025 C 
ATOM     11  C   UNL     1     -29.896  29.959   5.597  0.00  0.00    +0.143 C 
BRANCH  11  14
ATOM     12  O   UNL     1     -28.513  31.794   5.397  0.00  0.00    -0.126 OA
ATOM     13  O   UNL     1     -27.923  30.185   6.769  0.00  0.00    -0.126 OA
ATOM     14  N   UNL     1     -28.721  30.679   5.937  0.00  0.00    +0.058 N 
ENDBRANCH  11  14
ENDBRANCH   3   6
ENDBRANCH   1   4
BRANCH   1  16
ATOM     15  O   UNL     1     -37.012  25.589   1.790  0.00  0.00    -0.226 OA
ATOM     16  N   UNL     1     -34.981  25.088   2.797  0.00  0.00    -0.264 N 
ATOM     17  C   UNL     1     -36.019  24.876   1.911  0.00  0.00    +0.402 C 
ATOM     18  H   UNL     1     -34.237  24.444   2.800  0.00  0.00    +0.153 HD
BRANCH  17  19
ATOM     19  O   UNL     1     -35.782  23.747   1.178  0.00  0.00    -0.430 OA
BRANCH  19  20
ATOM     20  C   UNL     1     -35.973  22.506   1.865  0.00  0.00    +0.237 C 
BRANCH  20  21
ATOM     21  C   UNL     1     -34.909  21.539   1.433  0.00  0.00    +0.021 C 
ATOM     22  C   UNL     1     -33.964  21.923   0.480  0.00  0.00    -0.001 C 
ATOM     23  C   UNL     1     -34.864  20.259   1.985  0.00  0.00    -0.001 C 
ATOM     24  C   UNL     1     -32.974  21.024   0.080  0.00  0.00    -0.000 C 
ATOM     25  C   UNL     1     -33.875  19.361   1.583  0.00  0.00    -0.000 C 
ATOM     26  C   UNL     1     -32.930  19.744   0.632  0.00  0.00    -0.000 C 
ENDBRANCH  20  21
ENDBRANCH  19  20
ENDBRANCH  17  19
ENDBRANCH   1  16
BRANCH   1  27
ATOM     27  C   UNL     1     -35.578  25.863   5.063  0.00  0.00    +0.029 C 
BRANCH  27  28
ATOM     28  C   UNL     1     -34.951  24.660   5.781  0.00  0.00    +0.000 C 
BRANCH  28  29
ATOM     29  C   UNL     1     -35.707  23.349   5.538  0.00  0.00    -0.024 C 
BRANCH  29  30
ATOM     30  C   UNL     1     -35.277  22.221   6.474  0.00  0.00    -0.086 C 
BRANCH  30  31
ATOM     31  N   UNL     1     -35.241  20.953   5.752  0.00  0.00    +0.380 N 
ATOM     32  H   UNL     1     -35.821  21.021   4.916  0.00  0.00    -0.089 HD
ATOM     33  H   UNL     1     -35.595  20.210   6.352  0.00  0.00    -0.089 HD
ATOM     34  H   UNL     1     -34.279  20.742   5.481  0.00  0.00    -0.089 HD
ENDBRANCH  30  31
ENDBRANCH  29  30
ENDBRANCH  28  29
ENDBRANCH  27  28
ENDBRANCH   1  27
TORSDOF 12
ENDMDL
