MODEL 1
REMARK VINA RESULT:      -6.1      0.000      0.000
REMARK  Name = 194731
REMARK  8 active torsions:
REMARK  status: ('A' for Active; 'I' for Inactive)
REMARK    1  A    between atoms: C_2  and  O_7
REMARK    2  A    between atoms: C_3  and  O_9
REMARK    3  A    between atoms: C_4  and  O_17
REMARK    4  A    between atoms: C_5  and  O_11
REMARK    5  A    between atoms: C_6  and  C_14
REMARK    6  A    between atoms: C_14  and  O_15
REMARK    7  A    between atoms: O_17  and  C_18
REMARK    8  A    between atoms: C_18  and  C_21
REMARK                            x       y       z     vdW  Elec       q    Type
REMARK                         _______ _______ _______ _____ _____    ______ ____
ROOT
ATOM      1  O   UNL     1     -37.017  23.163   4.114  0.00  0.00    -0.317 OA
ATOM      2  C   UNL     1     -37.272  25.565   3.887  0.00  0.00    +0.196 C 
ATOM      3  C   UNL     1     -35.780  25.755   4.163  0.00  0.00    +0.172 C 
ATOM      4  C   UNL     1     -37.551  24.188   3.281  0.00  0.00    +0.266 C 
ATOM      5  C   UNL     1     -35.193  24.557   4.911  0.00  0.00    +0.178 C 
ATOM      6  C   UNL     1     -35.602  23.251   4.243  0.00  0.00    +0.245 C 
ENDROOT
BRANCH   2   7
ATOM      7  O   UNL     1     -37.713  26.559   2.963  0.00  0.00    -0.378 OA
ATOM      8  H   UNL     1     -37.638  27.435   3.371  0.00  0.00    +0.211 HD
ENDBRANCH   2   7
BRANCH   3   9
ATOM      9  O   UNL     1     -35.589  26.917   4.971  0.00  0.00    -0.379 OA
ATOM     10  H   UNL     1     -34.827  27.420   4.640  0.00  0.00    +0.211 HD
ENDBRANCH   3   9
BRANCH   5  11
ATOM     11  O   UNL     1     -33.770  24.652   4.898  0.00  0.00    -0.379 OA
ATOM     12  H   UNL     1     -33.402  24.089   5.597  0.00  0.00    +0.211 HD
ENDBRANCH   5  11
BRANCH   6  14
ATOM     13  O   UNL     1     -34.871  22.148   6.261  0.00  0.00    -0.247 OA
ATOM     14  C   UNL     1     -35.263  22.079   5.106  0.00  0.00    +0.344 C 
BRANCH  14  15
ATOM     15  O   UNL     1     -35.445  20.919   4.429  0.00  0.00    -0.478 OA
ATOM     16  H   UNL     1     -34.758  20.576   3.893  0.00  0.00    +0.295 HD
ENDBRANCH  14  15
ENDBRANCH   6  14
BRANCH   4  17
ATOM     17  O   UNL     1     -38.967  24.035   3.174  0.00  0.00    -0.329 OA
BRANCH  17  18
ATOM     18  C   UNL     1     -39.336  23.541   1.896  0.00  0.00    +0.114 C 
ATOM     19  C   UNL     1     -38.126  23.784   0.980  0.00  0.00    +0.034 C 
ATOM     20  C   UNL     1     -39.604  22.037   2.030  0.00  0.00    +0.034 C 
BRANCH  18  21
ATOM     21  C   UNL     1     -40.607  24.248   1.433  0.00  0.00    +0.002 C 
ATOM     22  C   UNL     1     -41.051  25.343   2.142  0.00  0.00    -0.002 C 
ATOM     23  C   UNL     1     -41.267  23.768   0.323  0.00  0.00    -0.002 C 
ATOM     24  C   UNL     1     -42.213  25.989   1.719  0.00  0.00    -0.000 C 
ATOM     25  C   UNL     1     -42.428  24.414  -0.100  0.00  0.00    -0.000 C 
ATOM     26  C   UNL     1     -42.901  25.525   0.599  0.00  0.00    -0.000 C 
ENDBRANCH  18  21
ENDBRANCH  17  18
ENDBRANCH   4  17
TORSDOF 8
ENDMDL
MODEL 2
REMARK VINA RESULT:      -6.0      2.164      6.475
REMARK  Name = 194731
REMARK  8 active torsions:
REMARK  status: ('A' for Active; 'I' for Inactive)
REMARK    1  A    between atoms: C_2  and  O_7
REMARK    2  A    between atoms: C_3  and  O_9
REMARK    3  A    between atoms: C_4  and  O_17
REMARK    4  A    between atoms: C_5  and  O_11
REMARK    5  A    between atoms: C_6  and  C_14
REMARK    6  A    between atoms: C_14  and  O_15
REMARK    7  A    between atoms: O_17  and  C_18
REMARK    8  A    between atoms: C_18  and  C_21
REMARK                            x       y       z     vdW  Elec       q    Type
REMARK                         _______ _______ _______ _____ _____    ______ ____
ROOT
ATOM      1  O   UNL     1     -37.802  24.676   2.639  0.00  0.00    -0.317 OA
ATOM      2  C   UNL     1     -38.740  22.450   2.419  0.00  0.00    +0.196 C 
ATOM      3  C   UNL     1     -39.402  22.853   1.100  0.00  0.00    +0.172 C 
ATOM      4  C   UNL     1     -37.488  23.287   2.687  0.00  0.00    +0.266 C 
ATOM      5  C   UNL     1     -39.571  24.370   1.002  0.00  0.00    +0.178 C 
ATOM      6  C   UNL     1     -38.273  25.081   1.358  0.00  0.00    +0.245 C 
ENDROOT
BRANCH   2   7
ATOM      7  O   UNL     1     -38.356  21.077   2.354  0.00  0.00    -0.378 OA
ATOM      8  H   UNL     1     -38.057  20.783   3.229  0.00  0.00    +0.211 HD
ENDBRANCH   2   7
BRANCH   3   9
ATOM      9  O   UNL     1     -40.698  22.258   1.016  0.00  0.00    -0.379 OA
ATOM     10  H   UNL     1     -41.014  22.300   0.100  0.00  0.00    +0.211 HD
ENDBRANCH   3   9
BRANCH   5  11
ATOM     11  O   UNL     1     -39.928  24.712  -0.336  0.00  0.00    -0.379 OA
ATOM     12  H   UNL     1     -39.327  25.398  -0.666  0.00  0.00    +0.211 HD
ENDBRANCH   5  11
BRANCH   6  14
ATOM     13  O   UNL     1     -39.447  27.171   1.075  0.00  0.00    -0.247 OA
ATOM     14  C   UNL     1     -38.495  26.550   1.524  0.00  0.00    +0.344 C 
BRANCH  14  15
ATOM     15  O   UNL     1     -37.489  27.108   2.241  0.00  0.00    -0.478 OA
ATOM     16  H   UNL     1     -37.624  27.923   2.681  0.00  0.00    +0.295 HD
ENDBRANCH  14  15
ENDBRANCH   6  14
BRANCH   4  17
ATOM     17  O   UNL     1     -37.003  22.946   3.986  0.00  0.00    -0.329 OA
BRANCH  17  18
ATOM     18  C   UNL     1     -35.592  22.789   3.984  0.00  0.00    +0.114 C 
ATOM     19  C   UNL     1     -35.285  21.693   5.017  0.00  0.00    +0.034 C 
ATOM     20  C   UNL     1     -35.172  22.328   2.583  0.00  0.00    +0.034 C 
BRANCH  18  21
ATOM     21  C   UNL     1     -34.937  24.130   4.299  0.00  0.00    +0.002 C 
ATOM     22  C   UNL     1     -35.093  24.663   5.561  0.00  0.00    -0.002 C 
ATOM     23  C   UNL     1     -34.212  24.763   3.313  0.00  0.00    -0.002 C 
ATOM     24  C   UNL     1     -34.494  25.890   5.849  0.00  0.00    -0.000 C 
ATOM     25  C   UNL     1     -33.613  25.988   3.601  0.00  0.00    -0.000 C 
ATOM     26  C   UNL     1     -33.754  26.551   4.870  0.00  0.00    -0.000 C 
ENDBRANCH  18  21
ENDBRANCH  17  18
ENDBRANCH   4  17
TORSDOF 8
ENDMDL
MODEL 3
REMARK VINA RESULT:      -5.9      3.832      6.499
REMARK  Name = 194731
REMARK  8 active torsions:
REMARK  status: ('A' for Active; 'I' for Inactive)
REMARK    1  A    between atoms: C_2  and  O_7
REMARK    2  A    between atoms: C_3  and  O_9
REMARK    3  A    between atoms: C_4  and  O_17
REMARK    4  A    between atoms: C_5  and  O_11
REMARK    5  A    between atoms: C_6  and  C_14
REMARK    6  A    between atoms: C_14  and  O_15
REMARK    7  A    between atoms: O_17  and  C_18
REMARK    8  A    between atoms: C_18  and  C_21
REMARK                            x       y       z     vdW  Elec       q    Type
REMARK                         _______ _______ _______ _____ _____    ______ ____
ROOT
ATOM      1  O   UNL     1     -35.377  21.822   3.251  0.00  0.00    -0.317 OA
ATOM      2  C   UNL     1     -36.785  23.162   1.797  0.00  0.00    +0.196 C 
ATOM      3  C   UNL     1     -36.964  24.193   2.912  0.00  0.00    +0.172 C 
ATOM      4  C   UNL     1     -35.465  22.404   1.952  0.00  0.00    +0.266 C 
ATOM      5  C   UNL     1     -36.695  23.581   4.287  0.00  0.00    +0.178 C 
ATOM      6  C   UNL     1     -35.388  22.801   4.284  0.00  0.00    +0.245 C 
ENDROOT
BRANCH   2   7
ATOM      7  O   UNL     1     -36.773  23.826   0.534  0.00  0.00    -0.378 OA
ATOM      8  H   UNL     1     -37.684  23.979   0.241  0.00  0.00    +0.211 HD
ENDBRANCH   2   7
BRANCH   3   9
ATOM      9  O   UNL     1     -38.307  24.680   2.899  0.00  0.00    -0.379 OA
ATOM     10  H   UNL     1     -38.364  25.455   2.319  0.00  0.00    +0.211 HD
ENDBRANCH   3   9
BRANCH   5  11
ATOM     11  O   UNL     1     -36.602  24.627   5.252  0.00  0.00    -0.379 OA
ATOM     12  H   UNL     1     -35.679  24.919   5.325  0.00  0.00    +0.211 HD
ENDBRANCH   5  11
BRANCH   6  14
ATOM     13  O   UNL     1     -35.248  22.434   6.666  0.00  0.00    -0.247 OA
ATOM     14  C   UNL     1     -35.248  21.986   5.529  0.00  0.00    +0.344 C 
BRANCH  14  15
ATOM     15  O   UNL     1     -35.114  20.671   5.227  0.00  0.00    -0.478 OA
ATOM     16  H   UNL     1     -35.641  20.289   4.554  0.00  0.00    +0.295 HD
ENDBRANCH  14  15
ENDBRANCH   6  14
BRANCH   4  17
ATOM     17  O   UNL     1     -35.429  21.377   0.961  0.00  0.00    -0.329 OA
BRANCH  17  18
ATOM     18  C   UNL     1     -34.280  21.498   0.136  0.00  0.00    +0.114 C 
ATOM     19  C   UNL     1     -34.795  21.510  -1.312  0.00  0.00    +0.034 C 
ATOM     20  C   UNL     1     -33.601  22.833   0.466  0.00  0.00    +0.034 C 
BRANCH  18  21
ATOM     21  C   UNL     1     -33.323  20.348   0.438  0.00  0.00    +0.002 C 
ATOM     22  C   UNL     1     -32.036  20.413  -0.050  0.00  0.00    -0.002 C 
ATOM     23  C   UNL     1     -33.778  19.286   1.188  0.00  0.00    -0.002 C 
ATOM     24  C   UNL     1     -31.161  19.362   0.226  0.00  0.00    -0.000 C 
ATOM     25  C   UNL     1     -32.903  18.236   1.464  0.00  0.00    -0.000 C 
ATOM     26  C   UNL     1     -31.594  18.274   0.983  0.00  0.00    -0.000 C 
ENDBRANCH  18  21
ENDBRANCH  17  18
ENDBRANCH   4  17
TORSDOF 8
ENDMDL
MODEL 4
REMARK VINA RESULT:      -5.9      3.284      5.985
REMARK  Name = 194731
REMARK  8 active torsions:
REMARK  status: ('A' for Active; 'I' for Inactive)
REMARK    1  A    between atoms: C_2  and  O_7
REMARK    2  A    between atoms: C_3  and  O_9
REMARK    3  A    between atoms: C_4  and  O_17
REMARK    4  A    between atoms: C_5  and  O_11
REMARK    5  A    between atoms: C_6  and  C_14
REMARK    6  A    between atoms: C_14  and  O_15
REMARK    7  A    between atoms: O_17  and  C_18
REMARK    8  A    between atoms: C_18  and  C_21
REMARK                            x       y       z     vdW  Elec       q    Type
REMARK                         _______ _______ _______ _____ _____    ______ ____
ROOT
ATOM      1  O   UNL     1     -35.385  23.248   3.383  0.00  0.00    -0.317 OA
ATOM      2  C   UNL     1     -37.699  23.339   2.662  0.00  0.00    +0.196 C 
ATOM      3  C   UNL     1     -37.856  24.711   3.320  0.00  0.00    +0.172 C 
ATOM      4  C   UNL     1     -36.246  23.082   2.260  0.00  0.00    +0.266 C 
ATOM      5  C   UNL     1     -36.806  24.931   4.409  0.00  0.00    +0.178 C 
ATOM      6  C   UNL     1     -35.416  24.575   3.899  0.00  0.00    +0.245 C 
ENDROOT
BRANCH   2   7
ATOM      7  O   UNL     1     -38.506  23.282   1.486  0.00  0.00    -0.378 OA
ATOM      8  H   UNL     1     -37.948  23.416   0.705  0.00  0.00    +0.211 HD
ENDBRANCH   2   7
BRANCH   3   9
ATOM      9  O   UNL     1     -39.147  24.804   3.925  0.00  0.00    -0.379 OA
ATOM     10  H   UNL     1     -39.432  23.924   4.217  0.00  0.00    +0.211 HD
ENDBRANCH   3   9
BRANCH   5  11
ATOM     11  O   UNL     1     -36.815  26.304   4.793  0.00  0.00    -0.379 OA
ATOM     12  H   UNL     1     -36.011  26.504   5.298  0.00  0.00    +0.211 HD
ENDBRANCH   5  11
BRANCH   6  14
ATOM     13  O   UNL     1     -33.691  25.449   5.342  0.00  0.00    -0.247 OA
ATOM     14  C   UNL     1     -34.429  24.530   5.020  0.00  0.00    +0.344 C 
BRANCH  14  15
ATOM     15  O   UNL     1     -34.458  23.323   5.635  0.00  0.00    -0.478 OA
ATOM     16  H   UNL     1     -34.441  22.537   5.126  0.00  0.00    +0.295 HD
ENDBRANCH  14  15
ENDBRANCH   6  14
BRANCH   4  17
ATOM     17  O   UNL     1     -36.155  21.741   1.777  0.00  0.00    -0.329 OA
BRANCH  17  18
ATOM     18  C   UNL     1     -35.496  21.691   0.520  0.00  0.00    +0.114 C 
ATOM     19  C   UNL     1     -36.547  21.209  -0.492  0.00  0.00    +0.034 C 
ATOM     20  C   UNL     1     -35.037  23.112   0.171  0.00  0.00    +0.034 C 
BRANCH  18  21
ATOM     21  C   UNL     1     -34.281  20.773   0.628  0.00  0.00    +0.002 C 
ATOM     22  C   UNL     1     -34.389  19.615   1.367  0.00  0.00    -0.002 C 
ATOM     23  C   UNL     1     -33.119  21.133  -0.019  0.00  0.00    -0.002 C 
ATOM     24  C   UNL     1     -33.279  18.776   1.465  0.00  0.00    -0.000 C 
ATOM     25  C   UNL     1     -32.009  20.294   0.079  0.00  0.00    -0.000 C 
ATOM     26  C   UNL     1     -32.090  19.115   0.821  0.00  0.00    -0.000 C 
ENDBRANCH  18  21
ENDBRANCH  17  18
ENDBRANCH   4  17
TORSDOF 8
ENDMDL
MODEL 5
REMARK VINA RESULT:      -5.9      3.632      6.019
REMARK  Name = 194731
REMARK  8 active torsions:
REMARK  status: ('A' for Active; 'I' for Inactive)
REMARK    1  A    between atoms: C_2  and  O_7
REMARK    2  A    between atoms: C_3  and  O_9
REMARK    3  A    between atoms: C_4  and  O_17
REMARK    4  A    between atoms: C_5  and  O_11
REMARK    5  A    between atoms: C_6  and  C_14
REMARK    6  A    between atoms: C_14  and  O_15
REMARK    7  A    between atoms: O_17  and  C_18
REMARK    8  A    between atoms: C_18  and  C_21
REMARK                            x       y       z     vdW  Elec       q    Type
REMARK                         _______ _______ _______ _____ _____    ______ ____
ROOT
ATOM      1  O   UNL     1     -34.093  24.494   2.917  0.00  0.00    -0.317 OA
ATOM      2  C   UNL     1     -36.207  24.526   4.107  0.00  0.00    +0.196 C 
ATOM      3  C   UNL     1     -36.161  26.054   4.158  0.00  0.00    +0.172 C 
ATOM      4  C   UNL     1     -35.426  23.989   2.906  0.00  0.00    +0.266 C 
ATOM      5  C   UNL     1     -34.733  26.575   3.995  0.00  0.00    +0.178 C 
ATOM      6  C   UNL     1     -34.049  25.912   2.807  0.00  0.00    +0.245 C 
ENDROOT
BRANCH   2   7
ATOM      7  O   UNL     1     -37.563  24.096   3.987  0.00  0.00    -0.378 OA
ATOM      8  H   UNL     1     -38.058  24.736   3.453  0.00  0.00    +0.211 HD
ENDBRANCH   2   7
BRANCH   3   9
ATOM      9  O   UNL     1     -36.654  26.503   5.422  0.00  0.00    -0.379 OA
ATOM     10  H   UNL     1     -35.976  26.364   6.101  0.00  0.00    +0.211 HD
ENDBRANCH   3   9
BRANCH   5  11
ATOM     11  O   UNL     1     -34.774  27.983   3.773  0.00  0.00    -0.379 OA
ATOM     12  H   UNL     1     -35.107  28.427   4.569  0.00  0.00    +0.211 HD
ENDBRANCH   5  11
BRANCH   6  14
ATOM     13  O   UNL     1     -31.792  25.808   1.959  0.00  0.00    -0.247 OA
ATOM     14  C   UNL     1     -32.585  26.210   2.798  0.00  0.00    +0.344 C 
BRANCH  14  15
ATOM     15  O   UNL     1     -32.248  26.988   3.855  0.00  0.00    -0.478 OA
ATOM     16  H   UNL     1     -32.897  27.521   4.270  0.00  0.00    +0.295 HD
ENDBRANCH  14  15
ENDBRANCH   6  14
BRANCH   4  17
ATOM     17  O   UNL     1     -35.404  22.565   2.997  0.00  0.00    -0.329 OA
BRANCH  17  18
ATOM     18  C   UNL     1     -35.725  21.964   1.752  0.00  0.00    +0.114 C 
ATOM     19  C   UNL     1     -37.034  21.192   1.977  0.00  0.00    +0.034 C 
ATOM     20  C   UNL     1     -35.942  23.086   0.729  0.00  0.00    +0.034 C 
BRANCH  18  21
ATOM     21  C   UNL     1     -34.562  21.083   1.305  0.00  0.00    +0.002 C 
ATOM     22  C   UNL     1     -34.467  19.804   1.810  0.00  0.00    -0.002 C 
ATOM     23  C   UNL     1     -33.646  21.595   0.412  0.00  0.00    -0.002 C 
ATOM     24  C   UNL     1     -33.404  18.998   1.402  0.00  0.00    -0.000 C 
ATOM     25  C   UNL     1     -32.583  20.790   0.004  0.00  0.00    -0.000 C 
ATOM     26  C   UNL     1     -32.463  19.491   0.499  0.00  0.00    -0.000 C 
ENDBRANCH  18  21
ENDBRANCH  17  18
ENDBRANCH   4  17
TORSDOF 8
ENDMDL
MODEL 6
REMARK VINA RESULT:      -5.8      3.581      7.137
REMARK  Name = 194731
REMARK  8 active torsions:
REMARK  status: ('A' for Active; 'I' for Inactive)
REMARK    1  A    between atoms: C_2  and  O_7
REMARK    2  A    between atoms: C_3  and  O_9
REMARK    3  A    between atoms: C_4  and  O_17
REMARK    4  A    between atoms: C_5  and  O_11
REMARK    5  A    between atoms: C_6  and  C_14
REMARK    6  A    between atoms: C_14  and  O_15
REMARK    7  A    between atoms: O_17  and  C_18
REMARK    8  A    between atoms: C_18  and  C_21
REMARK                            x       y       z     vdW  Elec       q    Type
REMARK                         _______ _______ _______ _____ _____    ______ ____
ROOT
ATOM      1  O   UNL     1     -37.279  23.618   2.232  0.00  0.00    -0.317 OA
ATOM      2  C   UNL     1     -38.067  21.360   1.824  0.00  0.00    +0.196 C 
ATOM      3  C   UNL     1     -39.488  21.887   1.618  0.00  0.00    +0.172 C 
ATOM      4  C   UNL     1     -37.027  22.430   1.487  0.00  0.00    +0.266 C 
ATOM      5  C   UNL     1     -39.680  23.249   2.285  0.00  0.00    +0.178 C 
ATOM      6  C   UNL     1     -38.543  24.194   1.921  0.00  0.00    +0.245 C 
ENDROOT
BRANCH   2   7
ATOM      7  O   UNL     1     -37.850  20.238   0.970  0.00  0.00    -0.378 OA
ATOM      8  H   UNL     1     -38.480  20.265   0.234  0.00  0.00    +0.211 HD
ENDBRANCH   2   7
BRANCH   3   9
ATOM      9  O   UNL     1     -40.423  20.976   2.197  0.00  0.00    -0.379 OA
ATOM     10  H   UNL     1     -39.948  20.209   2.555  0.00  0.00    +0.211 HD
ENDBRANCH   3   9
BRANCH   5  11
ATOM     11  O   UNL     1     -40.909  23.818   1.837  0.00  0.00    -0.379 OA
ATOM     12  H   UNL     1     -40.851  24.007   0.887  0.00  0.00    +0.211 HD
ENDBRANCH   5  11
BRANCH   6  14
ATOM     13  O   UNL     1     -38.620  26.569   2.342  0.00  0.00    -0.247 OA
ATOM     14  C   UNL     1     -38.577  25.425   2.768  0.00  0.00    +0.344 C 
BRANCH  14  15
ATOM     15  O   UNL     1     -38.548  25.100   4.083  0.00  0.00    -0.478 OA
ATOM     16  H   UNL     1     -38.864  25.707   4.723  0.00  0.00    +0.295 HD
ENDBRANCH  14  15
ENDBRANCH   6  14
BRANCH   4  17
ATOM     17  O   UNL     1     -35.740  21.912   1.827  0.00  0.00    -0.329 OA
BRANCH  17  18
ATOM     18  C   UNL     1     -34.815  22.096   0.766  0.00  0.00    +0.114 C 
ATOM     19  C   UNL     1     -35.654  22.209  -0.516  0.00  0.00    +0.034 C 
ATOM     20  C   UNL     1     -34.060  23.407   1.021  0.00  0.00    +0.034 C 
BRANCH  18  21
ATOM     21  C   UNL     1     -33.828  20.933   0.753  0.00  0.00    +0.002 C 
ATOM     22  C   UNL     1     -32.661  21.061   0.030  0.00  0.00    -0.002 C 
ATOM     23  C   UNL     1     -34.135  19.794   1.466  0.00  0.00    -0.002 C 
ATOM     24  C   UNL     1     -31.759  19.997   0.019  0.00  0.00    -0.000 C 
ATOM     25  C   UNL     1     -33.233  18.731   1.455  0.00  0.00    -0.000 C 
ATOM     26  C   UNL     1     -32.044  18.833   0.730  0.00  0.00    -0.000 C 
ENDBRANCH  18  21
ENDBRANCH  17  18
ENDBRANCH   4  17
TORSDOF 8
ENDMDL
MODEL 7
REMARK VINA RESULT:      -5.8      2.464      6.481
REMARK  Name = 194731
REMARK  8 active torsions:
REMARK  status: ('A' for Active; 'I' for Inactive)
REMARK    1  A    between atoms: C_2  and  O_7
REMARK    2  A    between atoms: C_3  and  O_9
REMARK    3  A    between atoms: C_4  and  O_17
REMARK    4  A    between atoms: C_5  and  O_11
REMARK    5  A    between atoms: C_6  and  C_14
REMARK    6  A    between atoms: C_14  and  O_15
REMARK    7  A    between atoms: O_17  and  C_18
REMARK    8  A    between atoms: C_18  and  C_21
REMARK                            x       y       z     vdW  Elec       q    Type
REMARK                         _______ _______ _______ _____ _____    ______ ____
ROOT
ATOM      1  O   UNL     1     -38.350  22.912   2.616  0.00  0.00    -0.317 OA
ATOM      2  C   UNL     1     -39.023  21.035   1.234  0.00  0.00    +0.196 C 
ATOM      3  C   UNL     1     -40.118  21.891   0.596  0.00  0.00    +0.172 C 
ATOM      4  C   UNL     1     -37.866  21.902   1.735  0.00  0.00    +0.266 C 
ATOM      5  C   UNL     1     -40.498  23.071   1.491  0.00  0.00    +0.178 C 
ATOM      6  C   UNL     1     -39.254  23.804   1.973  0.00  0.00    +0.245 C 
ENDROOT
BRANCH   2   7
ATOM      7  O   UNL     1     -38.511  20.121   0.265  0.00  0.00    -0.378 OA
ATOM      8  H   UNL     1     -39.224  19.852  -0.333  0.00  0.00    +0.211 HD
ENDBRANCH   2   7
BRANCH   3   9
ATOM      9  O   UNL     1     -41.287  21.095   0.393  0.00  0.00    -0.379 OA
ATOM     10  H   UNL     1     -41.097  20.175   0.633  0.00  0.00    +0.211 HD
ENDBRANCH   3   9
BRANCH   5  11
ATOM     11  O   UNL     1     -41.305  23.980   0.745  0.00  0.00    -0.379 OA
ATOM     12  H   UNL     1     -41.258  24.861   1.149  0.00  0.00    +0.211 HD
ENDBRANCH   5  11
BRANCH   6  14
ATOM     13  O   UNL     1     -40.611  25.458   3.090  0.00  0.00    -0.247 OA
ATOM     14  C   UNL     1     -39.593  24.784   3.050  0.00  0.00    +0.344 C 
BRANCH  14  15
ATOM     15  O   UNL     1     -38.610  24.828   3.983  0.00  0.00    -0.478 OA
ATOM     16  H   UNL     1     -38.579  24.183   4.661  0.00  0.00    +0.295 HD
ENDBRANCH  14  15
ENDBRANCH   6  14
BRANCH   4  17
ATOM     17  O   UNL     1     -36.952  21.053   2.430  0.00  0.00    -0.329 OA
BRANCH  17  18
ATOM     18  C   UNL     1     -35.619  21.527   2.311  0.00  0.00    +0.114 C 
ATOM     19  C   UNL     1     -34.723  20.278   2.308  0.00  0.00    +0.034 C 
ATOM     20  C   UNL     1     -35.499  22.266   0.973  0.00  0.00    +0.034 C 
BRANCH  18  21
ATOM     21  C   UNL     1     -35.324  22.491   3.456  0.00  0.00    +0.002 C 
ATOM     22  C   UNL     1     -34.931  23.777   3.155  0.00  0.00    -0.002 C 
ATOM     23  C   UNL     1     -35.462  22.044   4.752  0.00  0.00    -0.002 C 
ATOM     24  C   UNL     1     -34.662  24.659   4.202  0.00  0.00    -0.000 C 
ATOM     25  C   UNL     1     -35.194  22.925   5.799  0.00  0.00    -0.000 C 
ATOM     26  C   UNL     1     -34.794  24.234   5.523  0.00  0.00    -0.000 C 
ENDBRANCH  18  21
ENDBRANCH  17  18
ENDBRANCH   4  17
TORSDOF 8
ENDMDL
MODEL 8
REMARK VINA RESULT:      -5.7      3.849      6.814
REMARK  Name = 194731
REMARK  8 active torsions:
REMARK  status: ('A' for Active; 'I' for Inactive)
REMARK    1  A    between atoms: C_2  and  O_7
REMARK    2  A    between atoms: C_3  and  O_9
REMARK    3  A    between atoms: C_4  and  O_17
REMARK    4  A    between atoms: C_5  and  O_11
REMARK    5  A    between atoms: C_6  and  C_14
REMARK    6  A    between atoms: C_14  and  O_15
REMARK    7  A    between atoms: O_17  and  C_18
REMARK    8  A    between atoms: C_18  and  C_21
REMARK                            x       y       z     vdW  Elec       q    Type
REMARK                         _______ _______ _______ _____ _____    ______ ____
ROOT
ATOM      1  O   UNL     1     -37.591  22.202   1.631  0.00  0.00    -0.317 OA
ATOM      2  C   UNL     1     -35.888  23.875   2.064  0.00  0.00    +0.196 C 
ATOM      3  C   UNL     1     -36.838  24.603   3.016  0.00  0.00    +0.172 C 
ATOM      4  C   UNL     1     -36.223  22.384   1.984  0.00  0.00    +0.266 C 
ATOM      5  C   UNL     1     -38.298  24.254   2.723  0.00  0.00    +0.178 C 
ATOM      6  C   UNL     1     -38.478  22.747   2.601  0.00  0.00    +0.245 C 
ENDROOT
BRANCH   2   7
ATOM      7  O   UNL     1     -34.549  24.008   2.539  0.00  0.00    -0.378 OA
ATOM      8  H   UNL     1     -33.995  24.388   1.840  0.00  0.00    +0.211 HD
ENDBRANCH   2   7
BRANCH   3   9
ATOM      9  O   UNL     1     -36.681  26.015   2.858  0.00  0.00    -0.379 OA
ATOM     10  H   UNL     1     -35.741  26.223   2.738  0.00  0.00    +0.211 HD
ENDBRANCH   3   9
BRANCH   5  11
ATOM     11  O   UNL     1     -39.113  24.728   3.792  0.00  0.00    -0.379 OA
ATOM     12  H   UNL     1     -39.552  25.551   3.525  0.00  0.00    +0.211 HD
ENDBRANCH   5  11
BRANCH   6  14
ATOM     13  O   UNL     1     -40.625  23.221   1.606  0.00  0.00    -0.247 OA
ATOM     14  C   UNL     1     -39.829  22.412   2.057  0.00  0.00    +0.344 C 
BRANCH  14  15
ATOM     15  O   UNL     1     -40.058  21.078   2.135  0.00  0.00    -0.478 OA
ATOM     16  H   UNL     1     -39.378  20.502   2.422  0.00  0.00    +0.295 HD
ENDBRANCH  14  15
ENDBRANCH   6  14
BRANCH   4  17
ATOM     17  O   UNL     1     -35.385  21.800   0.986  0.00  0.00    -0.329 OA
BRANCH  17  18
ATOM     18  C   UNL     1     -35.020  20.473   1.333  0.00  0.00    +0.114 C 
ATOM     19  C   UNL     1     -35.151  20.381   2.861  0.00  0.00    +0.034 C 
ATOM     20  C   UNL     1     -36.015  19.519   0.659  0.00  0.00    +0.034 C 
BRANCH  18  21
ATOM     21  C   UNL     1     -33.612  20.189   0.819  0.00  0.00    +0.002 C 
ATOM     22  C   UNL     1     -32.989  21.137   0.035  0.00  0.00    -0.002 C 
ATOM     23  C   UNL     1     -33.010  18.996   1.155  0.00  0.00    -0.002 C 
ATOM     24  C   UNL     1     -31.701  20.878  -0.434  0.00  0.00    -0.000 C 
ATOM     25  C   UNL     1     -31.723  18.737   0.686  0.00  0.00    -0.000 C 
ATOM     26  C   UNL     1     -31.068  19.679  -0.109  0.00  0.00    -0.000 C 
ENDBRANCH  18  21
ENDBRANCH  17  18
ENDBRANCH   4  17
TORSDOF 8
ENDMDL
MODEL 9
REMARK VINA RESULT:      -5.6      4.106      6.600
REMARK  Name = 194731
REMARK  8 active torsions:
REMARK  status: ('A' for Active; 'I' for Inactive)
REMARK    1  A    between atoms: C_2  and  O_7
REMARK    2  A    between atoms: C_3  and  O_9
REMARK    3  A    between atoms: C_4  and  O_17
REMARK    4  A    between atoms: C_5  and  O_11
REMARK    5  A    between atoms: C_6  and  C_14
REMARK    6  A    between atoms: C_14  and  O_15
REMARK    7  A    between atoms: O_17  and  C_18
REMARK    8  A    between atoms: C_18  and  C_21
REMARK                            x       y       z     vdW  Elec       q    Type
REMARK                         _______ _______ _______ _____ _____    ______ ____
ROOT
ATOM      1  O   UNL     1     -34.762  23.390   3.973  0.00  0.00    -0.317 OA
ATOM      2  C   UNL     1     -34.626  23.282   1.554  0.00  0.00    +0.196 C 
ATOM      3  C   UNL     1     -35.557  22.068   1.550  0.00  0.00    +0.172 C 
ATOM      4  C   UNL     1     -34.871  24.162   2.781  0.00  0.00    +0.266 C 
ATOM      5  C   UNL     1     -35.550  21.356   2.903  0.00  0.00    +0.178 C 
ATOM      6  C   UNL     1     -35.735  22.354   4.039  0.00  0.00    +0.245 C 
ENDROOT
BRANCH   2   7
ATOM      7  O   UNL     1     -34.866  24.065   0.385  0.00  0.00    -0.378 OA
ATOM      8  H   UNL     1     -34.400  23.673  -0.369  0.00  0.00    +0.211 HD
ENDBRANCH   2   7
BRANCH   3   9
ATOM      9  O   UNL     1     -35.122  21.136   0.559  0.00  0.00    -0.379 OA
ATOM     10  H   UNL     1     -35.589  21.308  -0.274  0.00  0.00    +0.211 HD
ENDBRANCH   3   9
BRANCH   5  11
ATOM     11  O   UNL     1     -36.623  20.417   2.940  0.00  0.00    -0.379 OA
ATOM     12  H   UNL     1     -37.229  20.645   3.663  0.00  0.00    +0.211 HD
ENDBRANCH   5  11
BRANCH   6  14
ATOM     13  O   UNL     1     -34.966  20.611   5.521  0.00  0.00    -0.247 OA
ATOM     14  C   UNL     1     -35.467  21.714   5.363  0.00  0.00    +0.344 C 
BRANCH  14  15
ATOM     15  O   UNL     1     -35.860  22.526   6.374  0.00  0.00    -0.478 OA
ATOM     16  H   UNL     1     -36.137  23.402   6.191  0.00  0.00    +0.295 HD
ENDBRANCH  14  15
ENDBRANCH   6  14
BRANCH   4  17
ATOM     17  O   UNL     1     -33.885  25.195   2.783  0.00  0.00    -0.329 OA
BRANCH  17  18
ATOM     18  C   UNL     1     -34.433  26.429   3.221  0.00  0.00    +0.114 C 
ATOM     19  C   UNL     1     -34.406  27.364   2.002  0.00  0.00    +0.034 C 
ATOM     20  C   UNL     1     -35.880  26.173   3.659  0.00  0.00    +0.034 C 
BRANCH  18  21
ATOM     21  C   UNL     1     -33.623  26.944   4.408  0.00  0.00    +0.002 C 
ATOM     22  C   UNL     1     -33.817  26.365   5.643  0.00  0.00    -0.002 C 
ATOM     23  C   UNL     1     -32.726  27.970   4.204  0.00  0.00    -0.002 C 
ATOM     24  C   UNL     1     -33.076  26.835   6.728  0.00  0.00    -0.000 C 
ATOM     25  C   UNL     1     -31.986  28.440   5.287  0.00  0.00    -0.000 C 
ATOM     26  C   UNL     1     -32.162  27.872   6.550  0.00  0.00    -0.000 C 
ENDBRANCH  18  21
ENDBRANCH  17  18
ENDBRANCH   4  17
TORSDOF 8
ENDMDL
