MODEL 1
REMARK VINA RESULT:      -6.5      0.000      0.000
REMARK  Name = 194158
REMARK  9 active torsions:
REMARK  status: ('A' for Active; 'I' for Inactive)
REMARK    1  A    between atoms: C_6  and  C_28
REMARK    2  A    between atoms: C_7  and  O_20
REMARK    3  A    between atoms: C_10  and  O_22
REMARK    4  A    between atoms: C_14  and  O_24
REMARK    5  A    between atoms: C_19  and  O_26
REMARK    6  A    between atoms: C_28  and  C_30
REMARK    7  A    between atoms: C_30  and  C_31
REMARK    8  A    between atoms: C_31  and  C_33
REMARK    9  A    between atoms: C_33  and  O_34
REMARK                            x       y       z     vdW  Elec       q    Type
REMARK                         _______ _______ _______ _____ _____    ______ ____
ROOT
ATOM      1  C   UNL     1     -39.721  25.009   1.687  0.00  0.00    +0.025 C 
ATOM      2  C   UNL     1     -39.253  23.546   1.505  0.00  0.00    +0.005 C 
ATOM      3  C   UNL     1     -37.725  23.387   1.563  0.00  0.00    +0.027 C 
ATOM      4  C   UNL     1     -37.205  23.914   2.946  0.00  0.00    +0.007 C 
ATOM      5  C   UNL     1     -35.629  23.800   3.070  0.00  0.00    +0.025 C 
ATOM      6  C   UNL     1     -41.246  24.796   1.487  0.00  0.00    +0.002 C 
ATOM      7  C   UNL     1     -39.275  25.492   3.082  0.00  0.00    +0.110 C 
ATOM      8  C   UNL     1     -35.210  22.310   2.817  0.00  0.00    +0.007 C 
ATOM      9  C   UNL     1     -37.751  25.339   3.264  0.00  0.00    +0.029 C 
ATOM     10  C   UNL     1     -37.266  21.941   1.286  0.00  0.00    +0.110 C 
ATOM     11  C   UNL     1     -39.979  23.092   0.238  0.00  0.00    +0.000 C 
ATOM     12  C   UNL     1     -41.328  23.830   0.284  0.00  0.00    +0.000 C 
ATOM     13  C   UNL     1     -35.758  21.763   1.482  0.00  0.00    +0.029 C 
ATOM     14  C   UNL     1     -35.114  24.250   4.483  0.00  0.00    +0.113 C 
ATOM     15  C   UNL     1     -39.160  25.983   0.615  0.00  0.00    +0.002 C 
ATOM     16  C   UNL     1     -35.577  21.376   3.991  0.00  0.00    +0.029 C 
ATOM     17  C   UNL     1     -34.927  24.707   2.019  0.00  0.00    +0.002 C 
ATOM     18  C   UNL     1     -35.504  23.297   5.611  0.00  0.00    +0.058 C 
ATOM     19  C   UNL     1     -35.047  21.869   5.332  0.00  0.00    +0.113 C 
ENDROOT
BRANCH   7  20
ATOM     20  O   UNL     1     -39.904  24.750   4.126  0.00  0.00    -0.384 OA
ATOM     21  H   UNL     1     -40.264  25.362   4.787  0.00  0.00    +0.210 HD
ENDBRANCH   7  20
BRANCH  10  22
ATOM     22  O   UNL     1     -37.949  21.002   2.111  0.00  0.00    -0.384 OA
ATOM     23  H   UNL     1     -38.600  20.518   1.579  0.00  0.00    +0.210 HD
ENDBRANCH  10  22
BRANCH  14  24
ATOM     24  O   UNL     1     -33.689  24.400   4.500  0.00  0.00    -0.384 OA
ATOM     25  H   UNL     1     -33.273  23.529   4.594  0.00  0.00    +0.210 HD
ENDBRANCH  14  24
BRANCH  19  26
ATOM     26  O   UNL     1     -35.536  21.028   6.375  0.00  0.00    -0.384 OA
ATOM     27  H   UNL     1     -35.803  21.574   7.130  0.00  0.00    +0.210 HD
ENDBRANCH  19  26
BRANCH   6  28
ATOM     28  C   UNL     1     -42.085  26.052   1.299  0.00  0.00    +0.001 C 
ATOM     29  C   UNL     1     -42.485  26.625   2.663  0.00  0.00    +0.000 C 
BRANCH  28  30
ATOM     30  C   UNL     1     -43.313  25.744   0.417  0.00  0.00    +0.012 C 
BRANCH  30  31
ATOM     31  C   UNL     1     -44.641  25.783   1.175  0.00  0.00    +0.109 C 
BRANCH  31  33
ATOM     32  O   UNL     1     -44.936  23.404   0.750  0.00  0.00    -0.250 OA
ATOM     33  C   UNL     1     -45.192  24.396   1.417  0.00  0.00    +0.314 C 
BRANCH  33  34
ATOM     34  O   UNL     1     -46.031  24.375   2.486  0.00  0.00    -0.480 OA
ATOM     35  H   UNL     1     -46.279  25.176   2.903  0.00  0.00    +0.295 HD
ENDBRANCH  33  34
ENDBRANCH  31  33
ENDBRANCH  30  31
ENDBRANCH  28  30
ENDBRANCH   6  28
TORSDOF 9
ENDMDL
MODEL 2
REMARK VINA RESULT:      -6.5      3.497      7.555
REMARK  Name = 194158
REMARK  9 active torsions:
REMARK  status: ('A' for Active; 'I' for Inactive)
REMARK    1  A    between atoms: C_6  and  C_28
REMARK    2  A    between atoms: C_7  and  O_20
REMARK    3  A    between atoms: C_10  and  O_22
REMARK    4  A    between atoms: C_14  and  O_24
REMARK    5  A    between atoms: C_19  and  O_26
REMARK    6  A    between atoms: C_28  and  C_30
REMARK    7  A    between atoms: C_30  and  C_31
REMARK    8  A    between atoms: C_31  and  C_33
REMARK    9  A    between atoms: C_33  and  O_34
REMARK                            x       y       z     vdW  Elec       q    Type
REMARK                         _______ _______ _______ _____ _____    ______ ____
ROOT
ATOM      1  C   UNL     1     -36.091  22.092   2.337  0.00  0.00    +0.025 C 
ATOM      2  C   UNL     1     -37.490  22.344   1.725  0.00  0.00    +0.005 C 
ATOM      3  C   UNL     1     -37.563  22.018   0.225  0.00  0.00    +0.027 C 
ATOM      4  C   UNL     1     -37.181  20.512   0.006  0.00  0.00    +0.007 C 
ATOM      5  C   UNL     1     -37.215  20.108  -1.526  0.00  0.00    +0.025 C 
ATOM      6  C   UNL     1     -36.368  22.597   3.778  0.00  0.00    +0.002 C 
ATOM      7  C   UNL     1     -35.759  20.593   2.189  0.00  0.00    +0.110 C 
ATOM      8  C   UNL     1     -38.634  20.441  -2.104  0.00  0.00    +0.007 C 
ATOM      9  C   UNL     1     -35.842  20.147   0.715  0.00  0.00    +0.029 C 
ATOM     10  C   UNL     1     -38.933  22.362  -0.393  0.00  0.00    +0.110 C 
ATOM     11  C   UNL     1     -37.826  23.767   2.173  0.00  0.00    +0.000 C 
ATOM     12  C   UNL     1     -37.181  23.894   3.564  0.00  0.00    +0.000 C 
ATOM     13  C   UNL     1     -39.043  21.907  -1.851  0.00  0.00    +0.029 C 
ATOM     14  C   UNL     1     -36.914  18.582  -1.740  0.00  0.00    +0.113 C 
ATOM     15  C   UNL     1     -34.960  22.925   1.674  0.00  0.00    +0.002 C 
ATOM     16  C   UNL     1     -39.727  19.468  -1.610  0.00  0.00    +0.029 C 
ATOM     17  C   UNL     1     -36.145  20.902  -2.329  0.00  0.00    +0.002 C 
ATOM     18  C   UNL     1     -38.021  17.660  -1.234  0.00  0.00    +0.058 C 
ATOM     19  C   UNL     1     -39.374  18.005  -1.848  0.00  0.00    +0.113 C 
ENDROOT
BRANCH   7  20
ATOM     20  O   UNL     1     -36.661  19.775   2.932  0.00  0.00    -0.384 OA
ATOM     21  H   UNL     1     -36.363  19.721   3.854  0.00  0.00    +0.210 HD
ENDBRANCH   7  20
BRANCH  10  22
ATOM     22  O   UNL     1     -40.006  21.789   0.348  0.00  0.00    -0.384 OA
ATOM     23  H   UNL     1     -40.063  22.218   1.217  0.00  0.00    +0.210 HD
ENDBRANCH  10  22
BRANCH  14  24
ATOM     24  O   UNL     1     -36.682  18.282  -3.123  0.00  0.00    -0.384 OA
ATOM     25  H   UNL     1     -36.021  17.575  -3.193  0.00  0.00    +0.210 HD
ENDBRANCH  14  24
BRANCH  19  26
ATOM     26  O   UNL     1     -40.364  17.172  -1.251  0.00  0.00    -0.384 OA
ATOM     27  H   UNL     1     -41.117  17.715  -0.972  0.00  0.00    +0.210 HD
ENDBRANCH  19  26
BRANCH   6  28
ATOM     28  C   UNL     1     -35.151  22.799   4.669  0.00  0.00    +0.001 C 
ATOM     29  C   UNL     1     -35.129  21.739   5.776  0.00  0.00    +0.000 C 
BRANCH  28  30
ATOM     30  C   UNL     1     -35.142  24.233   5.241  0.00  0.00    +0.012 C 
BRANCH  30  31
ATOM     31  C   UNL     1     -33.988  25.095   4.725  0.00  0.00    +0.109 C 
BRANCH  31  33
ATOM     32  O   UNL     1     -33.373  27.363   5.362  0.00  0.00    -0.250 OA
ATOM     33  C   UNL     1     -34.222  26.565   4.992  0.00  0.00    +0.314 C 
BRANCH  33  34
ATOM     34  O   UNL     1     -35.518  26.908   4.774  0.00  0.00    -0.480 OA
ATOM     35  H   UNL     1     -36.190  26.257   4.821  0.00  0.00    +0.295 HD
ENDBRANCH  33  34
ENDBRANCH  31  33
ENDBRANCH  30  31
ENDBRANCH  28  30
ENDBRANCH   6  28
TORSDOF 9
ENDMDL
MODEL 3
REMARK VINA RESULT:      -6.4      1.865      2.305
REMARK  Name = 194158
REMARK  9 active torsions:
REMARK  status: ('A' for Active; 'I' for Inactive)
REMARK    1  A    between atoms: C_6  and  C_28
REMARK    2  A    between atoms: C_7  and  O_20
REMARK    3  A    between atoms: C_10  and  O_22
REMARK    4  A    between atoms: C_14  and  O_24
REMARK    5  A    between atoms: C_19  and  O_26
REMARK    6  A    between atoms: C_28  and  C_30
REMARK    7  A    between atoms: C_30  and  C_31
REMARK    8  A    between atoms: C_31  and  C_33
REMARK    9  A    between atoms: C_33  and  O_34
REMARK                            x       y       z     vdW  Elec       q    Type
REMARK                         _______ _______ _______ _____ _____    ______ ____
ROOT
ATOM      1  C   UNL     1     -39.627  25.461   1.767  0.00  0.00    +0.025 C 
ATOM      2  C   UNL     1     -39.157  24.032   1.403  0.00  0.00    +0.005 C 
ATOM      3  C   UNL     1     -37.632  23.858   1.479  0.00  0.00    +0.027 C 
ATOM      4  C   UNL     1     -37.147  24.193   2.932  0.00  0.00    +0.007 C 
ATOM      5  C   UNL     1     -35.575  24.054   3.080  0.00  0.00    +0.025 C 
ATOM      6  C   UNL     1     -41.146  25.285   1.501  0.00  0.00    +0.002 C 
ATOM      7  C   UNL     1     -39.216  25.750   3.224  0.00  0.00    +0.110 C 
ATOM      8  C   UNL     1     -35.153  22.609   2.641  0.00  0.00    +0.007 C 
ATOM      9  C   UNL     1     -37.698  25.566   3.423  0.00  0.00    +0.029 C 
ATOM     10  C   UNL     1     -37.169  22.459   1.023  0.00  0.00    +0.110 C 
ATOM     11  C   UNL     1     -39.851  23.755   0.068  0.00  0.00    +0.000 C 
ATOM     12  C   UNL     1     -41.199  24.489   0.178  0.00  0.00    +0.000 C 
ATOM     13  C   UNL     1     -35.668  22.248   1.232  0.00  0.00    +0.029 C 
ATOM     14  C   UNL     1     -35.097  24.309   4.554  0.00  0.00    +0.113 C 
ATOM     15  C   UNL     1     -39.036  26.565   0.849  0.00  0.00    +0.002 C 
ATOM     16  C   UNL     1     -35.553  21.529   3.670  0.00  0.00    +0.029 C 
ATOM     17  C   UNL     1     -34.844  25.089   2.178  0.00  0.00    +0.002 C 
ATOM     18  C   UNL     1     -35.518  23.216   5.534  0.00  0.00    +0.058 C 
ATOM     19  C   UNL     1     -35.057  21.835   5.078  0.00  0.00    +0.113 C 
ENDROOT
BRANCH   7  20
ATOM     20  O   UNL     1     -39.875  24.879   4.143  0.00  0.00    -0.384 OA
ATOM     21  H   UNL     1     -40.221  24.108   3.667  0.00  0.00    +0.210 HD
ENDBRANCH   7  20
BRANCH  10  22
ATOM     22  O   UNL     1     -37.876  21.423   1.697  0.00  0.00    -0.384 OA
ATOM     23  H   UNL     1     -37.531  20.561   1.416  0.00  0.00    +0.210 HD
ENDBRANCH  10  22
BRANCH  14  24
ATOM     24  O   UNL     1     -33.672  24.447   4.627  0.00  0.00    -0.384 OA
ATOM     25  H   UNL     1     -33.278  23.601   4.889  0.00  0.00    +0.210 HD
ENDBRANCH  14  24
BRANCH  19  26
ATOM     26  O   UNL     1     -35.575  20.866   5.987  0.00  0.00    -0.384 OA
ATOM     27  H   UNL     1     -34.886  20.620   6.623  0.00  0.00    +0.210 HD
ENDBRANCH  19  26
BRANCH   6  28
ATOM     28  C   UNL     1     -41.977  26.560   1.461  0.00  0.00    +0.001 C 
ATOM     29  C   UNL     1     -43.219  26.405   2.345  0.00  0.00    +0.000 C 
BRANCH  28  30
ATOM     30  C   UNL     1     -42.344  26.909   0.003  0.00  0.00    +0.012 C 
BRANCH  30  31
ATOM     31  C   UNL     1     -42.702  28.382  -0.206  0.00  0.00    +0.109 C 
BRANCH  31  33
ATOM     32  O   UNL     1     -40.586  29.550   0.088  0.00  0.00    -0.250 OA
ATOM     33  C   UNL     1     -41.717  29.303   0.479  0.00  0.00    +0.314 C 
BRANCH  33  34
ATOM     34  O   UNL     1     -42.243  29.835   1.613  0.00  0.00    -0.480 OA
ATOM     35  H   UNL     1     -43.155  29.731   1.802  0.00  0.00    +0.295 HD
ENDBRANCH  33  34
ENDBRANCH  31  33
ENDBRANCH  30  31
ENDBRANCH  28  30
ENDBRANCH   6  28
TORSDOF 9
ENDMDL
MODEL 4
REMARK VINA RESULT:      -6.2      5.381      9.023
REMARK  Name = 194158
REMARK  9 active torsions:
REMARK  status: ('A' for Active; 'I' for Inactive)
REMARK    1  A    between atoms: C_6  and  C_28
REMARK    2  A    between atoms: C_7  and  O_20
REMARK    3  A    between atoms: C_10  and  O_22
REMARK    4  A    between atoms: C_14  and  O_24
REMARK    5  A    between atoms: C_19  and  O_26
REMARK    6  A    between atoms: C_28  and  C_30
REMARK    7  A    between atoms: C_30  and  C_31
REMARK    8  A    between atoms: C_31  and  C_33
REMARK    9  A    between atoms: C_33  and  O_34
REMARK                            x       y       z     vdW  Elec       q    Type
REMARK                         _______ _______ _______ _____ _____    ______ ____
ROOT
ATOM      1  C   UNL     1     -34.071  26.802   3.637  0.00  0.00    +0.025 C 
ATOM      2  C   UNL     1     -33.385  27.612   4.763  0.00  0.00    +0.005 C 
ATOM      3  C   UNL     1     -32.027  28.200   4.346  0.00  0.00    +0.027 C 
ATOM      4  C   UNL     1     -32.230  29.135   3.104  0.00  0.00    +0.007 C 
ATOM      5  C   UNL     1     -30.863  29.764   2.604  0.00  0.00    +0.025 C 
ATOM      6  C   UNL     1     -35.316  26.312   4.423  0.00  0.00    +0.002 C 
ATOM      7  C   UNL     1     -34.339  27.751   2.451  0.00  0.00    +0.110 C 
ATOM      8  C   UNL     1     -30.188  30.518   3.801  0.00  0.00    +0.007 C 
ATOM      9  C   UNL     1     -33.039  28.430   1.974  0.00  0.00    +0.029 C 
ATOM     10  C   UNL     1     -31.311  28.923   5.504  0.00  0.00    +0.110 C 
ATOM     11  C   UNL     1     -33.425  26.663   5.962  0.00  0.00    +0.000 C 
ATOM     12  C   UNL     1     -34.743  25.889   5.794  0.00  0.00    +0.000 C 
ATOM     13  C   UNL     1     -30.028  29.622   5.047  0.00  0.00    +0.029 C 
ATOM     14  C   UNL     1     -31.075  30.765   1.414  0.00  0.00    +0.113 C 
ATOM     15  C   UNL     1     -33.231  25.596   3.135  0.00  0.00    +0.002 C 
ATOM     16  C   UNL     1     -30.904  31.840   4.158  0.00  0.00    +0.029 C 
ATOM     17  C   UNL     1     -29.899  28.653   2.100  0.00  0.00    +0.002 C 
ATOM     18  C   UNL     1     -31.788  32.055   1.814  0.00  0.00    +0.058 C 
ATOM     19  C   UNL     1     -31.076  32.766   2.960  0.00  0.00    +0.113 C 
ENDROOT
BRANCH   7  20
ATOM     20  O   UNL     1     -35.257  28.786   2.799  0.00  0.00    -0.384 OA
ATOM     21  H   UNL     1     -36.001  28.782   2.176  0.00  0.00    +0.210 HD
ENDBRANCH   7  20
BRANCH  10  22
ATOM     22  O   UNL     1     -32.156  29.882   6.132  0.00  0.00    -0.384 OA
ATOM     23  H   UNL     1     -31.893  29.987   7.060  0.00  0.00    +0.210 HD
ENDBRANCH  10  22
BRANCH  14  24
ATOM     24  O   UNL     1     -29.831  31.118   0.797  0.00  0.00    -0.384 OA
ATOM     25  H   UNL     1     -29.948  31.925   0.271  0.00  0.00    +0.210 HD
ENDBRANCH  14  24
BRANCH  19  26
ATOM     26  O   UNL     1     -31.855  33.898   3.341  0.00  0.00    -0.384 OA
ATOM     27  H   UNL     1     -31.426  34.349   4.084  0.00  0.00    +0.210 HD
ENDBRANCH  19  26
BRANCH   6  28
ATOM     28  C   UNL     1     -36.145  25.219   3.762  0.00  0.00    +0.001 C 
ATOM     29  C   UNL     1     -37.464  25.802   3.244  0.00  0.00    +0.000 C 
BRANCH  28  30
ATOM     30  C   UNL     1     -36.375  24.056   4.750  0.00  0.00    +0.012 C 
BRANCH  30  31
ATOM     31  C   UNL     1     -35.600  22.785   4.395  0.00  0.00    +0.109 C 
BRANCH  31  33
ATOM     32  O   UNL     1     -35.265  22.349   6.767  0.00  0.00    -0.250 OA
ATOM     33  C   UNL     1     -35.318  21.940   5.617  0.00  0.00    +0.314 C 
BRANCH  33  34
ATOM     34  O   UNL     1     -35.118  20.638   5.283  0.00  0.00    -0.480 OA
ATOM     35  H   UNL     1     -35.764  19.994   5.495  0.00  0.00    +0.295 HD
ENDBRANCH  33  34
ENDBRANCH  31  33
ENDBRANCH  30  31
ENDBRANCH  28  30
ENDBRANCH   6  28
TORSDOF 9
ENDMDL
MODEL 5
REMARK VINA RESULT:      -5.9      4.397      8.951
REMARK  Name = 194158
REMARK  9 active torsions:
REMARK  status: ('A' for Active; 'I' for Inactive)
REMARK    1  A    between atoms: C_6  and  C_28
REMARK    2  A    between atoms: C_7  and  O_20
REMARK    3  A    between atoms: C_10  and  O_22
REMARK    4  A    between atoms: C_14  and  O_24
REMARK    5  A    between atoms: C_19  and  O_26
REMARK    6  A    between atoms: C_28  and  C_30
REMARK    7  A    between atoms: C_30  and  C_31
REMARK    8  A    between atoms: C_31  and  C_33
REMARK    9  A    between atoms: C_33  and  O_34
REMARK                            x       y       z     vdW  Elec       q    Type
REMARK                         _______ _______ _______ _____ _____    ______ ____
ROOT
ATOM      1  C   UNL     1     -33.376  26.877   3.682  0.00  0.00    +0.025 C 
ATOM      2  C   UNL     1     -33.849  25.665   4.519  0.00  0.00    +0.005 C 
ATOM      3  C   UNL     1     -35.015  24.899   3.873  0.00  0.00    +0.027 C 
ATOM      4  C   UNL     1     -34.576  24.392   2.456  0.00  0.00    +0.007 C 
ATOM      5  C   UNL     1     -35.740  23.608   1.719  0.00  0.00    +0.025 C 
ATOM      6  C   UNL     1     -32.298  27.429   4.652  0.00  0.00    +0.002 C 
ATOM      7  C   UNL     1     -32.871  26.359   2.320  0.00  0.00    +0.110 C 
ATOM      8  C   UNL     1     -36.216  22.431   2.640  0.00  0.00    +0.007 C 
ATOM      9  C   UNL     1     -33.958  25.537   1.598  0.00  0.00    +0.029 C 
ATOM     10  C   UNL     1     -35.539  23.752   4.761  0.00  0.00    +0.110 C 
ATOM     11  C   UNL     1     -34.055  26.253   5.916  0.00  0.00    +0.000 C 
ATOM     12  C   UNL     1     -32.969  27.335   6.040  0.00  0.00    +0.000 C 
ATOM     13  C   UNL     1     -36.604  22.911   4.054  0.00  0.00    +0.029 C 
ATOM     14  C   UNL     1     -35.276  23.028   0.336  0.00  0.00    +0.113 C 
ATOM     15  C   UNL     1     -34.485  27.937   3.436  0.00  0.00    +0.002 C 
ATOM     16  C   UNL     1     -35.198  21.272   2.708  0.00  0.00    +0.029 C 
ATOM     17  C   UNL     1     -36.946  24.549   1.438  0.00  0.00    +0.002 C 
ATOM     18  C   UNL     1     -34.269  21.887   0.454  0.00  0.00    +0.058 C 
ATOM     19  C   UNL     1     -34.791  20.755   1.333  0.00  0.00    +0.113 C 
ENDROOT
BRANCH   7  20
ATOM     20  O   UNL     1     -31.728  25.518   2.464  0.00  0.00    -0.384 OA
ATOM     21  H   UNL     1     -30.970  25.922   2.013  0.00  0.00    +0.210 HD
ENDBRANCH   7  20
BRANCH  10  22
ATOM     22  O   UNL     1     -34.486  22.894   5.190  0.00  0.00    -0.384 OA
ATOM     23  H   UNL     1     -34.717  22.505   6.049  0.00  0.00    +0.210 HD
ENDBRANCH  10  22
BRANCH  14  24
ATOM     24  O   UNL     1     -36.389  22.561  -0.437  0.00  0.00    -0.384 OA
ATOM     25  H   UNL     1     -36.073  21.959  -1.129  0.00  0.00    +0.210 HD
ENDBRANCH  14  24
BRANCH  19  26
ATOM     26  O   UNL     1     -33.759  19.783   1.476  0.00  0.00    -0.384 OA
ATOM     27  H   UNL     1     -33.852  19.109   0.785  0.00  0.00    +0.210 HD
ENDBRANCH  19  26
BRANCH   6  28
ATOM     28  C   UNL     1     -31.761  28.820   4.344  0.00  0.00    +0.001 C 
ATOM     29  C   UNL     1     -30.555  28.721   3.405  0.00  0.00    +0.000 C 
BRANCH  28  30
ATOM     30  C   UNL     1     -31.415  29.558   5.655  0.00  0.00    +0.012 C 
BRANCH  30  31
ATOM     31  C   UNL     1     -29.912  29.731   5.886  0.00  0.00    +0.109 C 
BRANCH  31  33
ATOM     32  O   UNL     1     -29.231  27.479   6.512  0.00  0.00    -0.250 OA
ATOM     33  C   UNL     1     -29.357  28.661   6.798  0.00  0.00    +0.314 C 
BRANCH  33  34
ATOM     34  O   UNL     1     -29.007  29.173   8.007  0.00  0.00    -0.480 OA
ATOM     35  H   UNL     1     -28.378  29.865   8.060  0.00  0.00    +0.295 HD
ENDBRANCH  33  34
ENDBRANCH  31  33
ENDBRANCH  30  31
ENDBRANCH  28  30
ENDBRANCH   6  28
TORSDOF 9
ENDMDL
MODEL 6
REMARK VINA RESULT:      -5.8      2.332      3.846
REMARK  Name = 194158
REMARK  9 active torsions:
REMARK  status: ('A' for Active; 'I' for Inactive)
REMARK    1  A    between atoms: C_6  and  C_28
REMARK    2  A    between atoms: C_7  and  O_20
REMARK    3  A    between atoms: C_10  and  O_22
REMARK    4  A    between atoms: C_14  and  O_24
REMARK    5  A    between atoms: C_19  and  O_26
REMARK    6  A    between atoms: C_28  and  C_30
REMARK    7  A    between atoms: C_30  and  C_31
REMARK    8  A    between atoms: C_31  and  C_33
REMARK    9  A    between atoms: C_33  and  O_34
REMARK                            x       y       z     vdW  Elec       q    Type
REMARK                         _______ _______ _______ _____ _____    ______ ____
ROOT
ATOM      1  C   UNL     1     -39.916  24.563   1.855  0.00  0.00    +0.025 C 
ATOM      2  C   UNL     1     -38.624  25.069   1.171  0.00  0.00    +0.005 C 
ATOM      3  C   UNL     1     -37.341  24.548   1.837  0.00  0.00    +0.027 C 
ATOM      4  C   UNL     1     -37.346  22.980   1.808  0.00  0.00    +0.007 C 
ATOM      5  C   UNL     1     -36.056  22.369   2.499  0.00  0.00    +0.025 C 
ATOM      6  C   UNL     1     -40.956  25.336   1.000  0.00  0.00    +0.002 C 
ATOM      7  C   UNL     1     -39.951  23.025   1.750  0.00  0.00    +0.110 C 
ATOM      8  C   UNL     1     -34.783  22.963   1.804  0.00  0.00    +0.007 C 
ATOM      9  C   UNL     1     -38.681  22.395   2.358  0.00  0.00    +0.029 C 
ATOM     10  C   UNL     1     -36.062  25.134   1.206  0.00  0.00    +0.110 C 
ATOM     11  C   UNL     1     -38.832  26.582   1.086  0.00  0.00    +0.000 C 
ATOM     12  C   UNL     1     -40.345  26.749   0.868  0.00  0.00    +0.000 C 
ATOM     13  C   UNL     1     -34.790  24.506   1.782  0.00  0.00    +0.029 C 
ATOM     14  C   UNL     1     -36.019  20.803   2.397  0.00  0.00    +0.113 C 
ATOM     15  C   UNL     1     -40.030  24.967   3.350  0.00  0.00    +0.002 C 
ATOM     16  C   UNL     1     -34.549  22.390   0.389  0.00  0.00    +0.029 C 
ATOM     17  C   UNL     1     -36.020  22.729   4.012  0.00  0.00    +0.002 C 
ATOM     18  C   UNL     1     -35.788  20.284   0.980  0.00  0.00    +0.058 C 
ATOM     19  C   UNL     1     -34.522  20.867   0.360  0.00  0.00    +0.113 C 
ENDROOT
BRANCH   7  20
ATOM     20  O   UNL     1     -40.034  22.589   0.394  0.00  0.00    -0.384 OA
ATOM     21  H   UNL     1     -40.405  21.693   0.364  0.00  0.00    +0.210 HD
ENDBRANCH   7  20
BRANCH  10  22
ATOM     22  O   UNL     1     -36.051  24.975  -0.209  0.00  0.00    -0.384 OA
ATOM     23  H   UNL     1     -35.172  24.678  -0.494  0.00  0.00    +0.210 HD
ENDBRANCH  10  22
BRANCH  14  24
ATOM     24  O   UNL     1     -35.007  20.246   3.246  0.00  0.00    -0.384 OA
ATOM     25  H   UNL     1     -35.426  19.775   3.983  0.00  0.00    +0.210 HD
ENDBRANCH  14  24
BRANCH  19  26
ATOM     26  O   UNL     1     -34.433  20.417  -0.989  0.00  0.00    -0.384 OA
ATOM     27  H   UNL     1     -34.917  19.582  -1.084  0.00  0.00    +0.210 HD
ENDBRANCH  19  26
BRANCH   6  28
ATOM     28  C   UNL     1     -42.384  25.352   1.525  0.00  0.00    +0.001 C 
ATOM     29  C   UNL     1     -43.318  24.661   0.526  0.00  0.00    +0.000 C 
BRANCH  28  30
ATOM     30  C   UNL     1     -42.825  26.801   1.823  0.00  0.00    +0.012 C 
BRANCH  30  31
ATOM     31  C   UNL     1     -42.967  27.107   3.315  0.00  0.00    +0.109 C 
BRANCH  31  33
ATOM     32  O   UNL     1     -42.105  28.867   4.760  0.00  0.00    -0.250 OA
ATOM     33  C   UNL     1     -42.469  28.493   3.655  0.00  0.00    +0.314 C 
BRANCH  33  34
ATOM     34  O   UNL     1     -42.477  29.303   2.563  0.00  0.00    -0.480 OA
ATOM     35  H   UNL     1     -42.465  30.234   2.669  0.00  0.00    +0.295 HD
ENDBRANCH  33  34
ENDBRANCH  31  33
ENDBRANCH  30  31
ENDBRANCH  28  30
ENDBRANCH   6  28
TORSDOF 9
ENDMDL
MODEL 7
REMARK VINA RESULT:      -5.7      4.189      9.042
REMARK  Name = 194158
REMARK  9 active torsions:
REMARK  status: ('A' for Active; 'I' for Inactive)
REMARK    1  A    between atoms: C_6  and  C_28
REMARK    2  A    between atoms: C_7  and  O_20
REMARK    3  A    between atoms: C_10  and  O_22
REMARK    4  A    between atoms: C_14  and  O_24
REMARK    5  A    between atoms: C_19  and  O_26
REMARK    6  A    between atoms: C_28  and  C_30
REMARK    7  A    between atoms: C_30  and  C_31
REMARK    8  A    between atoms: C_31  and  C_33
REMARK    9  A    between atoms: C_33  and  O_34
REMARK                            x       y       z     vdW  Elec       q    Type
REMARK                         _______ _______ _______ _____ _____    ______ ____
ROOT
ATOM      1  C   UNL     1     -42.435  26.752   2.372  0.00  0.00    +0.025 C 
ATOM      2  C   UNL     1     -42.468  28.109   1.630  0.00  0.00    +0.005 C 
ATOM      3  C   UNL     1     -43.755  28.909   1.888  0.00  0.00    +0.027 C 
ATOM      4  C   UNL     1     -43.900  29.172   3.427  0.00  0.00    +0.007 C 
ATOM      5  C   UNL     1     -45.221  29.978   3.771  0.00  0.00    +0.025 C 
ATOM      6  C   UNL     1     -41.087  26.214   1.822  0.00  0.00    +0.002 C 
ATOM      7  C   UNL     1     -42.496  27.025   3.888  0.00  0.00    +0.110 C 
ATOM      8  C   UNL     1     -45.226  31.312   2.947  0.00  0.00    +0.007 C 
ATOM      9  C   UNL     1     -43.739  27.861   4.255  0.00  0.00    +0.029 C 
ATOM     10  C   UNL     1     -43.818  30.215   1.070  0.00  0.00    +0.110 C 
ATOM     11  C   UNL     1     -42.123  27.738   0.187  0.00  0.00    +0.000 C 
ATOM     12  C   UNL     1     -41.136  26.567   0.318  0.00  0.00    +0.000 C 
ATOM     13  C   UNL     1     -45.034  31.070   1.435  0.00  0.00    +0.029 C 
ATOM     14  C   UNL     1     -45.325  30.314   5.301  0.00  0.00    +0.113 C 
ATOM     15  C   UNL     1     -43.600  25.801   1.986  0.00  0.00    +0.002 C 
ATOM     16  C   UNL     1     -44.209  32.347   3.475  0.00  0.00    +0.029 C 
ATOM     17  C   UNL     1     -46.483  29.150   3.398  0.00  0.00    +0.002 C 
ATOM     18  C   UNL     1     -44.299  31.340   5.777  0.00  0.00    +0.058 C 
ATOM     19  C   UNL     1     -44.366  32.629   4.965  0.00  0.00    +0.113 C 
ENDROOT
BRANCH   7  20
ATOM     20  O   UNL     1     -41.350  27.744   4.343  0.00  0.00    -0.384 OA
ATOM     21  H   UNL     1     -41.634  28.559   4.786  0.00  0.00    +0.210 HD
ENDBRANCH   7  20
BRANCH  10  22
ATOM     22  O   UNL     1     -42.641  30.999   1.235  0.00  0.00    -0.384 OA
ATOM     23  H   UNL     1     -42.887  31.902   1.488  0.00  0.00    +0.210 HD
ENDBRANCH  10  22
BRANCH  14  24
ATOM     24  O   UNL     1     -46.630  30.797   5.644  0.00  0.00    -0.384 OA
ATOM     25  H   UNL     1     -46.590  31.753   5.800  0.00  0.00    +0.210 HD
ENDBRANCH  14  24
BRANCH  19  26
ATOM     26  O   UNL     1     -43.316  33.490   5.400  0.00  0.00    -0.384 OA
ATOM     27  H   UNL     1     -42.780  33.033   6.067  0.00  0.00    +0.210 HD
ENDBRANCH  19  26
BRANCH   6  28
ATOM     28  C   UNL     1     -40.790  24.744   2.079  0.00  0.00    +0.001 C 
ATOM     29  C   UNL     1     -39.620  24.608   3.059  0.00  0.00    +0.000 C 
BRANCH  28  30
ATOM     30  C   UNL     1     -40.515  24.016   0.746  0.00  0.00    +0.012 C 
BRANCH  30  31
ATOM     31  C   UNL     1     -39.543  22.842   0.874  0.00  0.00    +0.109 C 
BRANCH  31  33
ATOM     32  O   UNL     1     -40.944  20.971   0.190  0.00  0.00    -0.250 OA
ATOM     33  C   UNL     1     -40.270  21.527   1.045  0.00  0.00    +0.314 C 
BRANCH  33  34
ATOM     34  O   UNL     1     -40.089  21.020   2.293  0.00  0.00    -0.480 OA
ATOM     35  H   UNL     1     -39.653  20.199   2.408  0.00  0.00    +0.295 HD
ENDBRANCH  33  34
ENDBRANCH  31  33
ENDBRANCH  30  31
ENDBRANCH  28  30
ENDBRANCH   6  28
TORSDOF 9
ENDMDL
MODEL 8
REMARK VINA RESULT:      -5.7      3.172      4.873
REMARK  Name = 194158
REMARK  9 active torsions:
REMARK  status: ('A' for Active; 'I' for Inactive)
REMARK    1  A    between atoms: C_6  and  C_28
REMARK    2  A    between atoms: C_7  and  O_20
REMARK    3  A    between atoms: C_10  and  O_22
REMARK    4  A    between atoms: C_14  and  O_24
REMARK    5  A    between atoms: C_19  and  O_26
REMARK    6  A    between atoms: C_28  and  C_30
REMARK    7  A    between atoms: C_30  and  C_31
REMARK    8  A    between atoms: C_31  and  C_33
REMARK    9  A    between atoms: C_33  and  O_34
REMARK                            x       y       z     vdW  Elec       q    Type
REMARK                         _______ _______ _______ _____ _____    ______ ____
ROOT
ATOM      1  C   UNL     1     -37.116  22.990   1.460  0.00  0.00    +0.025 C 
ATOM      2  C   UNL     1     -37.378  21.474   1.301  0.00  0.00    +0.005 C 
ATOM      3  C   UNL     1     -36.601  20.843   0.135  0.00  0.00    +0.027 C 
ATOM      4  C   UNL     1     -35.065  21.068   0.358  0.00  0.00    +0.007 C 
ATOM      5  C   UNL     1     -34.199  20.458  -0.821  0.00  0.00    +0.025 C 
ATOM      6  C   UNL     1     -38.097  23.280   2.627  0.00  0.00    +0.002 C 
ATOM      7  C   UNL     1     -35.617  23.195   1.759  0.00  0.00    +0.110 C 
ATOM      8  C   UNL     1     -34.551  18.938  -0.972  0.00  0.00    +0.007 C 
ATOM      9  C   UNL     1     -34.738  22.561   0.662  0.00  0.00    +0.029 C 
ATOM     10  C   UNL     1     -36.943  19.353  -0.071  0.00  0.00    +0.110 C 
ATOM     11  C   UNL     1     -38.905  21.373   1.292  0.00  0.00    +0.000 C 
ATOM     12  C   UNL     1     -39.368  22.488   2.245  0.00  0.00    +0.000 C 
ATOM     13  C   UNL     1     -36.066  18.699  -1.142  0.00  0.00    +0.029 C 
ATOM     14  C   UNL     1     -32.658  20.609  -0.560  0.00  0.00    +0.113 C 
ATOM     15  C   UNL     1     -37.496  23.824   0.206  0.00  0.00    +0.002 C 
ATOM     16  C   UNL     1     -33.979  18.073   0.172  0.00  0.00    +0.029 C 
ATOM     17  C   UNL     1     -34.507  21.183  -2.163  0.00  0.00    +0.002 C 
ATOM     18  C   UNL     1     -32.139  19.737   0.581  0.00  0.00    +0.058 C 
ATOM     19  C   UNL     1     -32.481  18.265   0.372  0.00  0.00    +0.113 C 
ENDROOT
BRANCH   7  20
ATOM     20  O   UNL     1     -35.239  22.604   3.001  0.00  0.00    -0.384 OA
ATOM     21  H   UNL     1     -36.035  22.375   3.507  0.00  0.00    +0.210 HD
ENDBRANCH   7  20
BRANCH  10  22
ATOM     22  O   UNL     1     -36.821  18.611   1.138  0.00  0.00    -0.384 OA
ATOM     23  H   UNL     1     -36.641  17.680   0.929  0.00  0.00    +0.210 HD
ENDBRANCH  10  22
BRANCH  14  24
ATOM     24  O   UNL     1     -31.894  20.306  -1.734  0.00  0.00    -0.384 OA
ATOM     25  H   UNL     1     -32.128  19.421  -2.053  0.00  0.00    +0.210 HD
ENDBRANCH  14  24
BRANCH  19  26
ATOM     26  O   UNL     1     -32.056  17.537   1.522  0.00  0.00    -0.384 OA
ATOM     27  H   UNL     1     -31.989  18.139   2.278  0.00  0.00    +0.210 HD
ENDBRANCH  19  26
BRANCH   6  28
ATOM     28  C   UNL     1     -38.377  24.746   2.927  0.00  0.00    +0.001 C 
ATOM     29  C   UNL     1     -37.449  25.240   4.041  0.00  0.00    +0.000 C 
BRANCH  28  30
ATOM     30  C   UNL     1     -39.866  24.940   3.284  0.00  0.00    +0.012 C 
BRANCH  30  31
ATOM     31  C   UNL     1     -40.489  26.194   2.668  0.00  0.00    +0.109 C 
BRANCH  31  33
ATOM     32  O   UNL     1     -42.823  26.362   3.341  0.00  0.00    -0.250 OA
ATOM     33  C   UNL     1     -41.657  26.700   3.484  0.00  0.00    +0.314 C 
BRANCH  33  34
ATOM     34  O   UNL     1     -41.256  27.603   4.416  0.00  0.00    -0.480 OA
ATOM     35  H   UNL     1     -40.607  27.367   5.049  0.00  0.00    +0.295 HD
ENDBRANCH  33  34
ENDBRANCH  31  33
ENDBRANCH  30  31
ENDBRANCH  28  30
ENDBRANCH   6  28
TORSDOF 9
ENDMDL
MODEL 9
REMARK VINA RESULT:      -5.6      3.704      8.945
REMARK  Name = 194158
REMARK  9 active torsions:
REMARK  status: ('A' for Active; 'I' for Inactive)
REMARK    1  A    between atoms: C_6  and  C_28
REMARK    2  A    between atoms: C_7  and  O_20
REMARK    3  A    between atoms: C_10  and  O_22
REMARK    4  A    between atoms: C_14  and  O_24
REMARK    5  A    between atoms: C_19  and  O_26
REMARK    6  A    between atoms: C_28  and  C_30
REMARK    7  A    between atoms: C_30  and  C_31
REMARK    8  A    between atoms: C_31  and  C_33
REMARK    9  A    between atoms: C_33  and  O_34
REMARK                            x       y       z     vdW  Elec       q    Type
REMARK                         _______ _______ _______ _____ _____    ______ ____
ROOT
ATOM      1  C   UNL     1     -34.282  26.656   3.780  0.00  0.00    +0.025 C 
ATOM      2  C   UNL     1     -35.116  27.409   2.716  0.00  0.00    +0.005 C 
ATOM      3  C   UNL     1     -35.908  26.471   1.791  0.00  0.00    +0.027 C 
ATOM      4  C   UNL     1     -36.873  25.588   2.656  0.00  0.00    +0.007 C 
ATOM      5  C   UNL     1     -37.710  24.578   1.766  0.00  0.00    +0.025 C 
ATOM      6  C   UNL     1     -33.582  27.874   4.439  0.00  0.00    +0.002 C 
ATOM      7  C   UNL     1     -35.248  25.854   4.676  0.00  0.00    +0.110 C 
ATOM      8  C   UNL     1     -38.484  25.392   0.672  0.00  0.00    +0.007 C 
ATOM      9  C   UNL     1     -36.125  24.901   3.838  0.00  0.00    +0.029 C 
ATOM     10  C   UNL     1     -36.659  27.229   0.677  0.00  0.00    +0.110 C 
ATOM     11  C   UNL     1     -34.107  28.369   2.083  0.00  0.00    +0.000 C 
ATOM     12  C   UNL     1     -33.168  28.755   3.239  0.00  0.00    +0.000 C 
ATOM     13  C   UNL     1     -37.552  26.304  -0.153  0.00  0.00    +0.029 C 
ATOM     14  C   UNL     1     -38.736  23.751   2.620  0.00  0.00    +0.113 C 
ATOM     15  C   UNL     1     -33.233  25.683   3.176  0.00  0.00    +0.002 C 
ATOM     16  C   UNL     1     -39.673  26.193   1.249  0.00  0.00    +0.029 C 
ATOM     17  C   UNL     1     -36.772  23.555   1.063  0.00  0.00    +0.002 C 
ATOM     18  C   UNL     1     -39.891  24.585   3.170  0.00  0.00    +0.058 C 
ATOM     19  C   UNL     1     -40.631  25.332   2.065  0.00  0.00    +0.113 C 
ENDROOT
BRANCH   7  20
ATOM     20  O   UNL     1     -36.126  26.709   5.406  0.00  0.00    -0.384 OA
ATOM     21  H   UNL     1     -35.607  27.369   5.891  0.00  0.00    +0.210 HD
ENDBRANCH   7  20
BRANCH  10  22
ATOM     22  O   UNL     1     -37.456  28.286   1.202  0.00  0.00    -0.384 OA
ATOM     23  H   UNL     1     -37.170  29.129   0.816  0.00  0.00    +0.210 HD
ENDBRANCH  10  22
BRANCH  14  24
ATOM     24  O   UNL     1     -39.291  22.665   1.867  0.00  0.00    -0.384 OA
ATOM     25  H   UNL     1     -39.995  22.241   2.382  0.00  0.00    +0.210 HD
ENDBRANCH  14  24
BRANCH  19  26
ATOM     26  O   UNL     1     -41.621  26.161   2.667  0.00  0.00    -0.384 OA
ATOM     27  H   UNL     1     -41.513  26.146   3.630  0.00  0.00    +0.210 HD
ENDBRANCH  19  26
BRANCH   6  28
ATOM     28  C   UNL     1     -32.424  27.563   5.376  0.00  0.00    +0.001 C 
ATOM     29  C   UNL     1     -32.958  27.086   6.730  0.00  0.00    +0.000 C 
BRANCH  28  30
ATOM     30  C   UNL     1     -31.508  28.798   5.517  0.00  0.00    +0.012 C 
BRANCH  30  31
ATOM     31  C   UNL     1     -30.027  28.497   5.278  0.00  0.00    +0.109 C 
BRANCH  31  33
ATOM     32  O   UNL     1     -28.763  29.319   7.190  0.00  0.00    -0.250 OA
ATOM     33  C   UNL     1     -29.260  28.386   6.576  0.00  0.00    +0.314 C 
BRANCH  33  34
ATOM     34  O   UNL     1     -29.177  27.095   6.993  0.00  0.00    -0.480 OA
ATOM     35  H   UNL     1     -29.866  26.492   6.794  0.00  0.00    +0.295 HD
ENDBRANCH  33  34
ENDBRANCH  31  33
ENDBRANCH  30  31
ENDBRANCH  28  30
ENDBRANCH   6  28
TORSDOF 9
ENDMDL
