MODEL 1
REMARK VINA RESULT:      -6.8      0.000      0.000
REMARK  Name = 5382254
REMARK  7 active torsions:
REMARK  status: ('A' for Active; 'I' for Inactive)
REMARK    1  A    between atoms: C_6  and  O_21
REMARK    2  A    between atoms: C_9  and  O_19
REMARK    3  A    between atoms: O_21  and  C_23
REMARK    4  A    between atoms: C_23  and  C_24
REMARK    5  A    between atoms: C_24  and  C_27
REMARK    6  A    between atoms: C_27  and  O_28
REMARK    7  A    between atoms: O_28  and  C_30
REMARK                            x       y       z     vdW  Elec       q    Type
REMARK                         _______ _______ _______ _____ _____    ______ ____
ROOT
ATOM      1  O   UNL     1     -35.790  19.498   1.008  0.00  0.00    -0.336 OA
ATOM      2  O   UNL     1     -38.513  21.668  -0.859  0.00  0.00    -0.444 OA
ATOM      3  O   UNL     1     -40.647  22.310  -0.325  0.00  0.00    -0.245 OA
ATOM      4  C   UNL     1     -34.704  20.191   1.636  0.00  0.00    +0.099 C 
ATOM      5  C   UNL     1     -37.640  21.148   1.304  0.00  0.00    +0.113 C 
ATOM      6  C   UNL     1     -36.705  21.531   2.532  0.00  0.00    +0.179 C 
ATOM      7  C   UNL     1     -35.441  20.646   2.884  0.00  0.00    +0.071 C 
ATOM      8  C   UNL     1     -37.231  21.535  -0.172  0.00  0.00    +0.198 C 
ATOM      9  C   UNL     1     -35.329  18.754  -0.084  0.00  0.00    +0.200 C 
ATOM     10  C   UNL     1     -33.663  19.131   1.511  0.00  0.00    +0.033 C 
ATOM     11  C   UNL     1     -38.981  21.844   1.359  0.00  0.00    +0.060 C 
ATOM     12  C   UNL     1     -35.576  19.671  -1.255  0.00  0.00    +0.005 C 
ATOM     13  C   UNL     1     -36.362  20.784  -1.213  0.00  0.00    +0.013 C 
ATOM     14  C   UNL     1     -34.083  21.424   0.930  0.00  0.00    +0.030 C 
ATOM     15  C   UNL     1     -33.943  18.425   0.399  0.00  0.00    +0.063 C 
ATOM     16  C   UNL     1     -39.517  21.989  -0.005  0.00  0.00    +0.338 C 
ATOM     17  C   UNL     1     -34.895  19.268  -2.539  0.00  0.00    +0.031 C 
ATOM     18  C   UNL     1     -39.688  22.320   2.391  0.00  0.00    +0.002 C 
ENDROOT
BRANCH   9  19
ATOM     19  O   UNL     1     -36.100  17.569  -0.264  0.00  0.00    -0.361 OA
ATOM     20  H   UNL     1     -36.461  17.552  -1.165  0.00  0.00    +0.213 HD
ENDBRANCH   9  19
BRANCH   6  21
ATOM     21  O   UNL     1     -36.307  22.898   2.396  0.00  0.00    -0.449 OA
BRANCH  21  23
ATOM     22  O   UNL     1     -37.436  24.056   4.033  0.00  0.00    -0.245 OA
ATOM     23  C   UNL     1     -36.396  23.662   3.523  0.00  0.00    +0.340 C 
BRANCH  23  24
ATOM     24  C   UNL     1     -35.027  23.948   4.054  0.00  0.00    +0.093 C 
ATOM     25  C   UNL     1     -34.708  23.334   5.208  0.00  0.00    -0.020 C 
ATOM     26  C   UNL     1     -35.571  22.406   6.004  0.00  0.00    +0.031 C 
BRANCH  24  27
ATOM     27  C   UNL     1     -34.150  24.920   3.318  0.00  0.00    +0.241 C 
BRANCH  27  28
ATOM     28  O   UNL     1     -33.250  25.528   4.234  0.00  0.00    -0.443 OA
BRANCH  28  30
ATOM     29  O   UNL     1     -34.286  27.593   4.252  0.00  0.00    -0.250 OA
ATOM     30  C   UNL     1     -33.684  26.688   4.814  0.00  0.00    +0.318 C 
ATOM     31  C   UNL     1     -33.314  26.702   6.266  0.00  0.00    +0.121 C 
ENDBRANCH  28  30
ENDBRANCH  27  28
ENDBRANCH  24  27
ENDBRANCH  23  24
ENDBRANCH  21  23
ENDBRANCH   6  21
TORSDOF 7
ENDMDL
MODEL 2
REMARK VINA RESULT:      -6.7      2.633      6.915
REMARK  Name = 5382254
REMARK  7 active torsions:
REMARK  status: ('A' for Active; 'I' for Inactive)
REMARK    1  A    between atoms: C_6  and  O_21
REMARK    2  A    between atoms: C_9  and  O_19
REMARK    3  A    between atoms: O_21  and  C_23
REMARK    4  A    between atoms: C_23  and  C_24
REMARK    5  A    between atoms: C_24  and  C_27
REMARK    6  A    between atoms: C_27  and  O_28
REMARK    7  A    between atoms: O_28  and  C_30
REMARK                            x       y       z     vdW  Elec       q    Type
REMARK                         _______ _______ _______ _____ _____    ______ ____
ROOT
ATOM      1  O   UNL     1     -34.461  26.712   0.866  0.00  0.00    -0.336 OA
ATOM      2  O   UNL     1     -32.663  26.567   4.380  0.00  0.00    -0.444 OA
ATOM      3  O   UNL     1     -33.377  26.932   6.526  0.00  0.00    -0.245 OA
ATOM      4  C   UNL     1     -34.807  25.467   0.244  0.00  0.00    +0.099 C 
ATOM      5  C   UNL     1     -34.737  26.132   3.277  0.00  0.00    +0.113 C 
ATOM      6  C   UNL     1     -35.742  25.096   2.609  0.00  0.00    +0.179 C 
ATOM      7  C   UNL     1     -36.054  25.169   1.058  0.00  0.00    +0.071 C 
ATOM      8  C   UNL     1     -33.176  25.919   3.176  0.00  0.00    +0.198 C 
ATOM      9  C   UNL     1     -33.452  27.356   0.140  0.00  0.00    +0.200 C 
ATOM     10  C   UNL     1     -34.714  25.896  -1.180  0.00  0.00    +0.033 C 
ATOM     11  C   UNL     1     -34.865  26.170   4.784  0.00  0.00    +0.060 C 
ATOM     12  C   UNL     1     -32.193  26.942   0.857  0.00  0.00    +0.005 C 
ATOM     13  C   UNL     1     -32.160  26.363   2.090  0.00  0.00    +0.013 C 
ATOM     14  C   UNL     1     -33.828  24.270   0.349  0.00  0.00    +0.030 C 
ATOM     15  C   UNL     1     -33.784  26.868  -1.244  0.00  0.00    +0.063 C 
ATOM     16  C   UNL     1     -33.584  26.594   5.375  0.00  0.00    +0.338 C 
ATOM     17  C   UNL     1     -30.910  27.232   0.118  0.00  0.00    +0.031 C 
ATOM     18  C   UNL     1     -35.893  25.886   5.591  0.00  0.00    +0.002 C 
ENDROOT
BRANCH   9  19
ATOM     19  O   UNL     1     -33.580  28.772   0.224  0.00  0.00    -0.361 OA
ATOM     20  H   UNL     1     -33.667  29.034   1.155  0.00  0.00    +0.213 HD
ENDBRANCH   9  19
BRANCH   6  21
ATOM     21  O   UNL     1     -35.328  23.770   2.951  0.00  0.00    -0.449 OA
BRANCH  21  23
ATOM     22  O   UNL     1     -37.440  23.296   3.734  0.00  0.00    -0.245 OA
ATOM     23  C   UNL     1     -36.291  22.960   3.477  0.00  0.00    +0.340 C 
BRANCH  23  24
ATOM     24  C   UNL     1     -35.740  21.587   3.693  0.00  0.00    +0.093 C 
ATOM     25  C   UNL     1     -35.215  21.352   4.910  0.00  0.00    -0.020 C 
ATOM     26  C   UNL     1     -35.129  22.311   6.055  0.00  0.00    +0.031 C 
BRANCH  24  27
ATOM     27  C   UNL     1     -35.751  20.611   2.552  0.00  0.00    +0.241 C 
BRANCH  27  28
ATOM     28  O   UNL     1     -34.549  19.854   2.567  0.00  0.00    -0.443 OA
BRANCH  28  30
ATOM     29  O   UNL     1     -34.071  20.411   0.377  0.00  0.00    -0.250 OA
ATOM     30  C   UNL     1     -33.929  19.694   1.359  0.00  0.00    +0.318 C 
ATOM     31  C   UNL     1     -33.029  18.497   1.401  0.00  0.00    +0.121 C 
ENDBRANCH  28  30
ENDBRANCH  27  28
ENDBRANCH  24  27
ENDBRANCH  23  24
ENDBRANCH  21  23
ENDBRANCH   6  21
TORSDOF 7
ENDMDL
MODEL 3
REMARK VINA RESULT:      -6.5      3.105      5.487
REMARK  Name = 5382254
REMARK  7 active torsions:
REMARK  status: ('A' for Active; 'I' for Inactive)
REMARK    1  A    between atoms: C_6  and  O_21
REMARK    2  A    between atoms: C_9  and  O_19
REMARK    3  A    between atoms: O_21  and  C_23
REMARK    4  A    between atoms: C_23  and  C_24
REMARK    5  A    between atoms: C_24  and  C_27
REMARK    6  A    between atoms: C_27  and  O_28
REMARK    7  A    between atoms: O_28  and  C_30
REMARK                            x       y       z     vdW  Elec       q    Type
REMARK                         _______ _______ _______ _____ _____    ______ ____
ROOT
ATOM      1  O   UNL     1     -36.249  24.363   3.679  0.00  0.00    -0.336 OA
ATOM      2  O   UNL     1     -35.736  25.076  -0.172  0.00  0.00    -0.444 OA
ATOM      3  O   UNL     1     -36.655  26.589  -1.626  0.00  0.00    -0.245 OA
ATOM      4  C   UNL     1     -35.237  24.828   4.582  0.00  0.00    +0.099 C 
ATOM      5  C   UNL     1     -36.171  26.136   1.925  0.00  0.00    +0.113 C 
ATOM      6  C   UNL     1     -35.641  26.948   3.185  0.00  0.00    +0.179 C 
ATOM      7  C   UNL     1     -35.653  26.288   4.625  0.00  0.00    +0.071 C 
ATOM      8  C   UNL     1     -35.251  25.072   1.206  0.00  0.00    +0.198 C 
ATOM      9  C   UNL     1     -36.258  22.964   3.635  0.00  0.00    +0.200 C 
ATOM     10  C   UNL     1     -35.392  23.791   5.642  0.00  0.00    +0.033 C 
ATOM     11  C   UNL     1     -36.453  27.031   0.739  0.00  0.00    +0.060 C 
ATOM     12  C   UNL     1     -35.404  22.651   2.432  0.00  0.00    +0.005 C 
ATOM     13  C   UNL     1     -35.036  23.562   1.488  0.00  0.00    +0.013 C 
ATOM     14  C   UNL     1     -33.748  24.731   4.165  0.00  0.00    +0.030 C 
ATOM     15  C   UNL     1     -35.809  22.662   5.038  0.00  0.00    +0.063 C 
ATOM     16  C   UNL     1     -36.310  26.258  -0.507  0.00  0.00    +0.338 C 
ATOM     17  C   UNL     1     -34.974  21.211   2.309  0.00  0.00    +0.031 C 
ATOM     18  C   UNL     1     -36.779  28.327   0.668  0.00  0.00    +0.002 C 
ENDROOT
BRANCH   9  19
ATOM     19  O   UNL     1     -37.572  22.464   3.402  0.00  0.00    -0.361 OA
ATOM     20  H   UNL     1     -38.195  22.901   4.004  0.00  0.00    +0.213 HD
ENDBRANCH   9  19
BRANCH   6  21
ATOM     21  O   UNL     1     -34.328  27.437   2.897  0.00  0.00    -0.449 OA
BRANCH  21  23
ATOM     22  O   UNL     1     -35.013  29.593   3.322  0.00  0.00    -0.245 OA
ATOM     23  C   UNL     1     -34.134  28.774   3.085  0.00  0.00    +0.340 C 
BRANCH  23  24
ATOM     24  C   UNL     1     -32.680  29.100   2.966  0.00  0.00    +0.093 C 
ATOM     25  C   UNL     1     -32.186  29.122   1.714  0.00  0.00    -0.020 C 
ATOM     26  C   UNL     1     -32.934  28.859   0.445  0.00  0.00    +0.031 C 
BRANCH  24  27
ATOM     27  C   UNL     1     -31.877  29.313   4.218  0.00  0.00    +0.241 C 
BRANCH  27  28
ATOM     28  O   UNL     1     -32.590  28.787   5.329  0.00  0.00    -0.443 OA
BRANCH  28  30
ATOM     29  O   UNL     1     -30.674  27.849   6.216  0.00  0.00    -0.250 OA
ATOM     30  C   UNL     1     -31.893  27.929   6.133  0.00  0.00    +0.318 C 
ATOM     31  C   UNL     1     -32.844  27.080   6.921  0.00  0.00    +0.121 C 
ENDBRANCH  28  30
ENDBRANCH  27  28
ENDBRANCH  24  27
ENDBRANCH  23  24
ENDBRANCH  21  23
ENDBRANCH   6  21
TORSDOF 7
ENDMDL
MODEL 4
REMARK VINA RESULT:      -6.4      1.573      2.489
REMARK  Name = 5382254
REMARK  7 active torsions:
REMARK  status: ('A' for Active; 'I' for Inactive)
REMARK    1  A    between atoms: C_6  and  O_21
REMARK    2  A    between atoms: C_9  and  O_19
REMARK    3  A    between atoms: O_21  and  C_23
REMARK    4  A    between atoms: C_23  and  C_24
REMARK    5  A    between atoms: C_24  and  C_27
REMARK    6  A    between atoms: C_27  and  O_28
REMARK    7  A    between atoms: O_28  and  C_30
REMARK                            x       y       z     vdW  Elec       q    Type
REMARK                         _______ _______ _______ _____ _____    ______ ____
ROOT
ATOM      1  O   UNL     1     -36.375  20.112   1.229  0.00  0.00    -0.336 OA
ATOM      2  O   UNL     1     -39.452  21.824  -0.563  0.00  0.00    -0.444 OA
ATOM      3  O   UNL     1     -41.396  22.759   0.207  0.00  0.00    -0.245 OA
ATOM      4  C   UNL     1     -35.167  20.875   1.351  0.00  0.00    +0.099 C 
ATOM      5  C   UNL     1     -38.094  21.912   1.402  0.00  0.00    +0.113 C 
ATOM      6  C   UNL     1     -36.895  22.574   2.209  0.00  0.00    +0.179 C 
ATOM      7  C   UNL     1     -35.587  21.740   2.527  0.00  0.00    +0.071 C 
ATOM      8  C   UNL     1     -38.044  21.805  -0.173  0.00  0.00    +0.198 C 
ATOM      9  C   UNL     1     -36.188  19.041   0.348  0.00  0.00    +0.200 C 
ATOM     10  C   UNL     1     -34.190  19.750   1.332  0.00  0.00    +0.033 C 
ATOM     11  C   UNL     1     -39.381  22.695   1.536  0.00  0.00    +0.060 C 
ATOM     12  C   UNL     1     -36.700  19.579  -0.964  0.00  0.00    +0.005 C 
ATOM     13  C   UNL     1     -37.449  20.709  -1.096  0.00  0.00    +0.013 C 
ATOM     14  C   UNL     1     -34.725  21.786   0.177  0.00  0.00    +0.030 C 
ATOM     15  C   UNL     1     -34.728  18.766   0.587  0.00  0.00    +0.063 C 
ATOM     16  C   UNL     1     -40.224  22.463   0.350  0.00  0.00    +0.338 C 
ATOM     17  C   UNL     1     -36.343  18.756  -2.177  0.00  0.00    +0.031 C 
ATOM     18  C   UNL     1     -39.823  23.512   2.499  0.00  0.00    +0.002 C 
ENDROOT
BRANCH   9  19
ATOM     19  O   UNL     1     -36.984  17.920   0.722  0.00  0.00    -0.361 OA
ATOM     20  H   UNL     1     -37.374  17.521  -0.072  0.00  0.00    +0.213 HD
ENDBRANCH   9  19
BRANCH   6  21
ATOM     21  O   UNL     1     -36.533  23.802   1.570  0.00  0.00    -0.449 OA
BRANCH  21  23
ATOM     22  O   UNL     1     -34.583  24.819   2.246  0.00  0.00    -0.245 OA
ATOM     23  C   UNL     1     -35.796  24.671   2.318  0.00  0.00    +0.340 C 
BRANCH  23  24
ATOM     24  C   UNL     1     -36.691  25.431   3.245  0.00  0.00    +0.093 C 
ATOM     25  C   UNL     1     -37.615  26.212   2.656  0.00  0.00    -0.020 C 
ATOM     26  C   UNL     1     -37.835  26.397   1.187  0.00  0.00    +0.031 C 
BRANCH  24  27
ATOM     27  C   UNL     1     -36.466  25.321   4.726  0.00  0.00    +0.241 C 
BRANCH  27  28
ATOM     28  O   UNL     1     -36.481  23.952   5.104  0.00  0.00    -0.443 OA
BRANCH  28  30
ATOM     29  O   UNL     1     -34.192  23.949   5.413  0.00  0.00    -0.250 OA
ATOM     30  C   UNL     1     -35.298  23.448   5.568  0.00  0.00    +0.318 C 
ATOM     31  C   UNL     1     -35.543  22.170   6.312  0.00  0.00    +0.121 C 
ENDBRANCH  28  30
ENDBRANCH  27  28
ENDBRANCH  24  27
ENDBRANCH  23  24
ENDBRANCH  21  23
ENDBRANCH   6  21
TORSDOF 7
ENDMDL
MODEL 5
REMARK VINA RESULT:      -6.3      2.948      7.052
REMARK  Name = 5382254
REMARK  7 active torsions:
REMARK  status: ('A' for Active; 'I' for Inactive)
REMARK    1  A    between atoms: C_6  and  O_21
REMARK    2  A    between atoms: C_9  and  O_19
REMARK    3  A    between atoms: O_21  and  C_23
REMARK    4  A    between atoms: C_23  and  C_24
REMARK    5  A    between atoms: C_24  and  C_27
REMARK    6  A    between atoms: C_27  and  O_28
REMARK    7  A    between atoms: O_28  and  C_30
REMARK                            x       y       z     vdW  Elec       q    Type
REMARK                         _______ _______ _______ _____ _____    ______ ____
ROOT
ATOM      1  O   UNL     1     -32.947  26.313   4.172  0.00  0.00    -0.336 OA
ATOM      2  O   UNL     1     -34.060  26.764   0.408  0.00  0.00    -0.444 OA
ATOM      3  O   UNL     1     -33.895  25.433  -1.449  0.00  0.00    -0.245 OA
ATOM      4  C   UNL     1     -33.964  26.002   5.133  0.00  0.00    +0.099 C 
ATOM      5  C   UNL     1     -33.831  25.146   2.151  0.00  0.00    +0.113 C 
ATOM      6  C   UNL     1     -34.492  24.274   3.305  0.00  0.00    +0.179 C 
ATOM      7  C   UNL     1     -34.101  24.523   4.820  0.00  0.00    +0.071 C 
ATOM      8  C   UNL     1     -34.371  26.593   1.825  0.00  0.00    +0.198 C 
ATOM      9  C   UNL     1     -32.438  27.598   4.396  0.00  0.00    +0.200 C 
ATOM     10  C   UNL     1     -33.342  26.641   6.328  0.00  0.00    +0.033 C 
ATOM     11  C   UNL     1     -34.009  24.523   0.784  0.00  0.00    +0.060 C 
ATOM     12  C   UNL     1     -33.236  28.455   3.447  0.00  0.00    +0.005 C 
ATOM     13  C   UNL     1     -33.999  27.974   2.425  0.00  0.00    +0.013 C 
ATOM     14  C   UNL     1     -35.352  26.682   5.013  0.00  0.00    +0.030 C 
ATOM     15  C   UNL     1     -32.608  27.681   5.888  0.00  0.00    +0.063 C 
ATOM     16  C   UNL     1     -33.986  25.577  -0.244  0.00  0.00    +0.338 C 
ATOM     17  C   UNL     1     -33.128  29.941   3.682  0.00  0.00    +0.031 C 
ATOM     18  C   UNL     1     -34.181  23.250   0.408  0.00  0.00    +0.002 C 
ENDROOT
BRANCH   9  19
ATOM     19  O   UNL     1     -31.062  27.678   4.035  0.00  0.00    -0.361 OA
ATOM     20  H   UNL     1     -30.520  27.290   4.740  0.00  0.00    +0.213 HD
ENDBRANCH   9  19
BRANCH   6  21
ATOM     21  O   UNL     1     -35.914  24.329   3.165  0.00  0.00    -0.449 OA
BRANCH  21  23
ATOM     22  O   UNL     1     -36.515  22.916   4.879  0.00  0.00    -0.245 OA
ATOM     23  C   UNL     1     -36.610  23.295   3.719  0.00  0.00    +0.340 C 
BRANCH  23  24
ATOM     24  C   UNL     1     -37.519  22.687   2.699  0.00  0.00    +0.093 C 
ATOM     25  C   UNL     1     -37.097  21.531   2.155  0.00  0.00    -0.020 C 
ATOM     26  C   UNL     1     -35.829  20.799   2.463  0.00  0.00    +0.031 C 
BRANCH  24  27
ATOM     27  C   UNL     1     -38.774  23.418   2.316  0.00  0.00    +0.241 C 
BRANCH  27  28
ATOM     28  O   UNL     1     -39.134  24.313   3.359  0.00  0.00    -0.443 OA
BRANCH  28  30
ATOM     29  O   UNL     1     -38.505  26.420   2.649  0.00  0.00    -0.250 OA
ATOM     30  C   UNL     1     -39.359  25.608   2.983  0.00  0.00    +0.318 C 
ATOM     31  C   UNL     1     -40.826  25.908   3.035  0.00  0.00    +0.121 C 
ENDBRANCH  28  30
ENDBRANCH  27  28
ENDBRANCH  24  27
ENDBRANCH  23  24
ENDBRANCH  21  23
ENDBRANCH   6  21
TORSDOF 7
ENDMDL
MODEL 6
REMARK VINA RESULT:      -6.3      2.316      7.001
REMARK  Name = 5382254
REMARK  7 active torsions:
REMARK  status: ('A' for Active; 'I' for Inactive)
REMARK    1  A    between atoms: C_6  and  O_21
REMARK    2  A    between atoms: C_9  and  O_19
REMARK    3  A    between atoms: O_21  and  C_23
REMARK    4  A    between atoms: C_23  and  C_24
REMARK    5  A    between atoms: C_24  and  C_27
REMARK    6  A    between atoms: C_27  and  O_28
REMARK    7  A    between atoms: O_28  and  C_30
REMARK                            x       y       z     vdW  Elec       q    Type
REMARK                         _______ _______ _______ _____ _____    ______ ____
ROOT
ATOM      1  O   UNL     1     -38.343  24.705   2.545  0.00  0.00    -0.336 OA
ATOM      2  O   UNL     1     -34.722  26.036   3.397  0.00  0.00    -0.444 OA
ATOM      3  O   UNL     1     -33.311  25.723   5.174  0.00  0.00    -0.245 OA
ATOM      4  C   UNL     1     -38.453  23.650   1.581  0.00  0.00    +0.099 C 
ATOM      5  C   UNL     1     -36.161  24.141   3.617  0.00  0.00    +0.113 C 
ATOM      6  C   UNL     1     -36.620  22.704   3.114  0.00  0.00    +0.179 C 
ATOM      7  C   UNL     1     -38.060  22.497   2.488  0.00  0.00    +0.071 C 
ATOM      8  C   UNL     1     -35.632  25.223   2.595  0.00  0.00    +0.198 C 
ATOM      9  C   UNL     1     -38.888  25.890   2.038  0.00  0.00    +0.200 C 
ATOM     10  C   UNL     1     -39.803  23.983   1.041  0.00  0.00    +0.033 C 
ATOM     11  C   UNL     1     -34.952  24.076   4.524  0.00  0.00    +0.060 C 
ATOM     12  C   UNL     1     -37.687  26.615   1.488  0.00  0.00    +0.005 C 
ATOM     13  C   UNL     1     -36.393  26.285   1.759  0.00  0.00    +0.013 C 
ATOM     14  C   UNL     1     -37.529  23.662   0.337  0.00  0.00    +0.030 C 
ATOM     15  C   UNL     1     -39.957  25.317   1.148  0.00  0.00    +0.063 C 
ATOM     16  C   UNL     1     -34.205  25.343   4.441  0.00  0.00    +0.338 C 
ATOM     17  C   UNL     1     -38.002  27.791   0.597  0.00  0.00    +0.031 C 
ATOM     18  C   UNL     1     -34.496  23.102   5.321  0.00  0.00    +0.002 C 
ENDROOT
BRANCH   9  19
ATOM     19  O   UNL     1     -39.461  26.680   3.076  0.00  0.00    -0.361 OA
ATOM     20  H   UNL     1     -38.810  26.801   3.786  0.00  0.00    +0.213 HD
ENDBRANCH   9  19
BRANCH   6  21
ATOM     21  O   UNL     1     -35.631  22.196   2.213  0.00  0.00    -0.449 OA
BRANCH  21  23
ATOM     22  O   UNL     1     -35.402  20.234   3.393  0.00  0.00    -0.245 OA
ATOM     23  C   UNL     1     -35.312  20.878   2.356  0.00  0.00    +0.340 C 
BRANCH  23  24
ATOM     24  C   UNL     1     -34.838  20.324   1.051  0.00  0.00    +0.093 C 
ATOM     25  C   UNL     1     -35.800  19.882   0.219  0.00  0.00    -0.020 C 
ATOM     26  C   UNL     1     -37.276  19.889   0.464  0.00  0.00    +0.031 C 
BRANCH  24  27
ATOM     27  C   UNL     1     -33.362  20.243   0.788  0.00  0.00    +0.241 C 
BRANCH  27  28
ATOM     28  O   UNL     1     -33.082  19.076   0.027  0.00  0.00    -0.443 OA
BRANCH  28  30
ATOM     29  O   UNL     1     -32.110  17.895   1.757  0.00  0.00    -0.250 OA
ATOM     30  C   UNL     1     -32.796  17.949   0.745  0.00  0.00    +0.318 C 
ATOM     31  C   UNL     1     -33.452  16.759   0.112  0.00  0.00    +0.121 C 
ENDBRANCH  28  30
ENDBRANCH  27  28
ENDBRANCH  24  27
ENDBRANCH  23  24
ENDBRANCH  21  23
ENDBRANCH   6  21
TORSDOF 7
ENDMDL
MODEL 7
REMARK VINA RESULT:      -6.3      2.245      7.043
REMARK  Name = 5382254
REMARK  7 active torsions:
REMARK  status: ('A' for Active; 'I' for Inactive)
REMARK    1  A    between atoms: C_6  and  O_21
REMARK    2  A    between atoms: C_9  and  O_19
REMARK    3  A    between atoms: O_21  and  C_23
REMARK    4  A    between atoms: C_23  and  C_24
REMARK    5  A    between atoms: C_24  and  C_27
REMARK    6  A    between atoms: C_27  and  O_28
REMARK    7  A    between atoms: O_28  and  C_30
REMARK                            x       y       z     vdW  Elec       q    Type
REMARK                         _______ _______ _______ _____ _____    ______ ____
ROOT
ATOM      1  O   UNL     1     -38.454  24.692   2.556  0.00  0.00    -0.336 OA
ATOM      2  O   UNL     1     -34.855  25.991   3.538  0.00  0.00    -0.444 OA
ATOM      3  O   UNL     1     -33.500  25.642   5.351  0.00  0.00    -0.245 OA
ATOM      4  C   UNL     1     -38.541  23.653   1.571  0.00  0.00    +0.099 C 
ATOM      5  C   UNL     1     -36.308  24.100   3.684  0.00  0.00    +0.113 C 
ATOM      6  C   UNL     1     -36.759  22.674   3.143  0.00  0.00    +0.179 C 
ATOM      7  C   UNL     1     -38.180  22.484   2.471  0.00  0.00    +0.071 C 
ATOM      8  C   UNL     1     -35.744  25.195   2.696  0.00  0.00    +0.198 C 
ATOM      9  C   UNL     1     -38.979  25.888   2.051  0.00  0.00    +0.200 C 
ATOM     10  C   UNL     1     -39.871  24.002   0.997  0.00  0.00    +0.033 C 
ATOM     11  C   UNL     1     -35.129  24.014   4.626  0.00  0.00    +0.060 C 
ATOM     12  C   UNL     1     -37.758  26.616   1.549  0.00  0.00    +0.005 C 
ATOM     13  C   UNL     1     -36.475  26.274   1.855  0.00  0.00    +0.013 C 
ATOM     14  C   UNL     1     -37.579  23.680   0.356  0.00  0.00    +0.030 C 
ATOM     15  C   UNL     1     -40.022  25.335   1.120  0.00  0.00    +0.063 C 
ATOM     16  C   UNL     1     -34.374  25.278   4.586  0.00  0.00    +0.338 C 
ATOM     17  C   UNL     1     -38.040  27.807   0.668  0.00  0.00    +0.031 C 
ATOM     18  C   UNL     1     -34.702  23.025   5.420  0.00  0.00    +0.002 C 
ENDROOT
BRANCH   9  19
ATOM     19  O   UNL     1     -39.579  26.664   3.084  0.00  0.00    -0.361 OA
ATOM     20  H   UNL     1     -40.174  26.103   3.606  0.00  0.00    +0.213 HD
ENDBRANCH   9  19
BRANCH   6  21
ATOM     21  O   UNL     1     -35.746  22.175   2.265  0.00  0.00    -0.449 OA
BRANCH  21  23
ATOM     22  O   UNL     1     -35.128  20.254   3.371  0.00  0.00    -0.245 OA
ATOM     23  C   UNL     1     -35.479  20.841   2.356  0.00  0.00    +0.340 C 
BRANCH  23  24
ATOM     24  C   UNL     1     -35.685  20.189   1.026  0.00  0.00    +0.093 C 
ATOM     25  C   UNL     1     -34.626  20.210   0.194  0.00  0.00    -0.020 C 
ATOM     26  C   UNL     1     -33.283  20.812   0.461  0.00  0.00    +0.031 C 
BRANCH  24  27
ATOM     27  C   UNL     1     -37.036  19.624   0.693  0.00  0.00    +0.241 C 
BRANCH  27  28
ATOM     28  O   UNL     1     -37.430  20.074  -0.596  0.00  0.00    -0.443 OA
BRANCH  28  30
ATOM     29  O   UNL     1     -39.629  20.236   0.093  0.00  0.00    -0.250 OA
ATOM     30  C   UNL     1     -38.742  20.435  -0.727  0.00  0.00    +0.318 C 
ATOM     31  C   UNL     1     -38.954  21.123  -2.041  0.00  0.00    +0.121 C 
ENDBRANCH  28  30
ENDBRANCH  27  28
ENDBRANCH  24  27
ENDBRANCH  23  24
ENDBRANCH  21  23
ENDBRANCH   6  21
TORSDOF 7
ENDMDL
MODEL 8
REMARK VINA RESULT:      -6.2      2.400      5.171
REMARK  Name = 5382254
REMARK  7 active torsions:
REMARK  status: ('A' for Active; 'I' for Inactive)
REMARK    1  A    between atoms: C_6  and  O_21
REMARK    2  A    between atoms: C_9  and  O_19
REMARK    3  A    between atoms: O_21  and  C_23
REMARK    4  A    between atoms: C_23  and  C_24
REMARK    5  A    between atoms: C_24  and  C_27
REMARK    6  A    between atoms: C_27  and  O_28
REMARK    7  A    between atoms: O_28  and  C_30
REMARK                            x       y       z     vdW  Elec       q    Type
REMARK                         _______ _______ _______ _____ _____    ______ ____
ROOT
ATOM      1  O   UNL     1     -34.067  22.173   0.843  0.00  0.00    -0.336 OA
ATOM      2  O   UNL     1     -35.529  21.012   4.325  0.00  0.00    -0.444 OA
ATOM      3  O   UNL     1     -35.234  21.746   6.475  0.00  0.00    -0.245 OA
ATOM      4  C   UNL     1     -34.924  22.937  -0.016  0.00  0.00    +0.099 C 
ATOM      5  C   UNL     1     -34.842  22.938   3.088  0.00  0.00    +0.113 C 
ATOM      6  C   UNL     1     -35.221  24.203   2.201  0.00  0.00    +0.179 C 
ATOM      7  C   UNL     1     -34.777  24.277   0.683  0.00  0.00    +0.071 C 
ATOM      8  C   UNL     1     -35.692  21.610   3.002  0.00  0.00    +0.198 C 
ATOM      9  C   UNL     1     -33.819  20.912   0.289  0.00  0.00    +0.200 C 
ATOM     10  C   UNL     1     -34.359  22.511  -1.328  0.00  0.00    +0.033 C 
ATOM     11  C   UNL     1     -34.990  23.208   4.569  0.00  0.00    +0.060 C 
ATOM     12  C   UNL     1     -34.844  20.032   0.957  0.00  0.00    +0.005 C 
ATOM     13  C   UNL     1     -35.567  20.386   2.057  0.00  0.00    +0.013 C 
ATOM     14  C   UNL     1     -36.427  22.569  -0.108  0.00  0.00    +0.030 C 
ATOM     15  C   UNL     1     -33.889  21.258  -1.173  0.00  0.00    +0.063 C 
ATOM     16  C   UNL     1     -35.262  21.943   5.274  0.00  0.00    +0.338 C 
ATOM     17  C   UNL     1     -35.027  18.672   0.332  0.00  0.00    +0.031 C 
ATOM     18  C   UNL     1     -34.925  24.344   5.272  0.00  0.00    +0.002 C 
ENDROOT
BRANCH   9  19
ATOM     19  O   UNL     1     -32.520  20.442   0.638  0.00  0.00    -0.361 OA
ATOM     20  H   UNL     1     -31.851  20.953   0.156  0.00  0.00    +0.213 HD
ENDBRANCH   9  19
BRANCH   6  21
ATOM     21  O   UNL     1     -36.630  24.425   2.297  0.00  0.00    -0.449 OA
BRANCH  21  23
ATOM     22  O   UNL     1     -36.331  26.607   2.964  0.00  0.00    -0.245 OA
ATOM     23  C   UNL     1     -37.020  25.719   2.481  0.00  0.00    +0.340 C 
BRANCH  23  24
ATOM     24  C   UNL     1     -38.424  25.902   1.997  0.00  0.00    +0.093 C 
ATOM     25  C   UNL     1     -38.553  26.335   0.730  0.00  0.00    -0.020 C 
ATOM     26  C   UNL     1     -37.452  26.649  -0.233  0.00  0.00    +0.031 C 
BRANCH  24  27
ATOM     27  C   UNL     1     -39.559  25.655   2.949  0.00  0.00    +0.241 C 
BRANCH  27  28
ATOM     28  O   UNL     1     -39.643  24.265   3.231  0.00  0.00    -0.443 OA
BRANCH  28  30
ATOM     29  O   UNL     1     -41.009  23.736   1.445  0.00  0.00    -0.250 OA
ATOM     30  C   UNL     1     -40.089  23.475   2.208  0.00  0.00    +0.318 C 
ATOM     31  C   UNL     1     -39.279  22.215   2.146  0.00  0.00    +0.121 C 
ENDBRANCH  28  30
ENDBRANCH  27  28
ENDBRANCH  24  27
ENDBRANCH  23  24
ENDBRANCH  21  23
ENDBRANCH   6  21
TORSDOF 7
ENDMDL
MODEL 9
REMARK VINA RESULT:      -6.1      2.070      3.294
REMARK  Name = 5382254
REMARK  7 active torsions:
REMARK  status: ('A' for Active; 'I' for Inactive)
REMARK    1  A    between atoms: C_6  and  O_21
REMARK    2  A    between atoms: C_9  and  O_19
REMARK    3  A    between atoms: O_21  and  C_23
REMARK    4  A    between atoms: C_23  and  C_24
REMARK    5  A    between atoms: C_24  and  C_27
REMARK    6  A    between atoms: C_27  and  O_28
REMARK    7  A    between atoms: O_28  and  C_30
REMARK                            x       y       z     vdW  Elec       q    Type
REMARK                         _______ _______ _______ _____ _____    ______ ____
ROOT
ATOM      1  O   UNL     1     -35.958  21.413   0.048  0.00  0.00    -0.336 OA
ATOM      2  O   UNL     1     -33.489  24.497   0.004  0.00  0.00    -0.444 OA
ATOM      3  O   UNL     1     -33.805  26.761  -0.141  0.00  0.00    -0.245 OA
ATOM      4  C   UNL     1     -36.208  20.779   1.309  0.00  0.00    +0.099 C 
ATOM      5  C   UNL     1     -35.639  23.783   0.762  0.00  0.00    +0.113 C 
ATOM      6  C   UNL     1     -36.569  23.246   1.935  0.00  0.00    +0.179 C 
ATOM      7  C   UNL     1     -37.196  21.793   1.859  0.00  0.00    +0.071 C 
ATOM      8  C   UNL     1     -34.118  23.368   0.685  0.00  0.00    +0.198 C 
ATOM      9  C   UNL     1     -35.241  20.557  -0.796  0.00  0.00    +0.200 C 
ATOM     10  C   UNL     1     -36.478  19.399   0.814  0.00  0.00    +0.033 C 
ATOM     11  C   UNL     1     -35.464  25.285   0.807  0.00  0.00    +0.060 C 
ATOM     12  C   UNL     1     -33.811  20.987  -0.589  0.00  0.00    +0.005 C 
ATOM     13  C   UNL     1     -33.433  22.144   0.023  0.00  0.00    +0.013 C 
ATOM     14  C   UNL     1     -35.040  20.605   2.313  0.00  0.00    +0.030 C 
ATOM     15  C   UNL     1     -35.758  19.231  -0.312  0.00  0.00    +0.063 C 
ATOM     16  C   UNL     1     -34.181  25.649   0.182  0.00  0.00    +0.338 C 
ATOM     17  C   UNL     1     -32.772  20.039  -1.134  0.00  0.00    +0.031 C 
ATOM     18  C   UNL     1     -36.244  26.251   1.304  0.00  0.00    +0.002 C 
ENDROOT
BRANCH   9  19
ATOM     19  O   UNL     1     -35.586  20.770  -2.162  0.00  0.00    -0.361 OA
ATOM     20  H   UNL     1     -35.302  21.658  -2.432  0.00  0.00    +0.213 HD
ENDBRANCH   9  19
BRANCH   6  21
ATOM     21  O   UNL     1     -35.877  23.401   3.177  0.00  0.00    -0.449 OA
BRANCH  21  23
ATOM     22  O   UNL     1     -37.766  24.264   4.167  0.00  0.00    -0.245 OA
ATOM     23  C   UNL     1     -36.564  24.038   4.169  0.00  0.00    +0.340 C 
BRANCH  23  24
ATOM     24  C   UNL     1     -35.629  24.418   5.273  0.00  0.00    +0.093 C 
ATOM     25  C   UNL     1     -35.155  23.400   6.015  0.00  0.00    -0.020 C 
ATOM     26  C   UNL     1     -35.464  21.946   5.851  0.00  0.00    +0.031 C 
BRANCH  24  27
ATOM     27  C   UNL     1     -35.338  25.873   5.511  0.00  0.00    +0.241 C 
BRANCH  27  28
ATOM     28  O   UNL     1     -33.945  26.105   5.356  0.00  0.00    -0.443 OA
BRANCH  28  30
ATOM     29  O   UNL     1     -32.900  25.517   3.382  0.00  0.00    -0.250 OA
ATOM     30  C   UNL     1     -33.513  26.317   4.077  0.00  0.00    +0.318 C 
ATOM     31  C   UNL     1     -33.902  27.693   3.627  0.00  0.00    +0.121 C 
ENDBRANCH  28  30
ENDBRANCH  27  28
ENDBRANCH  24  27
ENDBRANCH  23  24
ENDBRANCH  21  23
ENDBRANCH   6  21
TORSDOF 7
ENDMDL
