MODEL 1
REMARK VINA RESULT:      -6.6      0.000      0.000
REMARK  Name = 57370123
REMARK  6 active torsions:
REMARK  status: ('A' for Active; 'I' for Inactive)
REMARK    1  A    between atoms: C_1  and  C_7
REMARK    2  A    between atoms: C_2  and  C_15
REMARK    3  A    between atoms: C_2  and  C_27
REMARK    4  A    between atoms: C_15  and  C_16
REMARK    5  A    between atoms: C_19  and  O_22
REMARK    6  A    between atoms: C_21  and  O_24
REMARK                            x       y       z     vdW  Elec       q    Type
REMARK                         _______ _______ _______ _____ _____    ______ ____
ROOT
ATOM      1  C   UNL     1     -33.556  27.188   4.501  0.00  0.00    +0.014 C 
ATOM      2  C   UNL     1     -33.533  26.238   3.535  0.00  0.00    +0.107 C 
ENDROOT
BRANCH   1   7
ATOM      3  O   UNL     1     -29.327  30.535   5.951  0.00  0.00    -0.407 OA
ATOM      4  O   UNL     1     -27.906  30.071   7.717  0.00  0.00    -0.223 OA
ATOM      5  N   UNL     1     -29.649  28.620   7.179  0.00  0.00    -0.287 N 
ATOM      6  C   UNL     1     -30.615  28.648   6.209  0.00  0.00    +0.096 A 
ATOM      7  C   UNL     1     -32.463  28.081   4.854  0.00  0.00    +0.002 C 
ATOM      8  C   UNL     1     -30.406  29.803   5.484  0.00  0.00    +0.166 A 
ATOM      9  C   UNL     1     -31.629  27.761   5.928  0.00  0.00    +0.020 C 
ATOM     10  C   UNL     1     -32.257  29.258   4.105  0.00  0.00    +0.003 C 
ATOM     11  C   UNL     1     -31.215  30.138   4.420  0.00  0.00    +0.039 C 
ATOM     12  C   UNL     1     -28.869  29.755   7.028  0.00  0.00    +0.419 A 
ATOM     13  H   UNL     1     -29.530  27.919   7.860  0.00  0.00    +0.172 HD
ENDBRANCH   1   7
BRANCH   2  15
ATOM     14  O   UNL     1     -35.682  25.880   2.539  0.00  0.00    -0.286 OA
ATOM     15  C   UNL     1     -34.805  25.481   3.298  0.00  0.00    +0.205 C 
BRANCH  15  16
ATOM     16  C   UNL     1     -35.000  24.190   3.992  0.00  0.00    +0.043 C 
ATOM     17  C   UNL     1     -35.335  23.050   3.262  0.00  0.00    +0.043 C 
ATOM     18  C   UNL     1     -34.849  24.114   5.376  0.00  0.00    +0.007 C 
ATOM     19  C   UNL     1     -35.518  21.832   3.917  0.00  0.00    +0.168 C 
ATOM     20  C   UNL     1     -35.033  22.896   6.031  0.00  0.00    +0.040 C 
ATOM     21  C   UNL     1     -35.368  21.754   5.302  0.00  0.00    +0.167 C 
BRANCH  19  22
ATOM     22  O   UNL     1     -35.844  20.724   3.194  0.00  0.00    -0.503 OA
ATOM     23  H   UNL     1     -36.592  20.737   2.628  0.00  0.00    +0.292 HD
ENDBRANCH  19  22
BRANCH  21  24
ATOM     24  O   UNL     1     -35.544  20.572   5.953  0.00  0.00    -0.503 OA
ATOM     25  H   UNL     1     -35.184  20.452   6.811  0.00  0.00    +0.292 HD
ENDBRANCH  21  24
ENDBRANCH  15  16
ENDBRANCH   2  15
BRANCH   2  27
ATOM     26  N   UNL     1     -31.442  25.808   2.072  0.00  0.00    -0.191 NA
ATOM     27  C   UNL     1     -32.380  26.003   2.727  0.00  0.00    +0.104 C 
ENDBRANCH   2  27
TORSDOF 6
ENDMDL
MODEL 2
REMARK VINA RESULT:      -6.4      4.297      9.071
REMARK  Name = 57370123
REMARK  6 active torsions:
REMARK  status: ('A' for Active; 'I' for Inactive)
REMARK    1  A    between atoms: C_1  and  C_7
REMARK    2  A    between atoms: C_2  and  C_15
REMARK    3  A    between atoms: C_2  and  C_27
REMARK    4  A    between atoms: C_15  and  C_16
REMARK    5  A    between atoms: C_19  and  O_22
REMARK    6  A    between atoms: C_21  and  O_24
REMARK                            x       y       z     vdW  Elec       q    Type
REMARK                         _______ _______ _______ _____ _____    ______ ____
ROOT
ATOM      1  C   UNL     1     -35.725  20.672   2.015  0.00  0.00    +0.014 C 
ATOM      2  C   UNL     1     -35.590  22.013   1.875  0.00  0.00    +0.107 C 
ENDROOT
BRANCH   1   7
ATOM      3  O   UNL     1     -32.690  16.768  -0.580  0.00  0.00    -0.407 OA
ATOM      4  O   UNL     1     -30.643  16.036   0.212  0.00  0.00    -0.223 OA
ATOM      5  N   UNL     1     -31.847  17.671   1.357  0.00  0.00    -0.287 N 
ATOM      6  C   UNL     1     -33.053  18.274   1.119  0.00  0.00    +0.096 A 
ATOM      7  C   UNL     1     -34.958  19.654   1.315  0.00  0.00    +0.002 C 
ATOM      8  C   UNL     1     -33.543  17.721  -0.045  0.00  0.00    +0.166 A 
ATOM      9  C   UNL     1     -33.726  19.241   1.830  0.00  0.00    +0.020 C 
ATOM     10  C   UNL     1     -35.468  19.093   0.126  0.00  0.00    +0.003 C 
ATOM     11  C   UNL     1     -34.755  18.112  -0.570  0.00  0.00    +0.039 C 
ATOM     12  C   UNL     1     -31.622  16.763   0.336  0.00  0.00    +0.419 A 
ATOM     13  H   UNL     1     -31.246  17.851   2.117  0.00  0.00    +0.172 HD
ENDBRANCH   1   7
BRANCH   2  15
ATOM     14  O   UNL     1     -37.664  22.777   2.799  0.00  0.00    -0.286 OA
ATOM     15  C   UNL     1     -36.443  22.877   2.756  0.00  0.00    +0.205 C 
BRANCH  15  16
ATOM     16  C   UNL     1     -35.781  23.874   3.624  0.00  0.00    +0.043 C 
ATOM     17  C   UNL     1     -35.939  25.236   3.366  0.00  0.00    +0.043 C 
ATOM     18  C   UNL     1     -35.000  23.453   4.699  0.00  0.00    +0.007 C 
ATOM     19  C   UNL     1     -35.315  26.177   4.185  0.00  0.00    +0.168 C 
ATOM     20  C   UNL     1     -34.375  24.394   5.518  0.00  0.00    +0.040 C 
ATOM     21  C   UNL     1     -34.533  25.756   5.261  0.00  0.00    +0.167 C 
BRANCH  19  22
ATOM     22  O   UNL     1     -35.476  27.505   3.925  0.00  0.00    -0.503 OA
ATOM     23  H   UNL     1     -36.094  27.783   3.278  0.00  0.00    +0.292 HD
ENDBRANCH  19  22
BRANCH  21  24
ATOM     24  O   UNL     1     -33.918  26.664   6.069  0.00  0.00    -0.503 OA
ATOM     25  H   UNL     1     -34.130  27.575   5.996  0.00  0.00    +0.292 HD
ENDBRANCH  21  24
ENDBRANCH  15  16
ENDBRANCH   2  15
BRANCH   2  27
ATOM     26  N   UNL     1     -33.859  23.061   0.262  0.00  0.00    -0.191 NA
ATOM     27  C   UNL     1     -34.637  22.592   0.984  0.00  0.00    +0.104 C 
ENDBRANCH   2  27
TORSDOF 6
ENDMDL
MODEL 3
REMARK VINA RESULT:      -6.3      5.256      8.725
REMARK  Name = 57370123
REMARK  6 active torsions:
REMARK  status: ('A' for Active; 'I' for Inactive)
REMARK    1  A    between atoms: C_1  and  C_7
REMARK    2  A    between atoms: C_2  and  C_15
REMARK    3  A    between atoms: C_2  and  C_27
REMARK    4  A    between atoms: C_15  and  C_16
REMARK    5  A    between atoms: C_19  and  O_22
REMARK    6  A    between atoms: C_21  and  O_24
REMARK                            x       y       z     vdW  Elec       q    Type
REMARK                         _______ _______ _______ _____ _____    ______ ____
ROOT
ATOM      1  C   UNL     1     -38.181  25.045   3.067  0.00  0.00    +0.014 C 
ATOM      2  C   UNL     1     -37.132  25.824   2.709  0.00  0.00    +0.107 C 
ENDROOT
BRANCH   1   7
ATOM      3  O   UNL     1     -43.472  25.680   1.395  0.00  0.00    -0.407 OA
ATOM      4  O   UNL     1     -44.964  27.092   2.460  0.00  0.00    -0.223 OA
ATOM      5  N   UNL     1     -42.772  26.884   3.223  0.00  0.00    -0.287 N 
ATOM      6  C   UNL     1     -41.705  26.141   2.793  0.00  0.00    +0.096 A 
ATOM      7  C   UNL     1     -39.554  25.188   2.607  0.00  0.00    +0.002 C 
ATOM      8  C   UNL     1     -42.143  25.426   1.698  0.00  0.00    +0.166 A 
ATOM      9  C   UNL     1     -40.421  26.052   3.280  0.00  0.00    +0.020 C 
ATOM     10  C   UNL     1     -39.992  24.454   1.486  0.00  0.00    +0.003 C 
ATOM     11  C   UNL     1     -41.306  24.569   1.019  0.00  0.00    +0.039 C 
ATOM     12  C   UNL     1     -43.840  26.610   2.384  0.00  0.00    +0.419 A 
ATOM     13  H   UNL     1     -42.778  27.502   3.990  0.00  0.00    +0.172 HD
ENDBRANCH   1   7
BRANCH   2  15
ATOM     14  O   UNL     1     -34.803  26.167   3.152  0.00  0.00    -0.286 OA
ATOM     15  C   UNL     1     -35.788  25.444   3.256  0.00  0.00    +0.205 C 
BRANCH  15  16
ATOM     16  C   UNL     1     -35.651  24.155   3.968  0.00  0.00    +0.043 C 
ATOM     17  C   UNL     1     -35.712  22.957   3.258  0.00  0.00    +0.043 C 
ATOM     18  C   UNL     1     -35.462  24.140   5.349  0.00  0.00    +0.007 C 
ATOM     19  C   UNL     1     -35.583  21.741   3.930  0.00  0.00    +0.168 C 
ATOM     20  C   UNL     1     -35.333  22.925   6.022  0.00  0.00    +0.040 C 
ATOM     21  C   UNL     1     -35.394  21.725   5.312  0.00  0.00    +0.167 C 
BRANCH  19  22
ATOM     22  O   UNL     1     -35.644  20.576   3.226  0.00  0.00    -0.503 OA
ATOM     23  H   UNL     1     -36.129  20.538   2.425  0.00  0.00    +0.292 HD
ENDBRANCH  19  22
BRANCH  21  24
ATOM     24  O   UNL     1     -35.266  20.545   5.980  0.00  0.00    -0.503 OA
ATOM     25  H   UNL     1     -34.522  20.399   6.533  0.00  0.00    +0.292 HD
ENDBRANCH  21  24
ENDBRANCH  15  16
ENDBRANCH   2  15
BRANCH   2  27
ATOM     26  N   UNL     1     -37.389  27.804   1.064  0.00  0.00    -0.191 NA
ATOM     27  C   UNL     1     -37.271  26.917   1.803  0.00  0.00    +0.104 C 
ENDBRANCH   2  27
TORSDOF 6
ENDMDL
MODEL 4
REMARK VINA RESULT:      -6.3      3.890      9.332
REMARK  Name = 57370123
REMARK  6 active torsions:
REMARK  status: ('A' for Active; 'I' for Inactive)
REMARK    1  A    between atoms: C_1  and  C_7
REMARK    2  A    between atoms: C_2  and  C_15
REMARK    3  A    between atoms: C_2  and  C_27
REMARK    4  A    between atoms: C_15  and  C_16
REMARK    5  A    between atoms: C_19  and  O_22
REMARK    6  A    between atoms: C_21  and  O_24
REMARK                            x       y       z     vdW  Elec       q    Type
REMARK                         _______ _______ _______ _____ _____    ______ ____
ROOT
ATOM      1  C   UNL     1     -36.074  22.616   2.281  0.00  0.00    +0.014 C 
ATOM      2  C   UNL     1     -35.949  22.855   3.609  0.00  0.00    +0.107 C 
ENDROOT
BRANCH   1   7
ATOM      3  O   UNL     1     -35.004  17.795  -0.327  0.00  0.00    -0.407 OA
ATOM      4  O   UNL     1     -36.628  16.199  -0.733  0.00  0.00    -0.223 OA
ATOM      5  N   UNL     1     -37.160  18.186   0.363  0.00  0.00    -0.287 N 
ATOM      6  C   UNL     1     -36.414  19.276   0.725  0.00  0.00    +0.096 A 
ATOM      7  C   UNL     1     -35.763  21.369   1.599  0.00  0.00    +0.002 C 
ATOM      8  C   UNL     1     -35.125  19.024   0.303  0.00  0.00    +0.166 A 
ATOM      9  C   UNL     1     -36.775  20.433   1.374  0.00  0.00    +0.020 C 
ATOM     10  C   UNL     1     -34.443  21.122   1.171  0.00  0.00    +0.003 C 
ATOM     11  C   UNL     1     -34.111  19.932   0.513  0.00  0.00    +0.039 C 
ATOM     12  C   UNL     1     -36.315  17.290  -0.271  0.00  0.00    +0.419 A 
ATOM     13  H   UNL     1     -38.124  18.062   0.525  0.00  0.00    +0.172 HD
ENDBRANCH   1   7
BRANCH   2  15
ATOM     14  O   UNL     1     -37.581  24.482   4.262  0.00  0.00    -0.286 OA
ATOM     15  C   UNL     1     -36.399  24.197   4.102  0.00  0.00    +0.205 C 
BRANCH  15  16
ATOM     16  C   UNL     1     -35.374  25.211   4.430  0.00  0.00    +0.043 C 
ATOM     17  C   UNL     1     -34.918  26.085   3.444  0.00  0.00    +0.043 C 
ATOM     18  C   UNL     1     -34.864  25.292   5.725  0.00  0.00    +0.007 C 
ATOM     19  C   UNL     1     -33.951  27.042   3.753  0.00  0.00    +0.168 C 
ATOM     20  C   UNL     1     -33.896  26.248   6.035  0.00  0.00    +0.040 C 
ATOM     21  C   UNL     1     -33.439  27.123   5.048  0.00  0.00    +0.167 C 
BRANCH  19  22
ATOM     22  O   UNL     1     -33.513  27.892   2.782  0.00  0.00    -0.503 OA
ATOM     23  H   UNL     1     -33.571  28.819   2.910  0.00  0.00    +0.292 HD
ENDBRANCH  19  22
BRANCH  21  24
ATOM     24  O   UNL     1     -32.495  28.052   5.364  0.00  0.00    -0.503 OA
ATOM     25  H   UNL     1     -31.839  28.286   4.736  0.00  0.00    +0.292 HD
ENDBRANCH  21  24
ENDBRANCH  15  16
ENDBRANCH   2  15
BRANCH   2  27
ATOM     26  N   UNL     1     -35.089  21.055   5.257  0.00  0.00    -0.191 NA
ATOM     27  C   UNL     1     -35.477  21.861   4.519  0.00  0.00    +0.104 C 
ENDBRANCH   2  27
TORSDOF 6
ENDMDL
MODEL 5
REMARK VINA RESULT:      -6.2      2.582      8.435
REMARK  Name = 57370123
REMARK  6 active torsions:
REMARK  status: ('A' for Active; 'I' for Inactive)
REMARK    1  A    between atoms: C_1  and  C_7
REMARK    2  A    between atoms: C_2  and  C_15
REMARK    3  A    between atoms: C_2  and  C_27
REMARK    4  A    between atoms: C_15  and  C_16
REMARK    5  A    between atoms: C_19  and  O_22
REMARK    6  A    between atoms: C_21  and  O_24
REMARK                            x       y       z     vdW  Elec       q    Type
REMARK                         _______ _______ _______ _____ _____    ______ ____
ROOT
ATOM      1  C   UNL     1     -34.179  26.073   5.973  0.00  0.00    +0.014 C 
ATOM      2  C   UNL     1     -33.310  27.007   5.518  0.00  0.00    +0.107 C 
ENDROOT
BRANCH   1   7
ATOM      3  O   UNL     1     -37.602  22.947   2.857  0.00  0.00    -0.407 OA
ATOM      4  O   UNL     1     -39.794  23.541   2.419  0.00  0.00    -0.223 OA
ATOM      5  N   UNL     1     -38.432  24.904   3.731  0.00  0.00    -0.287 N 
ATOM      6  C   UNL     1     -37.129  24.797   4.139  0.00  0.00    +0.096 A 
ATOM      7  C   UNL     1     -35.046  25.237   5.157  0.00  0.00    +0.002 C 
ATOM      8  C   UNL     1     -36.649  23.620   3.606  0.00  0.00    +0.166 A 
ATOM      9  C   UNL     1     -36.364  25.634   4.918  0.00  0.00    +0.020 C 
ATOM     10  C   UNL     1     -34.544  24.035   4.617  0.00  0.00    +0.003 C 
ATOM     11  C   UNL     1     -35.352  23.209   3.829  0.00  0.00    +0.039 C 
ATOM     12  C   UNL     1     -38.722  23.791   2.958  0.00  0.00    +0.419 A 
ATOM     13  H   UNL     1     -39.051  25.638   3.947  0.00  0.00    +0.172 HD
ENDBRANCH   1   7
BRANCH   2  15
ATOM     14  O   UNL     1     -32.499  27.417   7.735  0.00  0.00    -0.286 OA
ATOM     15  C   UNL     1     -32.463  27.703   6.543  0.00  0.00    +0.205 C 
BRANCH  15  16
ATOM     16  C   UNL     1     -31.533  28.760   6.093  0.00  0.00    +0.043 C 
ATOM     17  C   UNL     1     -30.178  28.473   5.930  0.00  0.00    +0.043 C 
ATOM     18  C   UNL     1     -32.012  30.043   5.831  0.00  0.00    +0.007 C 
ATOM     19  C   UNL     1     -29.300  29.471   5.505  0.00  0.00    +0.168 C 
ATOM     20  C   UNL     1     -31.134  31.041   5.407  0.00  0.00    +0.040 C 
ATOM     21  C   UNL     1     -29.778  30.755   5.244  0.00  0.00    +0.167 C 
BRANCH  19  22
ATOM     22  O   UNL     1     -27.979  29.180   5.349  0.00  0.00    -0.503 OA
ATOM     23  H   UNL     1     -27.342  29.576   5.912  0.00  0.00    +0.292 HD
ENDBRANCH  19  22
BRANCH  21  24
ATOM     24  O   UNL     1     -28.933  31.738   4.828  0.00  0.00    -0.503 OA
ATOM     25  H   UNL     1     -28.819  32.509   5.349  0.00  0.00    +0.292 HD
ENDBRANCH  21  24
ENDBRANCH  15  16
ENDBRANCH   2  15
BRANCH   2  27
ATOM     26  N   UNL     1     -33.019  27.505   2.995  0.00  0.00    -0.191 NA
ATOM     27  C   UNL     1     -33.147  27.281   4.127  0.00  0.00    +0.104 C 
ENDBRANCH   2  27
TORSDOF 6
ENDMDL
MODEL 6
REMARK VINA RESULT:      -6.2      1.377      1.946
REMARK  Name = 57370123
REMARK  6 active torsions:
REMARK  status: ('A' for Active; 'I' for Inactive)
REMARK    1  A    between atoms: C_1  and  C_7
REMARK    2  A    between atoms: C_2  and  C_15
REMARK    3  A    between atoms: C_2  and  C_27
REMARK    4  A    between atoms: C_15  and  C_16
REMARK    5  A    between atoms: C_19  and  O_22
REMARK    6  A    between atoms: C_21  and  O_24
REMARK                            x       y       z     vdW  Elec       q    Type
REMARK                         _______ _______ _______ _____ _____    ______ ____
ROOT
ATOM      1  C   UNL     1     -33.816  27.288   4.152  0.00  0.00    +0.014 C 
ATOM      2  C   UNL     1     -33.673  26.232   3.316  0.00  0.00    +0.107 C 
ENDROOT
BRANCH   1   7
ATOM      3  O   UNL     1     -29.921  31.122   5.301  0.00  0.00    -0.407 OA
ATOM      4  O   UNL     1     -29.480  32.919   3.914  0.00  0.00    -0.223 OA
ATOM      5  N   UNL     1     -31.124  31.363   3.359  0.00  0.00    -0.287 N 
ATOM      6  C   UNL     1     -31.581  30.232   3.982  0.00  0.00    +0.096 A 
ATOM      7  C   UNL     1     -32.794  28.270   4.480  0.00  0.00    +0.002 C 
ATOM      8  C   UNL     1     -30.849  30.104   5.143  0.00  0.00    +0.166 A 
ATOM      9  C   UNL     1     -32.561  29.341   3.613  0.00  0.00    +0.020 C 
ATOM     10  C   UNL     1     -32.052  28.130   5.670  0.00  0.00    +0.003 C 
ATOM     11  C   UNL     1     -31.062  29.057   6.013  0.00  0.00    +0.039 C 
ATOM     12  C   UNL     1     -30.123  31.903   4.150  0.00  0.00    +0.419 A 
ATOM     13  H   UNL     1     -31.448  31.727   2.503  0.00  0.00    +0.172 HD
ENDBRANCH   1   7
BRANCH   2  15
ATOM     14  O   UNL     1     -35.757  25.698   2.263  0.00  0.00    -0.286 OA
ATOM     15  C   UNL     1     -34.889  25.389   3.072  0.00  0.00    +0.205 C 
BRANCH  15  16
ATOM     16  C   UNL     1     -35.036  24.124   3.823  0.00  0.00    +0.043 C 
ATOM     17  C   UNL     1     -35.367  22.948   3.149  0.00  0.00    +0.043 C 
ATOM     18  C   UNL     1     -34.843  24.107   5.203  0.00  0.00    +0.007 C 
ATOM     19  C   UNL     1     -35.505  21.754   3.858  0.00  0.00    +0.168 C 
ATOM     20  C   UNL     1     -34.981  22.913   5.912  0.00  0.00    +0.040 C 
ATOM     21  C   UNL     1     -35.313  21.737   5.239  0.00  0.00    +0.167 C 
BRANCH  19  22
ATOM     22  O   UNL     1     -35.830  20.612   3.190  0.00  0.00    -0.503 OA
ATOM     23  H   UNL     1     -36.724  20.433   2.975  0.00  0.00    +0.292 HD
ENDBRANCH  19  22
BRANCH  21  24
ATOM     24  O   UNL     1     -35.444  20.578   5.943  0.00  0.00    -0.503 OA
ATOM     25  H   UNL     1     -36.281  20.331   6.285  0.00  0.00    +0.292 HD
ENDBRANCH  21  24
ENDBRANCH  15  16
ENDBRANCH   2  15
BRANCH   2  27
ATOM     26  N   UNL     1     -31.447  25.742   2.091  0.00  0.00    -0.191 NA
ATOM     27  C   UNL     1     -32.446  25.959   2.640  0.00  0.00    +0.104 C 
ENDBRANCH   2  27
TORSDOF 6
ENDMDL
MODEL 7
REMARK VINA RESULT:      -6.2      4.996      8.700
REMARK  Name = 57370123
REMARK  6 active torsions:
REMARK  status: ('A' for Active; 'I' for Inactive)
REMARK    1  A    between atoms: C_1  and  C_7
REMARK    2  A    between atoms: C_2  and  C_15
REMARK    3  A    between atoms: C_2  and  C_27
REMARK    4  A    between atoms: C_15  and  C_16
REMARK    5  A    between atoms: C_19  and  O_22
REMARK    6  A    between atoms: C_21  and  O_24
REMARK                            x       y       z     vdW  Elec       q    Type
REMARK                         _______ _______ _______ _____ _____    ______ ____
ROOT
ATOM      1  C   UNL     1     -35.382  22.151   2.224  0.00  0.00    +0.014 C 
ATOM      2  C   UNL     1     -36.733  22.255   2.205  0.00  0.00    +0.107 C 
ENDROOT
BRANCH   1   7
ATOM      3  O   UNL     1     -32.340  18.533  -0.751  0.00  0.00    -0.407 OA
ATOM      4  O   UNL     1     -32.216  16.280  -0.242  0.00  0.00    -0.223 OA
ATOM      5  N   UNL     1     -33.510  17.723   1.053  0.00  0.00    -0.287 N 
ATOM      6  C   UNL     1     -33.757  19.068   0.979  0.00  0.00    +0.096 A 
ATOM      7  C   UNL     1     -34.580  21.234   1.429  0.00  0.00    +0.002 C 
ATOM      8  C   UNL     1     -33.048  19.536  -0.107  0.00  0.00    +0.166 A 
ATOM      9  C   UNL     1     -34.534  19.880   1.772  0.00  0.00    +0.020 C 
ATOM     10  C   UNL     1     -33.860  21.722   0.320  0.00  0.00    +0.003 C 
ATOM     11  C   UNL     1     -33.079  20.866  -0.464  0.00  0.00    +0.039 C 
ATOM     12  C   UNL     1     -32.656  17.395   0.012  0.00  0.00    +0.419 A 
ATOM     13  H   UNL     1     -33.874  17.101   1.724  0.00  0.00    +0.172 HD
ENDBRANCH   1   7
BRANCH   2  15
ATOM     14  O   UNL     1     -38.555  23.499   3.140  0.00  0.00    -0.286 OA
ATOM     15  C   UNL     1     -37.343  23.325   3.060  0.00  0.00    +0.205 C 
BRANCH  15  16
ATOM     16  C   UNL     1     -36.448  24.190   3.857  0.00  0.00    +0.043 C 
ATOM     17  C   UNL     1     -36.281  25.530   3.508  0.00  0.00    +0.043 C 
ATOM     18  C   UNL     1     -35.770  23.666   4.957  0.00  0.00    +0.007 C 
ATOM     19  C   UNL     1     -35.437  26.347   4.260  0.00  0.00    +0.168 C 
ATOM     20  C   UNL     1     -34.925  24.482   5.709  0.00  0.00    +0.040 C 
ATOM     21  C   UNL     1     -34.758  25.823   5.360  0.00  0.00    +0.167 C 
BRANCH  19  22
ATOM     22  O   UNL     1     -35.282  27.655   3.910  0.00  0.00    -0.503 OA
ATOM     23  H   UNL     1     -34.552  27.915   3.382  0.00  0.00    +0.292 HD
ENDBRANCH  19  22
BRANCH  21  24
ATOM     24  O   UNL     1     -33.931  26.609   6.103  0.00  0.00    -0.503 OA
ATOM     25  H   UNL     1     -33.374  27.235   5.680  0.00  0.00    +0.292 HD
ENDBRANCH  21  24
ENDBRANCH  15  16
ENDBRANCH   2  15
BRANCH   2  27
ATOM     26  N   UNL     1     -38.208  20.769   0.684  0.00  0.00    -0.191 NA
ATOM     27  C   UNL     1     -37.547  21.437   1.364  0.00  0.00    +0.104 C 
ENDBRANCH   2  27
TORSDOF 6
ENDMDL
MODEL 8
REMARK VINA RESULT:      -6.1      5.097      9.935
REMARK  Name = 57370123
REMARK  6 active torsions:
REMARK  status: ('A' for Active; 'I' for Inactive)
REMARK    1  A    between atoms: C_1  and  C_7
REMARK    2  A    between atoms: C_2  and  C_15
REMARK    3  A    between atoms: C_2  and  C_27
REMARK    4  A    between atoms: C_15  and  C_16
REMARK    5  A    between atoms: C_19  and  O_22
REMARK    6  A    between atoms: C_21  and  O_24
REMARK                            x       y       z     vdW  Elec       q    Type
REMARK                         _______ _______ _______ _____ _____    ______ ____
ROOT
ATOM      1  C   UNL     1     -34.280  21.204   0.413  0.00  0.00    +0.014 C 
ATOM      2  C   UNL     1     -34.759  21.905   1.469  0.00  0.00    +0.107 C 
ENDROOT
BRANCH   1   7
ATOM      3  O   UNL     1     -33.784  15.652   0.079  0.00  0.00    -0.407 OA
ATOM      4  O   UNL     1     -35.439  14.294  -0.798  0.00  0.00    -0.223 OA
ATOM      5  N   UNL     1     -35.726  16.605  -0.696  0.00  0.00    -0.287 N 
ATOM      6  C   UNL     1     -34.930  17.620  -0.237  0.00  0.00    +0.096 A 
ATOM      7  C   UNL     1     -34.120  19.760   0.341  0.00  0.00    +0.002 C 
ATOM      8  C   UNL     1     -33.772  17.030   0.223  0.00  0.00    +0.166 A 
ATOM      9  C   UNL     1     -35.145  18.978  -0.198  0.00  0.00    +0.020 C 
ATOM     10  C   UNL     1     -32.931  19.167   0.813  0.00  0.00    +0.003 C 
ATOM     11  C   UNL     1     -32.748  17.781   0.757  0.00  0.00    +0.039 C 
ATOM     12  C   UNL     1     -35.041  15.416  -0.507  0.00  0.00    +0.419 A 
ATOM     13  H   UNL     1     -36.624  16.702  -1.088  0.00  0.00    +0.172 HD
ENDBRANCH   1   7
BRANCH   2  15
ATOM     14  O   UNL     1     -34.695  23.949   0.222  0.00  0.00    -0.286 OA
ATOM     15  C   UNL     1     -34.902  23.387   1.292  0.00  0.00    +0.205 C 
BRANCH  15  16
ATOM     16  C   UNL     1     -35.333  24.200   2.450  0.00  0.00    +0.043 C 
ATOM     17  C   UNL     1     -36.686  24.291   2.773  0.00  0.00    +0.043 C 
ATOM     18  C   UNL     1     -34.384  24.875   3.217  0.00  0.00    +0.007 C 
ATOM     19  C   UNL     1     -37.092  25.058   3.866  0.00  0.00    +0.168 C 
ATOM     20  C   UNL     1     -34.790  25.642   4.310  0.00  0.00    +0.040 C 
ATOM     21  C   UNL     1     -36.144  25.734   4.634  0.00  0.00    +0.167 C 
BRANCH  19  22
ATOM     22  O   UNL     1     -38.417  25.140   4.173  0.00  0.00    -0.503 OA
ATOM     23  H   UNL     1     -39.058  24.823   3.567  0.00  0.00    +0.292 HD
ENDBRANCH  19  22
BRANCH  21  24
ATOM     24  O   UNL     1     -36.526  26.485   5.703  0.00  0.00    -0.503 OA
ATOM     25  H   UNL     1     -35.877  26.875   6.257  0.00  0.00    +0.292 HD
ENDBRANCH  21  24
ENDBRANCH  15  16
ENDBRANCH   2  15
BRANCH   2  27
ATOM     26  N   UNL     1     -35.511  20.752   3.660  0.00  0.00    -0.191 NA
ATOM     27  C   UNL     1     -35.176  21.268   2.677  0.00  0.00    +0.104 C 
ENDBRANCH   2  27
TORSDOF 6
ENDMDL
MODEL 9
REMARK VINA RESULT:      -6.1      4.298      9.549
REMARK  Name = 57370123
REMARK  6 active torsions:
REMARK  status: ('A' for Active; 'I' for Inactive)
REMARK    1  A    between atoms: C_1  and  C_7
REMARK    2  A    between atoms: C_2  and  C_15
REMARK    3  A    between atoms: C_2  and  C_27
REMARK    4  A    between atoms: C_15  and  C_16
REMARK    5  A    between atoms: C_19  and  O_22
REMARK    6  A    between atoms: C_21  and  O_24
REMARK                            x       y       z     vdW  Elec       q    Type
REMARK                         _______ _______ _______ _____ _____    ______ ____
ROOT
ATOM      1  C   UNL     1     -35.912  20.885   2.324  0.00  0.00    +0.014 C 
ATOM      2  C   UNL     1     -35.833  22.226   2.150  0.00  0.00    +0.107 C 
ENDROOT
BRANCH   1   7
ATOM      3  O   UNL     1     -33.403  16.994  -0.799  0.00  0.00    -0.407 OA
ATOM      4  O   UNL     1     -34.428  15.984  -2.611  0.00  0.00    -0.223 OA
ATOM      5  N   UNL     1     -35.548  17.601  -1.359  0.00  0.00    -0.287 N 
ATOM      6  C   UNL     1     -35.188  18.341  -0.264  0.00  0.00    +0.096 A 
ATOM      7  C   UNL     1     -35.231  19.874   1.530  0.00  0.00    +0.002 C 
ATOM      8  C   UNL     1     -33.901  17.964   0.056  0.00  0.00    +0.166 A 
ATOM      9  C   UNL     1     -35.888  19.290   0.444  0.00  0.00    +0.020 C 
ATOM     10  C   UNL     1     -33.915  19.496   1.866  0.00  0.00    +0.003 C 
ATOM     11  C   UNL     1     -33.234  18.526   1.122  0.00  0.00    +0.039 C 
ATOM     12  C   UNL     1     -34.475  16.787  -1.685  0.00  0.00    +0.419 A 
ATOM     13  H   UNL     1     -36.412  17.640  -1.829  0.00  0.00    +0.172 HD
ENDBRANCH   1   7
BRANCH   2  15
ATOM     14  O   UNL     1     -37.765  22.951   3.366  0.00  0.00    -0.286 OA
ATOM     15  C   UNL     1     -36.568  23.083   3.137  0.00  0.00    +0.205 C 
BRANCH  15  16
ATOM     16  C   UNL     1     -35.812  24.115   3.880  0.00  0.00    +0.043 C 
ATOM     17  C   UNL     1     -35.925  25.457   3.518  0.00  0.00    +0.043 C 
ATOM     18  C   UNL     1     -34.988  23.744   4.941  0.00  0.00    +0.007 C 
ATOM     19  C   UNL     1     -35.213  26.430   4.220  0.00  0.00    +0.168 C 
ATOM     20  C   UNL     1     -34.275  24.717   5.643  0.00  0.00    +0.040 C 
ATOM     21  C   UNL     1     -34.387  26.060   5.282  0.00  0.00    +0.167 C 
BRANCH  19  22
ATOM     22  O   UNL     1     -35.330  27.738   3.858  0.00  0.00    -0.503 OA
ATOM     23  H   UNL     1     -36.167  28.082   3.610  0.00  0.00    +0.292 HD
ENDBRANCH  19  22
BRANCH  21  24
ATOM     24  O   UNL     1     -33.686  27.000   5.975  0.00  0.00    -0.503 OA
ATOM     25  H   UNL     1     -33.748  27.903   5.731  0.00  0.00    +0.292 HD
ENDBRANCH  21  24
ENDBRANCH  15  16
ENDBRANCH   2  15
BRANCH   2  27
ATOM     26  N   UNL     1     -34.389  23.287   0.283  0.00  0.00    -0.191 NA
ATOM     27  C   UNL     1     -35.037  22.813   1.122  0.00  0.00    +0.104 C 
ENDBRANCH   2  27
TORSDOF 6
ENDMDL
