MODEL 1
REMARK VINA RESULT:      -6.3      0.000      0.000
REMARK  Name = 5281608
REMARK  7 active torsions:
REMARK  status: ('A' for Active; 'I' for Inactive)
REMARK    1  A    between atoms: C_5  and  C_12
REMARK    2  A    between atoms: C_6  and  O_22
REMARK    3  A    between atoms: C_8  and  O_28
REMARK    4  A    between atoms: C_10  and  O_24
REMARK    5  A    between atoms: C_11  and  O_26
REMARK    6  A    between atoms: C_15  and  O_18
REMARK    7  A    between atoms: C_17  and  O_20
REMARK                            x       y       z     vdW  Elec       q    Type
REMARK                         _______ _______ _______ _____ _____    ______ ____
ROOT
ATOM      1  O   UNL     1     -32.948  26.635   5.383  0.00  0.00    -0.450 OA
ATOM      2  O   UNL     1     -35.147  28.265   2.364  0.00  0.00    -0.283 OA
ATOM      3  C   UNL     1     -34.903  26.535   3.948  0.00  0.00    +0.113 A 
ATOM      4  C   UNL     1     -34.106  26.027   4.972  0.00  0.00    +0.155 A 
ATOM      5  C   UNL     1     -32.562  27.812   4.761  0.00  0.00    +0.182 A 
ATOM      6  C   UNL     1     -33.236  28.401   3.756  0.00  0.00    +0.212 A 
ATOM      7  C   UNL     1     -34.491  27.775   3.274  0.00  0.00    +0.238 A 
ATOM      8  C   UNL     1     -36.072  25.870   3.569  0.00  0.00    +0.177 C 
ATOM      9  C   UNL     1     -34.473  24.850   5.624  0.00  0.00    +0.078 C 
ATOM     10  C   UNL     1     -36.439  24.694   4.224  0.00  0.00    +0.206 C 
ATOM     11  C   UNL     1     -35.641  24.184   5.250  0.00  0.00    +0.178 C 
ENDROOT
BRANCH   5  12
ATOM     12  C   UNL     1     -31.303  28.359   5.297  0.00  0.00    +0.041 C 
ATOM     13  C   UNL     1     -30.101  28.127   4.629  0.00  0.00    +0.043 C 
ATOM     14  C   UNL     1     -31.313  29.108   6.474  0.00  0.00    +0.006 C 
ATOM     15  C   UNL     1     -28.909  28.645   5.136  0.00  0.00    +0.172 C 
ATOM     16  C   UNL     1     -30.121  29.625   6.982  0.00  0.00    +0.040 C 
ATOM     17  C   UNL     1     -28.919  29.394   6.312  0.00  0.00    +0.168 C 
BRANCH  15  18
ATOM     18  O   UNL     1     -27.742  28.412   4.475  0.00  0.00    -0.468 OA
ATOM     19  C   UNL     1     -27.261  27.069   4.463  0.00  0.00    +0.253 C 
ENDBRANCH  15  18
BRANCH  17  20
ATOM     20  O   UNL     1     -27.762  29.906   6.817  0.00  0.00    -0.503 OA
ATOM     21  H   UNL     1     -27.055  29.334   7.041  0.00  0.00    +0.292 HD
ENDBRANCH  17  20
ENDBRANCH   5  12
BRANCH   6  22
ATOM     22  O   UNL     1     -32.807  29.554   3.137  0.00  0.00    -0.465 OA
ATOM     23  C   UNL     1     -33.379  30.696   3.746  0.00  0.00    +0.253 C 
ENDBRANCH   6  22
BRANCH  10  24
ATOM     24  O   UNL     1     -37.578  24.036   3.863  0.00  0.00    -0.465 OA
ATOM     25  C   UNL     1     -37.438  22.957   2.942  0.00  0.00    +0.253 C 
ENDBRANCH  10  24
BRANCH  11  26
ATOM     26  O   UNL     1     -35.990  23.036   5.894  0.00  0.00    -0.468 OA
ATOM     27  C   UNL     1     -34.993  22.021   5.997  0.00  0.00    +0.253 C 
ENDBRANCH  11  26
BRANCH   8  28
ATOM     28  O   UNL     1     -36.879  26.335   2.573  0.00  0.00    -0.503 OA
ATOM     29  H   UNL     1     -36.719  27.178   2.195  0.00  0.00    +0.292 HD
ENDBRANCH   8  28
TORSDOF 7
ENDMDL
MODEL 2
REMARK VINA RESULT:      -6.2      3.355      7.425
REMARK  Name = 5281608
REMARK  7 active torsions:
REMARK  status: ('A' for Active; 'I' for Inactive)
REMARK    1  A    between atoms: C_5  and  C_12
REMARK    2  A    between atoms: C_6  and  O_22
REMARK    3  A    between atoms: C_8  and  O_28
REMARK    4  A    between atoms: C_10  and  O_24
REMARK    5  A    between atoms: C_11  and  O_26
REMARK    6  A    between atoms: C_15  and  O_18
REMARK    7  A    between atoms: C_17  and  O_20
REMARK                            x       y       z     vdW  Elec       q    Type
REMARK                         _______ _______ _______ _____ _____    ______ ____
ROOT
ATOM      1  O   UNL     1     -35.056  26.276   3.269  0.00  0.00    -0.450 OA
ATOM      2  O   UNL     1     -38.389  27.149   1.091  0.00  0.00    -0.283 OA
ATOM      3  C   UNL     1     -36.278  27.847   1.878  0.00  0.00    +0.113 A 
ATOM      4  C   UNL     1     -35.167  27.490   2.639  0.00  0.00    +0.155 A 
ATOM      5  C   UNL     1     -36.090  25.363   3.131  0.00  0.00    +0.182 A 
ATOM      6  C   UNL     1     -37.218  25.587   2.434  0.00  0.00    +0.212 A 
ATOM      7  C   UNL     1     -37.385  26.888   1.741  0.00  0.00    +0.238 A 
ATOM      8  C   UNL     1     -36.337  29.100   1.262  0.00  0.00    +0.177 C 
ATOM      9  C   UNL     1     -34.106  28.383   2.788  0.00  0.00    +0.078 C 
ATOM     10  C   UNL     1     -35.275  29.991   1.411  0.00  0.00    +0.206 C 
ATOM     11  C   UNL     1     -34.161  29.634   2.172  0.00  0.00    +0.178 C 
ENDROOT
BRANCH   5  12
ATOM     12  C   UNL     1     -35.844  24.104   3.856  0.00  0.00    +0.041 C 
ATOM     13  C   UNL     1     -35.720  22.906   3.153  0.00  0.00    +0.043 C 
ATOM     14  C   UNL     1     -35.736  24.110   5.247  0.00  0.00    +0.006 C 
ATOM     15  C   UNL     1     -35.487  21.715   3.840  0.00  0.00    +0.172 C 
ATOM     16  C   UNL     1     -35.504  22.918   5.934  0.00  0.00    +0.040 C 
ATOM     17  C   UNL     1     -35.379  21.721   5.230  0.00  0.00    +0.168 C 
BRANCH  15  18
ATOM     18  O   UNL     1     -35.368  20.551   3.142  0.00  0.00    -0.468 OA
ATOM     19  C   UNL     1     -36.317  20.318   2.102  0.00  0.00    +0.253 C 
ENDBRANCH  15  18
BRANCH  17  20
ATOM     20  O   UNL     1     -35.151  20.564   5.912  0.00  0.00    -0.503 OA
ATOM     21  H   UNL     1     -34.411  20.494   6.481  0.00  0.00    +0.292 HD
ENDBRANCH  17  20
ENDBRANCH   5  12
BRANCH   6  22
ATOM     22  O   UNL     1     -38.242  24.669   2.344  0.00  0.00    -0.465 OA
ATOM     23  C   UNL     1     -39.205  24.888   3.358  0.00  0.00    +0.253 C 
ENDBRANCH   6  22
BRANCH  10  24
ATOM     24  O   UNL     1     -35.321  31.216   0.813  0.00  0.00    -0.465 OA
ATOM     25  C   UNL     1     -35.921  32.276   1.555  0.00  0.00    +0.253 C 
ENDBRANCH  10  24
BRANCH  11  26
ATOM     26  O   UNL     1     -33.119  30.499   2.324  0.00  0.00    -0.468 OA
ATOM     27  C   UNL     1     -32.889  31.013   3.634  0.00  0.00    +0.253 C 
ENDBRANCH  11  26
BRANCH   8  28
ATOM     28  O   UNL     1     -37.406  29.486   0.510  0.00  0.00    -0.503 OA
ATOM     29  H   UNL     1     -37.311  29.606  -0.415  0.00  0.00    +0.292 HD
ENDBRANCH   8  28
TORSDOF 7
ENDMDL
MODEL 3
REMARK VINA RESULT:      -6.0      3.756      6.736
REMARK  Name = 5281608
REMARK  7 active torsions:
REMARK  status: ('A' for Active; 'I' for Inactive)
REMARK    1  A    between atoms: C_5  and  C_12
REMARK    2  A    between atoms: C_6  and  O_22
REMARK    3  A    between atoms: C_8  and  O_28
REMARK    4  A    between atoms: C_10  and  O_24
REMARK    5  A    between atoms: C_11  and  O_26
REMARK    6  A    between atoms: C_15  and  O_18
REMARK    7  A    between atoms: C_17  and  O_20
REMARK                            x       y       z     vdW  Elec       q    Type
REMARK                         _______ _______ _______ _____ _____    ______ ____
ROOT
ATOM      1  O   UNL     1     -35.219  22.128   2.502  0.00  0.00    -0.450 OA
ATOM      2  O   UNL     1     -39.229  21.970   1.795  0.00  0.00    -0.283 OA
ATOM      3  C   UNL     1     -37.099  21.028   1.428  0.00  0.00    +0.113 A 
ATOM      4  C   UNL     1     -35.738  21.139   1.706  0.00  0.00    +0.155 A 
ATOM      5  C   UNL     1     -36.090  23.049   3.063  0.00  0.00    +0.182 A 
ATOM      6  C   UNL     1     -37.421  23.059   2.867  0.00  0.00    +0.212 A 
ATOM      7  C   UNL     1     -38.025  22.012   2.009  0.00  0.00    +0.238 A 
ATOM      8  C   UNL     1     -37.570  20.000   0.608  0.00  0.00    +0.177 C 
ATOM      9  C   UNL     1     -34.838  20.220   1.165  0.00  0.00    +0.078 C 
ATOM     10  C   UNL     1     -36.669  19.082   0.068  0.00  0.00    +0.206 C 
ATOM     11  C   UNL     1     -35.305  19.191   0.346  0.00  0.00    +0.178 C 
ENDROOT
BRANCH   5  12
ATOM     12  C   UNL     1     -35.403  24.056   3.893  0.00  0.00    +0.041 C 
ATOM     13  C   UNL     1     -34.629  25.047   3.290  0.00  0.00    +0.043 C 
ATOM     14  C   UNL     1     -35.528  24.016   5.282  0.00  0.00    +0.006 C 
ATOM     15  C   UNL     1     -33.981  26.000   4.076  0.00  0.00    +0.172 C 
ATOM     16  C   UNL     1     -34.878  24.968   6.068  0.00  0.00    +0.040 C 
ATOM     17  C   UNL     1     -34.105  25.960   5.465  0.00  0.00    +0.168 C 
BRANCH  15  18
ATOM     18  O   UNL     1     -33.228  26.963   3.477  0.00  0.00    -0.468 OA
ATOM     19  C   UNL     1     -33.925  28.075   2.916  0.00  0.00    +0.253 C 
ENDBRANCH  15  18
BRANCH  17  20
ATOM     20  O   UNL     1     -33.477  26.886   6.243  0.00  0.00    -0.503 OA
ATOM     21  H   UNL     1     -33.467  27.785   5.985  0.00  0.00    +0.292 HD
ENDBRANCH  17  20
ENDBRANCH   5  12
BRANCH   6  22
ATOM     22  O   UNL     1     -38.254  24.011   3.414  0.00  0.00    -0.465 OA
ATOM     23  C   UNL     1     -38.409  25.109   2.535  0.00  0.00    +0.253 C 
ENDBRANCH   6  22
BRANCH  10  24
ATOM     24  O   UNL     1     -37.116  18.074  -0.734  0.00  0.00    -0.465 OA
ATOM     25  C   UNL     1     -37.481  16.852  -0.096  0.00  0.00    +0.253 C 
ENDBRANCH  10  24
BRANCH  11  26
ATOM     26  O   UNL     1     -34.417  18.300  -0.177  0.00  0.00    -0.468 OA
ATOM     27  C   UNL     1     -33.410  17.798   0.698  0.00  0.00    +0.253 C 
ENDBRANCH  11  26
BRANCH   8  28
ATOM     28  O   UNL     1     -38.893  19.858   0.313  0.00  0.00    -0.503 OA
ATOM     29  H   UNL     1     -39.239  19.012   0.105  0.00  0.00    +0.292 HD
ENDBRANCH   8  28
TORSDOF 7
ENDMDL
MODEL 4
REMARK VINA RESULT:      -5.9      2.192      7.206
REMARK  Name = 5281608
REMARK  7 active torsions:
REMARK  status: ('A' for Active; 'I' for Inactive)
REMARK    1  A    between atoms: C_5  and  C_12
REMARK    2  A    between atoms: C_6  and  O_22
REMARK    3  A    between atoms: C_8  and  O_28
REMARK    4  A    between atoms: C_10  and  O_24
REMARK    5  A    between atoms: C_11  and  O_26
REMARK    6  A    between atoms: C_15  and  O_18
REMARK    7  A    between atoms: C_17  and  O_20
REMARK                            x       y       z     vdW  Elec       q    Type
REMARK                         _______ _______ _______ _____ _____    ______ ____
ROOT
ATOM      1  O   UNL     1     -34.188  26.297   3.956  0.00  0.00    -0.450 OA
ATOM      2  O   UNL     1     -37.026  27.805   1.450  0.00  0.00    -0.283 OA
ATOM      3  C   UNL     1     -34.996  28.143   2.601  0.00  0.00    +0.113 A 
ATOM      4  C   UNL     1     -34.063  27.571   3.463  0.00  0.00    +0.155 A 
ATOM      5  C   UNL     1     -35.285  25.544   3.568  0.00  0.00    +0.182 A 
ATOM      6  C   UNL     1     -36.261  25.980   2.751  0.00  0.00    +0.212 A 
ATOM      7  C   UNL     1     -36.170  27.354   2.198  0.00  0.00    +0.238 A 
ATOM      8  C   UNL     1     -34.817  29.447   2.132  0.00  0.00    +0.177 C 
ATOM      9  C   UNL     1     -32.942  28.300   3.862  0.00  0.00    +0.078 C 
ATOM     10  C   UNL     1     -33.695  30.174   2.532  0.00  0.00    +0.206 C 
ATOM     11  C   UNL     1     -32.759  29.602   3.395  0.00  0.00    +0.178 C 
ENDROOT
BRANCH   5  12
ATOM     12  C   UNL     1     -35.298  24.198   4.169  0.00  0.00    +0.041 C 
ATOM     13  C   UNL     1     -35.318  23.068   3.351  0.00  0.00    +0.043 C 
ATOM     14  C   UNL     1     -35.292  24.053   5.557  0.00  0.00    +0.006 C 
ATOM     15  C   UNL     1     -35.330  21.795   3.920  0.00  0.00    +0.172 C 
ATOM     16  C   UNL     1     -35.305  22.779   6.125  0.00  0.00    +0.040 C 
ATOM     17  C   UNL     1     -35.324  21.651   5.307  0.00  0.00    +0.168 C 
BRANCH  15  18
ATOM     18  O   UNL     1     -35.349  20.700   3.111  0.00  0.00    -0.468 OA
ATOM     19  C   UNL     1     -36.440  20.588   2.197  0.00  0.00    +0.253 C 
ENDBRANCH  15  18
BRANCH  17  20
ATOM     20  O   UNL     1     -35.334  20.412   5.874  0.00  0.00    -0.503 OA
ATOM     21  H   UNL     1     -36.126  20.071   6.239  0.00  0.00    +0.292 HD
ENDBRANCH  17  20
ENDBRANCH   5  12
BRANCH   6  22
ATOM     22  O   UNL     1     -37.356  25.216   2.412  0.00  0.00    -0.465 OA
ATOM     23  C   UNL     1     -38.471  25.549   3.218  0.00  0.00    +0.253 C 
ENDBRANCH   6  22
BRANCH  10  24
ATOM     24  O   UNL     1     -33.510  31.448   2.081  0.00  0.00    -0.465 OA
ATOM     25  C   UNL     1     -32.750  31.607   0.885  0.00  0.00    +0.253 C 
ENDBRANCH  10  24
BRANCH  11  26
ATOM     26  O   UNL     1     -31.662  30.305   3.791  0.00  0.00    -0.468 OA
ATOM     27  C   UNL     1     -30.873  29.740   4.836  0.00  0.00    +0.253 C 
ENDBRANCH  11  26
BRANCH   8  28
ATOM     28  O   UNL     1     -35.707  30.041   1.288  0.00  0.00    -0.503 OA
ATOM     29  H   UNL     1     -36.265  30.726   1.602  0.00  0.00    +0.292 HD
ENDBRANCH   8  28
TORSDOF 7
ENDMDL
MODEL 5
REMARK VINA RESULT:      -5.8      5.886      8.805
REMARK  Name = 5281608
REMARK  7 active torsions:
REMARK  status: ('A' for Active; 'I' for Inactive)
REMARK    1  A    between atoms: C_5  and  C_12
REMARK    2  A    between atoms: C_6  and  O_22
REMARK    3  A    between atoms: C_8  and  O_28
REMARK    4  A    between atoms: C_10  and  O_24
REMARK    5  A    between atoms: C_11  and  O_26
REMARK    6  A    between atoms: C_15  and  O_18
REMARK    7  A    between atoms: C_17  and  O_20
REMARK                            x       y       z     vdW  Elec       q    Type
REMARK                         _______ _______ _______ _____ _____    ______ ____
ROOT
ATOM      1  O   UNL     1     -34.507  20.835   1.735  0.00  0.00    -0.450 OA
ATOM      2  O   UNL     1     -37.718  19.049  -0.029  0.00  0.00    -0.283 OA
ATOM      3  C   UNL     1     -36.909  20.749   1.392  0.00  0.00    +0.113 A 
ATOM      4  C   UNL     1     -35.771  21.312   1.966  0.00  0.00    +0.155 A 
ATOM      5  C   UNL     1     -34.355  19.752   0.883  0.00  0.00    +0.182 A 
ATOM      6  C   UNL     1     -35.369  19.112   0.273  0.00  0.00    +0.212 A 
ATOM      7  C   UNL     1     -36.755  19.591   0.499  0.00  0.00    +0.238 A 
ATOM      8  C   UNL     1     -38.173  21.277   1.666  0.00  0.00    +0.177 C 
ATOM      9  C   UNL     1     -35.891  22.410   2.819  0.00  0.00    +0.078 C 
ATOM     10  C   UNL     1     -38.290  22.375   2.519  0.00  0.00    +0.206 C 
ATOM     11  C   UNL     1     -37.152  22.941   3.095  0.00  0.00    +0.178 C 
ENDROOT
BRANCH   5  12
ATOM     12  C   UNL     1     -32.949  19.341   0.722  0.00  0.00    +0.041 C 
ATOM     13  C   UNL     1     -32.075  20.122  -0.035  0.00  0.00    +0.043 C 
ATOM     14  C   UNL     1     -32.491  18.170   1.327  0.00  0.00    +0.006 C 
ATOM     15  C   UNL     1     -30.745  19.732  -0.186  0.00  0.00    +0.172 C 
ATOM     16  C   UNL     1     -31.161  17.780   1.174  0.00  0.00    +0.040 C 
ATOM     17  C   UNL     1     -30.287  18.561   0.419  0.00  0.00    +0.168 C 
BRANCH  15  18
ATOM     18  O   UNL     1     -29.901  20.502  -0.927  0.00  0.00    -0.468 OA
ATOM     19  C   UNL     1     -30.376  21.789  -1.322  0.00  0.00    +0.253 C 
ENDBRANCH  15  18
BRANCH  17  20
ATOM     20  O   UNL     1     -28.989  18.171   0.279  0.00  0.00    -0.503 OA
ATOM     21  H   UNL     1     -28.297  18.772   0.468  0.00  0.00    +0.292 HD
ENDBRANCH  17  20
ENDBRANCH   5  12
BRANCH   6  22
ATOM     22  O   UNL     1     -35.186  18.017  -0.543  0.00  0.00    -0.465 OA
ATOM     23  C   UNL     1     -35.046  18.413  -1.894  0.00  0.00    +0.253 C 
ENDBRANCH   6  22
BRANCH  10  24
ATOM     24  O   UNL     1     -39.519  22.899   2.794  0.00  0.00    -0.465 OA
ATOM     25  C   UNL     1     -39.983  23.943   1.942  0.00  0.00    +0.253 C 
ENDBRANCH  10  24
BRANCH  11  26
ATOM     26  O   UNL     1     -37.257  24.012   3.929  0.00  0.00    -0.468 OA
ATOM     27  C   UNL     1     -36.161  24.260   4.807  0.00  0.00    +0.253 C 
ENDBRANCH  11  26
BRANCH   8  28
ATOM     28  O   UNL     1     -39.309  20.754   1.124  0.00  0.00    -0.503 OA
ATOM     29  H   UNL     1     -39.736  21.194   0.415  0.00  0.00    +0.292 HD
ENDBRANCH   8  28
TORSDOF 7
ENDMDL
MODEL 6
REMARK VINA RESULT:      -5.8      5.998      9.217
REMARK  Name = 5281608
REMARK  7 active torsions:
REMARK  status: ('A' for Active; 'I' for Inactive)
REMARK    1  A    between atoms: C_5  and  C_12
REMARK    2  A    between atoms: C_6  and  O_22
REMARK    3  A    between atoms: C_8  and  O_28
REMARK    4  A    between atoms: C_10  and  O_24
REMARK    5  A    between atoms: C_11  and  O_26
REMARK    6  A    between atoms: C_15  and  O_18
REMARK    7  A    between atoms: C_17  and  O_20
REMARK                            x       y       z     vdW  Elec       q    Type
REMARK                         _______ _______ _______ _____ _____    ______ ____
ROOT
ATOM      1  O   UNL     1     -34.636  19.970   2.154  0.00  0.00    -0.450 OA
ATOM      2  O   UNL     1     -36.921  21.761  -0.705  0.00  0.00    -0.283 OA
ATOM      3  C   UNL     1     -36.236  21.693   1.550  0.00  0.00    +0.113 A 
ATOM      4  C   UNL     1     -35.434  21.036   2.481  0.00  0.00    +0.155 A 
ATOM      5  C   UNL     1     -34.618  19.537   0.838  0.00  0.00    +0.182 A 
ATOM      6  C   UNL     1     -35.350  20.077  -0.154  0.00  0.00    +0.212 A 
ATOM      7  C   UNL     1     -36.233  21.229   0.155  0.00  0.00    +0.238 A 
ATOM      8  C   UNL     1     -37.031  22.773   1.942  0.00  0.00    +0.177 C 
ATOM      9  C   UNL     1     -35.423  21.456   3.812  0.00  0.00    +0.078 C 
ATOM     10  C   UNL     1     -37.017  23.192   3.272  0.00  0.00    +0.206 C 
ATOM     11  C   UNL     1     -36.215  22.535   4.206  0.00  0.00    +0.178 C 
ENDROOT
BRANCH   5  12
ATOM     12  C   UNL     1     -33.722  18.387   0.624  0.00  0.00    +0.041 C 
ATOM     13  C   UNL     1     -32.379  18.470   0.994  0.00  0.00    +0.043 C 
ATOM     14  C   UNL     1     -34.216  17.215   0.050  0.00  0.00    +0.006 C 
ATOM     15  C   UNL     1     -31.532  17.381   0.792  0.00  0.00    +0.172 C 
ATOM     16  C   UNL     1     -33.367  16.126  -0.153  0.00  0.00    +0.040 C 
ATOM     17  C   UNL     1     -32.026  16.209   0.218  0.00  0.00    +0.168 C 
BRANCH  15  18
ATOM     18  O   UNL     1     -30.223  17.473   1.157  0.00  0.00    -0.468 OA
ATOM     19  C   UNL     1     -29.393  18.337   0.382  0.00  0.00    +0.253 C 
ENDBRANCH  15  18
BRANCH  17  20
ATOM     20  O   UNL     1     -31.207  15.139   0.017  0.00  0.00    -0.503 OA
ATOM     21  H   UNL     1     -30.345  15.266  -0.325  0.00  0.00    +0.292 HD
ENDBRANCH  17  20
ENDBRANCH   5  12
BRANCH   6  22
ATOM     22  O   UNL     1     -35.334  19.600  -1.447  0.00  0.00    -0.465 OA
ATOM     23  C   UNL     1     -34.398  20.312  -2.234  0.00  0.00    +0.253 C 
ENDBRANCH   6  22
BRANCH  10  24
ATOM     24  O   UNL     1     -37.789  24.244   3.666  0.00  0.00    -0.465 OA
ATOM     25  C   UNL     1     -37.180  25.534   3.656  0.00  0.00    +0.253 C 
ENDBRANCH  10  24
BRANCH  11  26
ATOM     26  O   UNL     1     -36.195  22.936   5.508  0.00  0.00    -0.468 OA
ATOM     27  C   UNL     1     -35.364  22.199   6.401  0.00  0.00    +0.253 C 
ENDBRANCH  11  26
BRANCH   8  28
ATOM     28  O   UNL     1     -37.829  23.441   1.061  0.00  0.00    -0.503 OA
ATOM     29  H   UNL     1     -38.139  24.302   1.268  0.00  0.00    +0.292 HD
ENDBRANCH   8  28
TORSDOF 7
ENDMDL
MODEL 7
REMARK VINA RESULT:      -5.7      2.714      8.449
REMARK  Name = 5281608
REMARK  7 active torsions:
REMARK  status: ('A' for Active; 'I' for Inactive)
REMARK    1  A    between atoms: C_5  and  C_12
REMARK    2  A    between atoms: C_6  and  O_22
REMARK    3  A    between atoms: C_8  and  O_28
REMARK    4  A    between atoms: C_10  and  O_24
REMARK    5  A    between atoms: C_11  and  O_26
REMARK    6  A    between atoms: C_15  and  O_18
REMARK    7  A    between atoms: C_17  and  O_20
REMARK                            x       y       z     vdW  Elec       q    Type
REMARK                         _______ _______ _______ _____ _____    ______ ____
ROOT
ATOM      1  O   UNL     1     -35.863  25.584   2.355  0.00  0.00    -0.450 OA
ATOM      2  O   UNL     1     -34.319  25.757   6.122  0.00  0.00    -0.283 OA
ATOM      3  C   UNL     1     -34.360  26.646   3.939  0.00  0.00    +0.113 A 
ATOM      4  C   UNL     1     -34.925  26.532   2.670  0.00  0.00    +0.155 A 
ATOM      5  C   UNL     1     -36.276  24.708   3.347  0.00  0.00    +0.182 A 
ATOM      6  C   UNL     1     -35.805  24.705   4.607  0.00  0.00    +0.212 A 
ATOM      7  C   UNL     1     -34.784  25.711   4.991  0.00  0.00    +0.238 A 
ATOM      8  C   UNL     1     -33.406  27.632   4.201  0.00  0.00    +0.177 C 
ATOM      9  C   UNL     1     -34.537  27.406   1.653  0.00  0.00    +0.078 C 
ATOM     10  C   UNL     1     -33.020  28.505   3.183  0.00  0.00    +0.206 C 
ATOM     11  C   UNL     1     -33.585  28.393   1.911  0.00  0.00    +0.178 C 
ENDROOT
BRANCH   5  12
ATOM     12  C   UNL     1     -37.285  23.742   2.877  0.00  0.00    +0.041 C 
ATOM     13  C   UNL     1     -36.883  22.507   2.367  0.00  0.00    +0.043 C 
ATOM     14  C   UNL     1     -38.641  24.062   2.940  0.00  0.00    +0.006 C 
ATOM     15  C   UNL     1     -37.838  21.592   1.923  0.00  0.00    +0.172 C 
ATOM     16  C   UNL     1     -39.595  23.148   2.494  0.00  0.00    +0.040 C 
ATOM     17  C   UNL     1     -39.194  21.913   1.986  0.00  0.00    +0.168 C 
BRANCH  15  18
ATOM     18  O   UNL     1     -37.434  20.390   1.427  0.00  0.00    -0.468 OA
ATOM     19  C   UNL     1     -36.083  20.005   1.679  0.00  0.00    +0.253 C 
ENDBRANCH  15  18
BRANCH  17  20
ATOM     20  O   UNL     1     -40.136  21.027   1.556  0.00  0.00    -0.503 OA
ATOM     21  H   UNL     1     -40.412  20.329   2.115  0.00  0.00    +0.292 HD
ENDBRANCH  17  20
ENDBRANCH   5  12
BRANCH   6  22
ATOM     22  O   UNL     1     -36.213  23.799   5.561  0.00  0.00    -0.465 OA
ATOM     23  C   UNL     1     -35.286  22.735   5.675  0.00  0.00    +0.253 C 
ENDBRANCH   6  22
BRANCH  10  24
ATOM     24  O   UNL     1     -32.090  29.471   3.427  0.00  0.00    -0.465 OA
ATOM     25  C   UNL     1     -32.569  30.726   3.905  0.00  0.00    +0.253 C 
ENDBRANCH  10  24
BRANCH  11  26
ATOM     26  O   UNL     1     -33.214  29.240   0.911  0.00  0.00    -0.468 OA
ATOM     27  C   UNL     1     -34.159  30.233   0.519  0.00  0.00    +0.253 C 
ENDBRANCH  11  26
BRANCH   8  28
ATOM     28  O   UNL     1     -32.831  27.775   5.429  0.00  0.00    -0.503 OA
ATOM     29  H   UNL     1     -33.128  28.447   6.010  0.00  0.00    +0.292 HD
ENDBRANCH   8  28
TORSDOF 7
ENDMDL
MODEL 8
REMARK VINA RESULT:      -5.7      6.367      9.687
REMARK  Name = 5281608
REMARK  7 active torsions:
REMARK  status: ('A' for Active; 'I' for Inactive)
REMARK    1  A    between atoms: C_5  and  C_12
REMARK    2  A    between atoms: C_6  and  O_22
REMARK    3  A    between atoms: C_8  and  O_28
REMARK    4  A    between atoms: C_10  and  O_24
REMARK    5  A    between atoms: C_11  and  O_26
REMARK    6  A    between atoms: C_15  and  O_18
REMARK    7  A    between atoms: C_17  and  O_20
REMARK                            x       y       z     vdW  Elec       q    Type
REMARK                         _______ _______ _______ _____ _____    ______ ____
ROOT
ATOM      1  O   UNL     1     -33.740  19.777   1.544  0.00  0.00    -0.450 OA
ATOM      2  O   UNL     1     -36.641  17.867  -0.587  0.00  0.00    -0.283 OA
ATOM      3  C   UNL     1     -34.413  17.881   0.185  0.00  0.00    +0.113 A 
ATOM      4  C   UNL     1     -33.465  18.584   0.926  0.00  0.00    +0.155 A 
ATOM      5  C   UNL     1     -35.020  20.297   1.437  0.00  0.00    +0.182 A 
ATOM      6  C   UNL     1     -36.022  19.724   0.746  0.00  0.00    +0.212 A 
ATOM      7  C   UNL     1     -35.769  18.435   0.056  0.00  0.00    +0.238 A 
ATOM      8  C   UNL     1     -34.075  16.671  -0.426  0.00  0.00    +0.177 C 
ATOM      9  C   UNL     1     -32.171  18.080   1.060  0.00  0.00    +0.078 C 
ATOM     10  C   UNL     1     -32.781  16.168  -0.289  0.00  0.00    +0.206 C 
ATOM     11  C   UNL     1     -31.830  16.871   0.453  0.00  0.00    +0.178 C 
ENDROOT
BRANCH   5  12
ATOM     12  C   UNL     1     -35.180  21.579   2.146  0.00  0.00    +0.041 C 
ATOM     13  C   UNL     1     -35.631  21.596   3.466  0.00  0.00    +0.043 C 
ATOM     14  C   UNL     1     -34.880  22.777   1.497  0.00  0.00    +0.006 C 
ATOM     15  C   UNL     1     -35.782  22.810   4.136  0.00  0.00    +0.172 C 
ATOM     16  C   UNL     1     -35.032  23.991   2.168  0.00  0.00    +0.040 C 
ATOM     17  C   UNL     1     -35.482  24.007   3.487  0.00  0.00    +0.168 C 
BRANCH  15  18
ATOM     18  O   UNL     1     -36.223  22.813   5.425  0.00  0.00    -0.468 OA
ATOM     19  C   UNL     1     -35.445  22.093   6.379  0.00  0.00    +0.253 C 
ENDBRANCH  15  18
BRANCH  17  20
ATOM     20  O   UNL     1     -35.624  25.199   4.132  0.00  0.00    -0.503 OA
ATOM     21  H   UNL     1     -35.320  25.294   5.012  0.00  0.00    +0.292 HD
ENDBRANCH  17  20
ENDBRANCH   5  12
BRANCH   6  22
ATOM     22  O   UNL     1     -37.276  20.285   0.632  0.00  0.00    -0.465 OA
ATOM     23  C   UNL     1     -37.393  21.013  -0.576  0.00  0.00    +0.253 C 
ENDBRANCH   6  22
BRANCH  10  24
ATOM     24  O   UNL     1     -32.439  14.988  -0.880  0.00  0.00    -0.465 OA
ATOM     25  C   UNL     1     -31.888  15.058  -2.194  0.00  0.00    +0.253 C 
ENDBRANCH  10  24
BRANCH  11  26
ATOM     26  O   UNL     1     -30.564  16.389   0.591  0.00  0.00    -0.468 OA
ATOM     27  C   UNL     1     -29.529  17.342   0.828  0.00  0.00    +0.253 C 
ENDBRANCH  11  26
BRANCH   8  28
ATOM     28  O   UNL     1     -34.974  15.953  -1.158  0.00  0.00    -0.503 OA
ATOM     29  H   UNL     1     -35.572  16.395  -1.729  0.00  0.00    +0.292 HD
ENDBRANCH   8  28
TORSDOF 7
ENDMDL
MODEL 9
REMARK VINA RESULT:      -5.7      2.577      8.628
REMARK  Name = 5281608
REMARK  7 active torsions:
REMARK  status: ('A' for Active; 'I' for Inactive)
REMARK    1  A    between atoms: C_5  and  C_12
REMARK    2  A    between atoms: C_6  and  O_22
REMARK    3  A    between atoms: C_8  and  O_28
REMARK    4  A    between atoms: C_10  and  O_24
REMARK    5  A    between atoms: C_11  and  O_26
REMARK    6  A    between atoms: C_15  and  O_18
REMARK    7  A    between atoms: C_17  and  O_20
REMARK                            x       y       z     vdW  Elec       q    Type
REMARK                         _______ _______ _______ _____ _____    ______ ____
ROOT
ATOM      1  O   UNL     1     -35.419  25.288   2.380  0.00  0.00    -0.450 OA
ATOM      2  O   UNL     1     -34.416  25.675   6.310  0.00  0.00    -0.283 OA
ATOM      3  C   UNL     1     -34.154  26.447   4.097  0.00  0.00    +0.113 A 
ATOM      4  C   UNL     1     -34.535  26.260   2.770  0.00  0.00    +0.155 A 
ATOM      5  C   UNL     1     -35.966  24.463   3.350  0.00  0.00    +0.182 A 
ATOM      6  C   UNL     1     -35.675  24.532   4.662  0.00  0.00    +0.212 A 
ATOM      7  C   UNL     1     -34.719  25.565   5.130  0.00  0.00    +0.238 A 
ATOM      8  C   UNL     1     -33.246  27.453   4.436  0.00  0.00    +0.177 C 
ATOM      9  C   UNL     1     -34.011  27.082   1.772  0.00  0.00    +0.078 C 
ATOM     10  C   UNL     1     -32.723  28.274   3.436  0.00  0.00    +0.206 C 
ATOM     11  C   UNL     1     -33.105  28.089   2.106  0.00  0.00    +0.178 C 
ENDROOT
BRANCH   5  12
ATOM     12  C   UNL     1     -36.898  23.464   2.797  0.00  0.00    +0.041 C 
ATOM     13  C   UNL     1     -38.246  23.782   2.635  0.00  0.00    +0.043 C 
ATOM     14  C   UNL     1     -36.431  22.200   2.436  0.00  0.00    +0.006 C 
ATOM     15  C   UNL     1     -39.127  22.836   2.111  0.00  0.00    +0.172 C 
ATOM     16  C   UNL     1     -37.313  21.254   1.913  0.00  0.00    +0.040 C 
ATOM     17  C   UNL     1     -38.660  21.572   1.750  0.00  0.00    +0.168 C 
BRANCH  15  18
ATOM     18  O   UNL     1     -40.442  23.158   1.957  0.00  0.00    -0.468 OA
ATOM     19  C   UNL     1     -40.738  24.485   1.526  0.00  0.00    +0.253 C 
ENDBRANCH  15  18
BRANCH  17  20
ATOM     20  O   UNL     1     -39.511  20.641   1.236  0.00  0.00    -0.503 OA
ATOM     21  H   UNL     1     -39.333  20.252   0.403  0.00  0.00    +0.292 HD
ENDBRANCH  17  20
ENDBRANCH   5  12
BRANCH   6  22
ATOM     22  O   UNL     1     -36.211  23.674   5.598  0.00  0.00    -0.465 OA
ATOM     23  C   UNL     1     -35.299  22.638   5.913  0.00  0.00    +0.253 C 
ENDBRANCH   6  22
BRANCH  10  24
ATOM     24  O   UNL     1     -31.837  29.260   3.754  0.00  0.00    -0.465 OA
ATOM     25  C   UNL     1     -32.380  30.532   4.099  0.00  0.00    +0.253 C 
ENDBRANCH  10  24
BRANCH  11  26
ATOM     26  O   UNL     1     -32.599  28.885   1.123  0.00  0.00    -0.468 OA
ATOM     27  C   UNL     1     -33.484  29.842   0.544  0.00  0.00    +0.253 C 
ENDBRANCH  11  26
BRANCH   8  28
ATOM     28  O   UNL     1     -32.848  27.666   5.722  0.00  0.00    -0.503 OA
ATOM     29  H   UNL     1     -32.230  27.087   6.124  0.00  0.00    +0.292 HD
ENDBRANCH   8  28
TORSDOF 7
ENDMDL
