MODEL 1
REMARK VINA RESULT:      -6.3      0.000      0.000
REMARK  Name = 56950231
REMARK  6 active torsions:
REMARK  status: ('A' for Active; 'I' for Inactive)
REMARK    1  A    between atoms: C_7  and  O_17
REMARK    2  A    between atoms: C_10  and  C_25
REMARK    3  A    between atoms: C_12  and  O_19
REMARK    4  A    between atoms: C_13  and  O_21
REMARK    5  A    between atoms: C_15  and  O_23
REMARK    6  A    between atoms: C_25  and  O_26
REMARK                            x       y       z     vdW  Elec       q    Type
REMARK                         _______ _______ _______ _____ _____    ______ ____
ROOT
ATOM      1  O   UNL     1     -33.391  25.772   1.329  0.00  0.00    -0.286 OA
ATOM      2  O   UNL     1     -33.686  26.625   6.596  0.00  0.00    -0.286 OA
ATOM      3  C   UNL     1     -34.192  25.018   3.423  0.00  0.00    +0.076 C 
ATOM      4  C   UNL     1     -34.261  25.254   4.798  0.00  0.00    +0.048 C 
ATOM      5  C   UNL     1     -32.888  27.378   4.502  0.00  0.00    +0.079 C 
ATOM      6  C   UNL     1     -32.818  27.142   3.127  0.00  0.00    +0.045 C 
ATOM      7  C   UNL     1     -34.813  23.890   2.875  0.00  0.00    +0.143 C 
ATOM      8  C   UNL     1     -33.467  25.954   2.537  0.00  0.00    +0.199 C 
ATOM      9  C   UNL     1     -33.611  26.442   5.387  0.00  0.00    +0.199 C 
ATOM     10  C   UNL     1     -35.499  23.001   3.704  0.00  0.00    +0.075 C 
ATOM     11  C   UNL     1     -34.949  24.360   5.625  0.00  0.00    +0.040 C 
ATOM     12  C   UNL     1     -35.567  23.236   5.076  0.00  0.00    +0.135 C 
ATOM     13  C   UNL     1     -32.269  28.509   5.049  0.00  0.00    +0.171 C 
ATOM     14  C   UNL     1     -32.130  28.036   2.299  0.00  0.00    +0.007 C 
ATOM     15  C   UNL     1     -31.583  29.397   4.220  0.00  0.00    +0.168 C 
ATOM     16  C   UNL     1     -31.515  29.162   2.848  0.00  0.00    +0.040 C 
ENDROOT
BRANCH   7  17
ATOM     17  O   UNL     1     -34.773  23.617   1.539  0.00  0.00    -0.471 OA
ATOM     18  C   UNL     1     -35.938  23.933   0.781  0.00  0.00    +0.252 C 
ENDBRANCH   7  17
BRANCH  12  19
ATOM     19  O   UNL     1     -36.233  22.377   5.898  0.00  0.00    -0.506 OA
ATOM     20  H   UNL     1     -37.118  22.557   6.146  0.00  0.00    +0.292 HD
ENDBRANCH  12  19
BRANCH  13  21
ATOM     21  O   UNL     1     -32.305  28.786   6.384  0.00  0.00    -0.503 OA
ATOM     22  H   UNL     1     -33.121  28.759   6.846  0.00  0.00    +0.292 HD
ENDBRANCH  13  21
BRANCH  15  23
ATOM     23  O   UNL     1     -30.975  30.502   4.735  0.00  0.00    -0.503 OA
ATOM     24  H   UNL     1     -30.948  31.297   4.239  0.00  0.00    +0.292 HD
ENDBRANCH  15  23
BRANCH  10  25
ATOM     25  C   UNL     1     -36.165  21.794   3.125  0.00  0.00    +0.170 C 
BRANCH  25  26
ATOM     26  O   UNL     1     -35.594  20.625   3.697  0.00  0.00    -0.377 OA
ATOM     27  H   UNL     1     -35.505  20.744   4.655  0.00  0.00    +0.211 HD
ENDBRANCH  25  26
ENDBRANCH  10  25
TORSDOF 6
ENDMDL
MODEL 2
REMARK VINA RESULT:      -6.1      1.241      6.091
REMARK  Name = 56950231
REMARK  6 active torsions:
REMARK  status: ('A' for Active; 'I' for Inactive)
REMARK    1  A    between atoms: C_7  and  O_17
REMARK    2  A    between atoms: C_10  and  C_25
REMARK    3  A    between atoms: C_12  and  O_19
REMARK    4  A    between atoms: C_13  and  O_21
REMARK    5  A    between atoms: C_15  and  O_23
REMARK    6  A    between atoms: C_25  and  O_26
REMARK                            x       y       z     vdW  Elec       q    Type
REMARK                         _______ _______ _______ _____ _____    ______ ____
ROOT
ATOM      1  O   UNL     1     -33.750  26.052   1.476  0.00  0.00    -0.286 OA
ATOM      2  O   UNL     1     -34.957  23.800   6.170  0.00  0.00    -0.286 OA
ATOM      3  C   UNL     1     -33.618  26.179   3.834  0.00  0.00    +0.076 C 
ATOM      4  C   UNL     1     -33.941  25.580   5.053  0.00  0.00    +0.048 C 
ATOM      5  C   UNL     1     -35.086  23.673   3.813  0.00  0.00    +0.079 C 
ATOM      6  C   UNL     1     -34.764  24.274   2.593  0.00  0.00    +0.045 C 
ATOM      7  C   UNL     1     -32.910  27.387   3.814  0.00  0.00    +0.143 C 
ATOM      8  C   UNL     1     -34.019  25.548   2.559  0.00  0.00    +0.199 C 
ATOM      9  C   UNL     1     -34.686  24.305   5.087  0.00  0.00    +0.199 C 
ATOM     10  C   UNL     1     -32.528  27.989   5.013  0.00  0.00    +0.075 C 
ATOM     11  C   UNL     1     -33.556  26.188   6.253  0.00  0.00    +0.040 C 
ATOM     12  C   UNL     1     -32.850  27.392   6.230  0.00  0.00    +0.135 C 
ATOM     13  C   UNL     1     -35.792  22.464   3.831  0.00  0.00    +0.171 C 
ATOM     14  C   UNL     1     -35.148  23.665   1.393  0.00  0.00    +0.007 C 
ATOM     15  C   UNL     1     -36.173  21.861   2.632  0.00  0.00    +0.168 C 
ATOM     16  C   UNL     1     -35.851  22.460   1.415  0.00  0.00    +0.040 C 
ENDROOT
BRANCH   7  17
ATOM     17  O   UNL     1     -32.573  28.011   2.648  0.00  0.00    -0.471 OA
ATOM     18  C   UNL     1     -33.372  29.125   2.259  0.00  0.00    +0.252 C 
ENDBRANCH   7  17
BRANCH  12  19
ATOM     19  O   UNL     1     -32.485  27.968   7.409  0.00  0.00    -0.506 OA
ATOM     20  H   UNL     1     -31.583  28.157   7.579  0.00  0.00    +0.292 HD
ENDBRANCH  12  19
BRANCH  13  21
ATOM     21  O   UNL     1     -36.131  21.837   4.994  0.00  0.00    -0.503 OA
ATOM     22  H   UNL     1     -36.627  21.041   4.969  0.00  0.00    +0.292 HD
ENDBRANCH  13  21
BRANCH  15  23
ATOM     23  O   UNL     1     -36.860  20.685   2.632  0.00  0.00    -0.503 OA
ATOM     24  H   UNL     1     -36.398  19.872   2.688  0.00  0.00    +0.292 HD
ENDBRANCH  15  23
BRANCH  10  25
ATOM     25  C   UNL     1     -31.771  29.279   4.999  0.00  0.00    +0.170 C 
BRANCH  25  26
ATOM     26  O   UNL     1     -32.573  30.299   5.577  0.00  0.00    -0.377 OA
ATOM     27  H   UNL     1     -32.904  30.002   6.439  0.00  0.00    +0.211 HD
ENDBRANCH  25  26
ENDBRANCH  10  25
TORSDOF 6
ENDMDL
MODEL 3
REMARK VINA RESULT:      -6.1      3.766      5.938
REMARK  Name = 56950231
REMARK  6 active torsions:
REMARK  status: ('A' for Active; 'I' for Inactive)
REMARK    1  A    between atoms: C_7  and  O_17
REMARK    2  A    between atoms: C_10  and  C_25
REMARK    3  A    between atoms: C_12  and  O_19
REMARK    4  A    between atoms: C_13  and  O_21
REMARK    5  A    between atoms: C_15  and  O_23
REMARK    6  A    between atoms: C_25  and  O_26
REMARK                            x       y       z     vdW  Elec       q    Type
REMARK                         _______ _______ _______ _____ _____    ______ ____
ROOT
ATOM      1  O   UNL     1     -34.934  21.034   3.125  0.00  0.00    -0.286 OA
ATOM      2  O   UNL     1     -39.108  24.187   2.034  0.00  0.00    -0.286 OA
ATOM      3  C   UNL     1     -36.897  21.362   1.847  0.00  0.00    +0.076 C 
ATOM      4  C   UNL     1     -37.983  22.196   1.572  0.00  0.00    +0.048 C 
ATOM      5  C   UNL     1     -37.145  23.859   3.309  0.00  0.00    +0.079 C 
ATOM      6  C   UNL     1     -36.059  23.024   3.585  0.00  0.00    +0.045 C 
ATOM      7  C   UNL     1     -36.751  20.154   1.156  0.00  0.00    +0.143 C 
ATOM      8  C   UNL     1     -35.895  21.746   2.864  0.00  0.00    +0.199 C 
ATOM      9  C   UNL     1     -38.147  23.475   2.294  0.00  0.00    +0.199 C 
ATOM     10  C   UNL     1     -37.692  19.784   0.193  0.00  0.00    +0.075 C 
ATOM     11  C   UNL     1     -38.924  21.821   0.608  0.00  0.00    +0.040 C 
ATOM     12  C   UNL     1     -38.776  20.615  -0.080  0.00  0.00    +0.135 C 
ATOM     13  C   UNL     1     -37.289  25.069   3.999  0.00  0.00    +0.171 C 
ATOM     14  C   UNL     1     -35.117  23.400   4.549  0.00  0.00    +0.007 C 
ATOM     15  C   UNL     1     -36.347  25.439   4.961  0.00  0.00    +0.168 C 
ATOM     16  C   UNL     1     -35.264  24.607   5.234  0.00  0.00    +0.040 C 
ENDROOT
BRANCH   7  17
ATOM     17  O   UNL     1     -35.707  19.306   1.389  0.00  0.00    -0.471 OA
ATOM     18  C   UNL     1     -34.611  19.367   0.480  0.00  0.00    +0.252 C 
ENDBRANCH   7  17
BRANCH  12  19
ATOM     19  O   UNL     1     -39.703  20.268  -1.016  0.00  0.00    -0.506 OA
ATOM     20  H   UNL     1     -40.010  19.384  -1.066  0.00  0.00    +0.292 HD
ENDBRANCH  12  19
BRANCH  13  21
ATOM     21  O   UNL     1     -38.330  25.920   3.769  0.00  0.00    -0.503 OA
ATOM     22  H   UNL     1     -38.689  25.998   2.907  0.00  0.00    +0.292 HD
ENDBRANCH  13  21
BRANCH  15  23
ATOM     23  O   UNL     1     -36.472  26.612   5.641  0.00  0.00    -0.503 OA
ATOM     24  H   UNL     1     -35.935  26.779   6.391  0.00  0.00    +0.292 HD
ENDBRANCH  15  23
BRANCH  10  25
ATOM     25  C   UNL     1     -37.542  18.494  -0.549  0.00  0.00    +0.170 C 
BRANCH  25  26
ATOM     26  O   UNL     1     -37.530  17.419   0.379  0.00  0.00    -0.377 OA
ATOM     27  H   UNL     1     -38.134  17.616   1.112  0.00  0.00    +0.211 HD
ENDBRANCH  25  26
ENDBRANCH  10  25
TORSDOF 6
ENDMDL
MODEL 4
REMARK VINA RESULT:      -6.0      2.780      6.603
REMARK  Name = 56950231
REMARK  6 active torsions:
REMARK  status: ('A' for Active; 'I' for Inactive)
REMARK    1  A    between atoms: C_7  and  O_17
REMARK    2  A    between atoms: C_10  and  C_25
REMARK    3  A    between atoms: C_12  and  O_19
REMARK    4  A    between atoms: C_13  and  O_21
REMARK    5  A    between atoms: C_15  and  O_23
REMARK    6  A    between atoms: C_25  and  O_26
REMARK                            x       y       z     vdW  Elec       q    Type
REMARK                         _______ _______ _______ _____ _____    ______ ____
ROOT
ATOM      1  O   UNL     1     -34.491  26.891   4.930  0.00  0.00    -0.286 OA
ATOM      2  O   UNL     1     -37.023  23.606   1.561  0.00  0.00    -0.286 OA
ATOM      3  C   UNL     1     -35.647  26.650   2.881  0.00  0.00    +0.076 C 
ATOM      4  C   UNL     1     -36.306  25.780   2.010  0.00  0.00    +0.048 C 
ATOM      5  C   UNL     1     -35.869  23.848   3.609  0.00  0.00    +0.079 C 
ATOM      6  C   UNL     1     -35.208  24.718   4.480  0.00  0.00    +0.045 C 
ATOM      7  C   UNL     1     -35.527  28.006   2.556  0.00  0.00    +0.143 C 
ATOM      8  C   UNL     1     -35.074  26.150   4.148  0.00  0.00    +0.199 C 
ATOM      9  C   UNL     1     -36.441  24.347   2.342  0.00  0.00    +0.199 C 
ATOM     10  C   UNL     1     -36.066  28.487   1.362  0.00  0.00    +0.075 C 
ATOM     11  C   UNL     1     -36.844  26.266   0.813  0.00  0.00    +0.040 C 
ATOM     12  C   UNL     1     -36.723  27.619   0.492  0.00  0.00    +0.135 C 
ATOM     13  C   UNL     1     -35.991  22.492   3.936  0.00  0.00    +0.171 C 
ATOM     14  C   UNL     1     -34.672  24.232   5.678  0.00  0.00    +0.007 C 
ATOM     15  C   UNL     1     -35.453  22.012   5.131  0.00  0.00    +0.168 C 
ATOM     16  C   UNL     1     -34.795  22.880   6.000  0.00  0.00    +0.040 C 
ENDROOT
BRANCH   7  17
ATOM     17  O   UNL     1     -34.892  28.895   3.375  0.00  0.00    -0.471 OA
ATOM     18  C   UNL     1     -33.560  29.259   3.021  0.00  0.00    +0.252 C 
ENDBRANCH   7  17
BRANCH  12  19
ATOM     19  O   UNL     1     -37.254  28.073  -0.678  0.00  0.00    -0.506 OA
ATOM     20  H   UNL     1     -38.183  28.081  -0.799  0.00  0.00    +0.292 HD
ENDBRANCH  12  19
BRANCH  13  21
ATOM     21  O   UNL     1     -36.625  21.600   3.122  0.00  0.00    -0.503 OA
ATOM     22  H   UNL     1     -37.443  21.225   3.384  0.00  0.00    +0.292 HD
ENDBRANCH  13  21
BRANCH  15  23
ATOM     23  O   UNL     1     -35.563  20.696   5.464  0.00  0.00    -0.503 OA
ATOM     24  H   UNL     1     -36.288  20.401   5.980  0.00  0.00    +0.292 HD
ENDBRANCH  15  23
BRANCH  10  25
ATOM     25  C   UNL     1     -35.942  29.935   1.009  0.00  0.00    +0.170 C 
BRANCH  25  26
ATOM     26  O   UNL     1     -36.688  30.709   1.938  0.00  0.00    -0.377 OA
ATOM     27  H   UNL     1     -36.081  31.242   2.477  0.00  0.00    +0.211 HD
ENDBRANCH  25  26
ENDBRANCH  10  25
TORSDOF 6
ENDMDL
MODEL 5
REMARK VINA RESULT:      -5.8      2.303      6.708
REMARK  Name = 56950231
REMARK  6 active torsions:
REMARK  status: ('A' for Active; 'I' for Inactive)
REMARK    1  A    between atoms: C_7  and  O_17
REMARK    2  A    between atoms: C_10  and  C_25
REMARK    3  A    between atoms: C_12  and  O_19
REMARK    4  A    between atoms: C_13  and  O_21
REMARK    5  A    between atoms: C_15  and  O_23
REMARK    6  A    between atoms: C_25  and  O_26
REMARK                            x       y       z     vdW  Elec       q    Type
REMARK                         _______ _______ _______ _____ _____    ______ ____
ROOT
ATOM      1  O   UNL     1     -33.190  23.959   0.223  0.00  0.00    -0.286 OA
ATOM      2  O   UNL     1     -36.765  22.142   3.755  0.00  0.00    -0.286 OA
ATOM      3  C   UNL     1     -34.530  24.427   2.115  0.00  0.00    +0.076 C 
ATOM      4  C   UNL     1     -35.464  23.939   3.031  0.00  0.00    +0.048 C 
ATOM      5  C   UNL     1     -35.424  21.675   1.866  0.00  0.00    +0.079 C 
ATOM      6  C   UNL     1     -34.490  22.164   0.948  0.00  0.00    +0.045 C 
ATOM      7  C   UNL     1     -34.081  25.749   2.212  0.00  0.00    +0.143 C 
ATOM      8  C   UNL     1     -34.009  23.557   1.040  0.00  0.00    +0.199 C 
ATOM      9  C   UNL     1     -35.945  22.545   2.939  0.00  0.00    +0.199 C 
ATOM     10  C   UNL     1     -34.567  26.577   3.225  0.00  0.00    +0.075 C 
ATOM     11  C   UNL     1     -35.951  24.773   4.043  0.00  0.00    +0.040 C 
ATOM     12  C   UNL     1     -35.500  26.090   4.138  0.00  0.00    +0.135 C 
ATOM     13  C   UNL     1     -35.871  20.352   1.769  0.00  0.00    +0.171 C 
ATOM     14  C   UNL     1     -34.003  21.329  -0.064  0.00  0.00    +0.007 C 
ATOM     15  C   UNL     1     -35.383  19.523   0.757  0.00  0.00    +0.168 C 
ATOM     16  C   UNL     1     -34.451  20.011  -0.157  0.00  0.00    +0.040 C 
ENDROOT
BRANCH   7  17
ATOM     17  O   UNL     1     -33.169  26.271   1.341  0.00  0.00    -0.471 OA
ATOM     18  C   UNL     1     -31.816  26.338   1.786  0.00  0.00    +0.252 C 
ENDBRANCH   7  17
BRANCH  12  19
ATOM     19  O   UNL     1     -35.985  26.887   5.132  0.00  0.00    -0.506 OA
ATOM     20  H   UNL     1     -36.887  26.829   5.381  0.00  0.00    +0.292 HD
ENDBRANCH  12  19
BRANCH  13  21
ATOM     21  O   UNL     1     -36.781  19.825   2.637  0.00  0.00    -0.503 OA
ATOM     22  H   UNL     1     -37.563  19.423   2.310  0.00  0.00    +0.292 HD
ENDBRANCH  13  21
BRANCH  15  23
ATOM     23  O   UNL     1     -35.808  18.234   0.649  0.00  0.00    -0.503 OA
ATOM     24  H   UNL     1     -35.184  17.534   0.633  0.00  0.00    +0.292 HD
ENDBRANCH  15  23
BRANCH  10  25
ATOM     25  C   UNL     1     -34.091  27.991   3.335  0.00  0.00    +0.170 C 
BRANCH  25  26
ATOM     26  O   UNL     1     -35.209  28.866   3.298  0.00  0.00    -0.377 OA
ATOM     27  H   UNL     1     -34.924  29.745   3.003  0.00  0.00    +0.211 HD
ENDBRANCH  25  26
ENDBRANCH  10  25
TORSDOF 6
ENDMDL
MODEL 6
REMARK VINA RESULT:      -5.7      2.583      4.024
REMARK  Name = 56950231
REMARK  6 active torsions:
REMARK  status: ('A' for Active; 'I' for Inactive)
REMARK    1  A    between atoms: C_7  and  O_17
REMARK    2  A    between atoms: C_10  and  C_25
REMARK    3  A    between atoms: C_12  and  O_19
REMARK    4  A    between atoms: C_13  and  O_21
REMARK    5  A    between atoms: C_15  and  O_23
REMARK    6  A    between atoms: C_25  and  O_26
REMARK                            x       y       z     vdW  Elec       q    Type
REMARK                         _______ _______ _______ _____ _____    ______ ____
ROOT
ATOM      1  O   UNL     1     -34.147  23.018   0.708  0.00  0.00    -0.286 OA
ATOM      2  O   UNL     1     -37.766  24.785   4.221  0.00  0.00    -0.286 OA
ATOM      3  C   UNL     1     -36.320  22.782   1.612  0.00  0.00    +0.076 C 
ATOM      4  C   UNL     1     -37.256  23.254   2.535  0.00  0.00    +0.048 C 
ATOM      5  C   UNL     1     -35.596  25.021   3.315  0.00  0.00    +0.079 C 
ATOM      6  C   UNL     1     -34.659  24.548   2.392  0.00  0.00    +0.045 C 
ATOM      7  C   UNL     1     -36.643  21.706   0.778  0.00  0.00    +0.143 C 
ATOM      8  C   UNL     1     -34.987  23.412   1.508  0.00  0.00    +0.199 C 
ATOM      9  C   UNL     1     -36.927  24.391   3.420  0.00  0.00    +0.199 C 
ATOM     10  C   UNL     1     -37.899  21.106   0.870  0.00  0.00    +0.075 C 
ATOM     11  C   UNL     1     -38.514  22.649   2.625  0.00  0.00    +0.040 C 
ATOM     12  C   UNL     1     -38.833  21.576   1.791  0.00  0.00    +0.135 C 
ATOM     13  C   UNL     1     -35.273  26.099   4.147  0.00  0.00    +0.171 C 
ATOM     14  C   UNL     1     -33.401  25.154   2.302  0.00  0.00    +0.007 C 
ATOM     15  C   UNL     1     -34.017  26.700   4.054  0.00  0.00    +0.168 C 
ATOM     16  C   UNL     1     -33.083  26.229   3.133  0.00  0.00    +0.040 C 
ENDROOT
BRANCH   7  17
ATOM     17  O   UNL     1     -35.762  21.209  -0.139  0.00  0.00    -0.471 OA
ATOM     18  C   UNL     1     -35.970  21.580  -1.500  0.00  0.00    +0.252 C 
ENDBRANCH   7  17
BRANCH  12  19
ATOM     19  O   UNL     1     -40.064  21.000   1.894  0.00  0.00    -0.506 OA
ATOM     20  H   UNL     1     -40.267  20.235   1.392  0.00  0.00    +0.292 HD
ENDBRANCH  12  19
BRANCH  13  21
ATOM     21  O   UNL     1     -36.149  26.600   5.065  0.00  0.00    -0.503 OA
ATOM     22  H   UNL     1     -37.028  26.805   4.810  0.00  0.00    +0.292 HD
ENDBRANCH  13  21
BRANCH  15  23
ATOM     23  O   UNL     1     -33.687  27.750   4.857  0.00  0.00    -0.503 OA
ATOM     24  H   UNL     1     -33.226  27.600   5.659  0.00  0.00    +0.292 HD
ENDBRANCH  15  23
BRANCH  10  25
ATOM     25  C   UNL     1     -38.251  19.955  -0.019  0.00  0.00    +0.170 C 
BRANCH  25  26
ATOM     26  O   UNL     1     -37.503  18.813   0.376  0.00  0.00    -0.377 OA
ATOM     27  H   UNL     1     -36.697  18.753  -0.160  0.00  0.00    +0.211 HD
ENDBRANCH  25  26
ENDBRANCH  10  25
TORSDOF 6
ENDMDL
MODEL 7
REMARK VINA RESULT:      -5.7      4.017      6.204
REMARK  Name = 56950231
REMARK  6 active torsions:
REMARK  status: ('A' for Active; 'I' for Inactive)
REMARK    1  A    between atoms: C_7  and  O_17
REMARK    2  A    between atoms: C_10  and  C_25
REMARK    3  A    between atoms: C_12  and  O_19
REMARK    4  A    between atoms: C_13  and  O_21
REMARK    5  A    between atoms: C_15  and  O_23
REMARK    6  A    between atoms: C_25  and  O_26
REMARK                            x       y       z     vdW  Elec       q    Type
REMARK                         _______ _______ _______ _____ _____    ______ ____
ROOT
ATOM      1  O   UNL     1     -37.161  21.000   2.248  0.00  0.00    -0.286 OA
ATOM      2  O   UNL     1     -38.811  26.017   3.061  0.00  0.00    -0.286 OA
ATOM      3  C   UNL     1     -38.746  22.678   1.736  0.00  0.00    +0.076 C 
ATOM      4  C   UNL     1     -39.166  23.991   1.958  0.00  0.00    +0.048 C 
ATOM      5  C   UNL     1     -37.226  24.339   3.571  0.00  0.00    +0.079 C 
ATOM      6  C   UNL     1     -36.806  23.025   3.350  0.00  0.00    +0.045 C 
ATOM      7  C   UNL     1     -39.459  21.856   0.856  0.00  0.00    +0.143 C 
ATOM      8  C   UNL     1     -37.551  22.147   2.424  0.00  0.00    +0.199 C 
ATOM      9  C   UNL     1     -38.421  24.869   2.884  0.00  0.00    +0.199 C 
ATOM     10  C   UNL     1     -40.588  22.350   0.202  0.00  0.00    +0.075 C 
ATOM     11  C   UNL     1     -40.300  24.482   1.301  0.00  0.00    +0.040 C 
ATOM     12  C   UNL     1     -41.008  23.660   0.424  0.00  0.00    +0.135 C 
ATOM     13  C   UNL     1     -36.511  25.161   4.449  0.00  0.00    +0.171 C 
ATOM     14  C   UNL     1     -35.672  22.534   4.006  0.00  0.00    +0.007 C 
ATOM     15  C   UNL     1     -35.381  24.668   5.103  0.00  0.00    +0.168 C 
ATOM     16  C   UNL     1     -34.962  23.357   4.881  0.00  0.00    +0.040 C 
ENDROOT
BRANCH   7  17
ATOM     17  O   UNL     1     -39.088  20.566   0.607  0.00  0.00    -0.471 OA
ATOM     18  C   UNL     1     -38.382  20.321  -0.607  0.00  0.00    +0.252 C 
ENDBRANCH   7  17
BRANCH  12  19
ATOM     19  O   UNL     1     -42.109  24.156  -0.206  0.00  0.00    -0.506 OA
ATOM     20  H   UNL     1     -42.790  24.566   0.292  0.00  0.00    +0.292 HD
ENDBRANCH  12  19
BRANCH  13  21
ATOM     21  O   UNL     1     -36.877  26.451   4.702  0.00  0.00    -0.503 OA
ATOM     22  H   UNL     1     -37.777  26.706   4.627  0.00  0.00    +0.292 HD
ENDBRANCH  13  21
BRANCH  15  23
ATOM     23  O   UNL     1     -34.674  25.455   5.961  0.00  0.00    -0.503 OA
ATOM     24  H   UNL     1     -35.120  26.076   6.502  0.00  0.00    +0.292 HD
ENDBRANCH  15  23
BRANCH  10  25
ATOM     25  C   UNL     1     -41.354  21.476  -0.740  0.00  0.00    +0.170 C 
BRANCH  25  26
ATOM     26  O   UNL     1     -41.971  20.426  -0.009  0.00  0.00    -0.377 OA
ATOM     27  H   UNL     1     -41.591  20.386   0.883  0.00  0.00    +0.211 HD
ENDBRANCH  25  26
ENDBRANCH  10  25
TORSDOF 6
ENDMDL
MODEL 8
REMARK VINA RESULT:      -5.6      2.805      7.034
REMARK  Name = 56950231
REMARK  6 active torsions:
REMARK  status: ('A' for Active; 'I' for Inactive)
REMARK    1  A    between atoms: C_7  and  O_17
REMARK    2  A    between atoms: C_10  and  C_25
REMARK    3  A    between atoms: C_12  and  O_19
REMARK    4  A    between atoms: C_13  and  O_21
REMARK    5  A    between atoms: C_15  and  O_23
REMARK    6  A    between atoms: C_25  and  O_26
REMARK                            x       y       z     vdW  Elec       q    Type
REMARK                         _______ _______ _______ _____ _____    ______ ____
ROOT
ATOM      1  O   UNL     1     -35.758  20.767   3.518  0.00  0.00    -0.286 OA
ATOM      2  O   UNL     1     -33.654  23.938  -0.234  0.00  0.00    -0.286 OA
ATOM      3  C   UNL     1     -35.138  22.961   2.889  0.00  0.00    +0.076 C 
ATOM      4  C   UNL     1     -34.586  23.778   1.899  0.00  0.00    +0.048 C 
ATOM      5  C   UNL     1     -34.276  21.747   0.396  0.00  0.00    +0.079 C 
ATOM      6  C   UNL     1     -34.827  20.929   1.386  0.00  0.00    +0.045 C 
ATOM      7  C   UNL     1     -35.563  23.520   4.099  0.00  0.00    +0.143 C 
ATOM      8  C   UNL     1     -35.278  21.506   2.668  0.00  0.00    +0.199 C 
ATOM      9  C   UNL     1     -34.135  23.200   0.617  0.00  0.00    +0.199 C 
ATOM     10  C   UNL     1     -35.435  24.893   4.316  0.00  0.00    +0.075 C 
ATOM     11  C   UNL     1     -34.458  25.153   2.121  0.00  0.00    +0.040 C 
ATOM     12  C   UNL     1     -34.883  25.708   3.329  0.00  0.00    +0.135 C 
ATOM     13  C   UNL     1     -33.853  21.187  -0.816  0.00  0.00    +0.171 C 
ATOM     14  C   UNL     1     -34.956  19.554   1.163  0.00  0.00    +0.007 C 
ATOM     15  C   UNL     1     -33.983  19.814  -1.033  0.00  0.00    +0.168 C 
ATOM     16  C   UNL     1     -34.533  19.000  -0.045  0.00  0.00    +0.040 C 
ENDROOT
BRANCH   7  17
ATOM     17  O   UNL     1     -36.108  22.763   5.096  0.00  0.00    -0.471 OA
ATOM     18  C   UNL     1     -35.249  22.401   6.174  0.00  0.00    +0.252 C 
ENDBRANCH   7  17
BRANCH  12  19
ATOM     19  O   UNL     1     -34.751  27.049   3.526  0.00  0.00    -0.506 OA
ATOM     20  H   UNL     1     -35.512  27.595   3.568  0.00  0.00    +0.292 HD
ENDBRANCH  12  19
BRANCH  13  21
ATOM     21  O   UNL     1     -33.308  21.939  -1.815  0.00  0.00    -0.503 OA
ATOM     22  H   UNL     1     -33.426  21.686  -2.711  0.00  0.00    +0.292 HD
ENDBRANCH  13  21
BRANCH  15  23
ATOM     23  O   UNL     1     -33.576  19.254  -2.206  0.00  0.00    -0.503 OA
ATOM     24  H   UNL     1     -33.236  18.381  -2.216  0.00  0.00    +0.292 HD
ENDBRANCH  15  23
BRANCH  10  25
ATOM     25  C   UNL     1     -35.888  25.496   5.607  0.00  0.00    +0.170 C 
BRANCH  25  26
ATOM     26  O   UNL     1     -36.713  26.620   5.335  0.00  0.00    -0.377 OA
ATOM     27  H   UNL     1     -36.161  27.365   5.049  0.00  0.00    +0.211 HD
ENDBRANCH  25  26
ENDBRANCH  10  25
TORSDOF 6
ENDMDL
MODEL 9
REMARK VINA RESULT:      -5.6     11.123     13.618
REMARK  Name = 56950231
REMARK  6 active torsions:
REMARK  status: ('A' for Active; 'I' for Inactive)
REMARK    1  A    between atoms: C_7  and  O_17
REMARK    2  A    between atoms: C_10  and  C_25
REMARK    3  A    between atoms: C_12  and  O_19
REMARK    4  A    between atoms: C_13  and  O_21
REMARK    5  A    between atoms: C_15  and  O_23
REMARK    6  A    between atoms: C_25  and  O_26
REMARK                            x       y       z     vdW  Elec       q    Type
REMARK                         _______ _______ _______ _____ _____    ______ ____
ROOT
ATOM      1  O   UNL     1     -47.360  26.386   7.227  0.00  0.00    -0.286 OA
ATOM      2  O   UNL     1     -44.147  27.169   3.029  0.00  0.00    -0.286 OA
ATOM      3  C   UNL     1     -45.667  27.709   6.239  0.00  0.00    +0.076 C 
ATOM      4  C   UNL     1     -44.833  27.902   5.136  0.00  0.00    +0.048 C 
ATOM      5  C   UNL     1     -45.841  25.849   4.016  0.00  0.00    +0.079 C 
ATOM      6  C   UNL     1     -46.675  25.655   5.121  0.00  0.00    +0.045 C 
ATOM      7  C   UNL     1     -45.605  28.591   7.324  0.00  0.00    +0.143 C 
ATOM      8  C   UNL     1     -46.618  26.578   6.272  0.00  0.00    +0.199 C 
ATOM      9  C   UNL     1     -44.890  26.978   3.984  0.00  0.00    +0.199 C 
ATOM     10  C   UNL     1     -44.710  29.662   7.301  0.00  0.00    +0.075 C 
ATOM     11  C   UNL     1     -43.936  28.975   5.117  0.00  0.00    +0.040 C 
ATOM     12  C   UNL     1     -43.877  29.853   6.200  0.00  0.00    +0.135 C 
ATOM     13  C   UNL     1     -45.906  24.967   2.930  0.00  0.00    +0.171 C 
ATOM     14  C   UNL     1     -47.572  24.582   5.138  0.00  0.00    +0.007 C 
ATOM     15  C   UNL     1     -46.802  23.898   2.953  0.00  0.00    +0.168 C 
ATOM     16  C   UNL     1     -47.633  23.706   4.054  0.00  0.00    +0.040 C 
ENDROOT
BRANCH   7  17
ATOM     17  O   UNL     1     -46.398  28.444   8.424  0.00  0.00    -0.471 OA
ATOM     18  C   UNL     1     -47.538  29.296   8.516  0.00  0.00    +0.252 C 
ENDBRANCH   7  17
BRANCH  12  19
ATOM     19  O   UNL     1     -42.997  30.893   6.164  0.00  0.00    -0.506 OA
ATOM     20  H   UNL     1     -42.433  31.004   5.424  0.00  0.00    +0.292 HD
ENDBRANCH  12  19
BRANCH  13  21
ATOM     21  O   UNL     1     -45.115  25.110   1.828  0.00  0.00    -0.503 OA
ATOM     22  H   UNL     1     -45.504  25.248   0.986  0.00  0.00    +0.292 HD
ENDBRANCH  13  21
BRANCH  15  23
ATOM     23  O   UNL     1     -46.877  23.031   1.905  0.00  0.00    -0.503 OA
ATOM     24  H   UNL     1     -47.561  22.390   1.874  0.00  0.00    +0.292 HD
ENDBRANCH  15  23
BRANCH  10  25
ATOM     25  C   UNL     1     -44.639  30.608   8.457  0.00  0.00    +0.170 C 
BRANCH  25  26
ATOM     26  O   UNL     1     -43.291  30.715   8.893  0.00  0.00    -0.377 OA
ATOM     27  H   UNL     1     -42.764  31.160   8.211  0.00  0.00    +0.211 HD
ENDBRANCH  25  26
ENDBRANCH  10  25
TORSDOF 6
ENDMDL
