MODEL 1
REMARK VINA RESULT:      -7.4      0.000      0.000
REMARK  Name = 53347902
REMARK  5 active torsions:
REMARK  status: ('A' for Active; 'I' for Inactive)
REMARK    1  A    between atoms: C_5  and  C_11
REMARK    2  A    between atoms: C_7  and  C_26
REMARK    3  A    between atoms: N_10  and  S_16
REMARK    4  A    between atoms: S_16  and  C_19
REMARK    5  A    between atoms: C_31  and  O_32
REMARK                            x       y       z     vdW  Elec       q    Type
REMARK                         _______ _______ _______ _____ _____    ______ ____
ROOT
ATOM      1  S   UNL     1     -39.964  26.476   0.298  0.00  0.00    -0.059 S 
ATOM      2  O   UNL     1     -37.989  24.728   4.178  0.00  0.00    -0.273 OA
ATOM      3  N   UNL     1     -38.214  25.279   1.901  0.00  0.00    -0.253 N 
ATOM      4  N   UNL     1     -40.298  26.158   2.842  0.00  0.00    -0.384 NA
ATOM      5  C   UNL     1     -37.586  24.745   3.020  0.00  0.00    +0.244 C 
ATOM      6  C   UNL     1     -39.470  25.927   1.847  0.00  0.00    +0.213 C 
ATOM      7  C   UNL     1     -41.410  26.817   2.353  0.00  0.00    +0.122 C 
ATOM      8  C   UNL     1     -41.410  27.075   0.998  0.00  0.00    +0.125 C 
ATOM      9  H   UNL     1     -37.729  25.196   1.049  0.00  0.00    +0.158 HD
ENDROOT
BRANCH   5  11
ATOM     10  N   UNL     1     -36.460  22.673   2.846  0.00  0.00    -0.148 NA
ATOM     11  C   UNL     1     -36.268  24.139   2.659  0.00  0.00    +0.156 C 
ATOM     12  C   UNL     1     -35.130  24.709   3.498  0.00  0.00    +0.027 C 
ATOM     13  C   UNL     1     -35.149  24.262   4.960  0.00  0.00    +0.003 C 
ATOM     14  C   UNL     1     -35.555  22.029   3.836  0.00  0.00    +0.096 C 
ATOM     15  C   UNL     1     -35.599  22.813   5.140  0.00  0.00    +0.019 C 
BRANCH  10  16
ATOM     16  S   UNL     1     -36.821  21.758   1.449  0.00  0.00    +0.064 S 
ATOM     17  O   UNL     1     -37.184  22.665   0.386  0.00  0.00    -0.153 OA
ATOM     18  O   UNL     1     -37.676  20.659   1.829  0.00  0.00    -0.153 OA
BRANCH  16  19
ATOM     19  C   UNL     1     -35.219  21.112   1.095  0.00  0.00    +0.122 C 
ATOM     20  C   UNL     1     -34.292  21.887   0.400  0.00  0.00    +0.020 C 
ATOM     21  C   UNL     1     -34.880  19.823   1.509  0.00  0.00    +0.020 C 
ATOM     22  C   UNL     1     -33.026  21.375   0.117  0.00  0.00    -0.003 C 
ATOM     23  C   UNL     1     -33.615  19.311   1.226  0.00  0.00    -0.003 C 
ATOM     24  C   UNL     1     -32.687  20.086   0.530  0.00  0.00    -0.022 C 
ATOM     25  C   UNL     1     -31.333  19.539   0.229  0.00  0.00    +0.031 C 
ENDBRANCH  16  19
ENDBRANCH  10  16
ENDBRANCH   5  11
BRANCH   7  26
ATOM     26  C   UNL     1     -42.492  27.202   3.212  0.00  0.00    +0.027 C 
ATOM     27  C   UNL     1     -43.674  26.461   3.224  0.00  0.00    +0.005 C 
ATOM     28  C   UNL     1     -42.363  28.321   4.036  0.00  0.00    +0.005 C 
ATOM     29  C   UNL     1     -44.726  26.838   4.058  0.00  0.00    +0.037 C 
ATOM     30  C   UNL     1     -43.415  28.699   4.870  0.00  0.00    +0.037 C 
ATOM     31  C   UNL     1     -44.596  27.957   4.881  0.00  0.00    +0.139 C 
BRANCH  31  32
ATOM     32  O   UNL     1     -45.623  28.326   5.696  0.00  0.00    -0.471 OA
ATOM     33  C   UNL     1     -45.299  29.139   6.822  0.00  0.00    +0.252 C 
ENDBRANCH  31  32
ENDBRANCH   7  26
TORSDOF 5
ENDMDL
MODEL 2
REMARK VINA RESULT:      -7.2      2.927      4.458
REMARK  Name = 53347902
REMARK  5 active torsions:
REMARK  status: ('A' for Active; 'I' for Inactive)
REMARK    1  A    between atoms: C_5  and  C_11
REMARK    2  A    between atoms: C_7  and  C_26
REMARK    3  A    between atoms: N_10  and  S_16
REMARK    4  A    between atoms: S_16  and  C_19
REMARK    5  A    between atoms: C_31  and  O_32
REMARK                            x       y       z     vdW  Elec       q    Type
REMARK                         _______ _______ _______ _____ _____    ______ ____
ROOT
ATOM      1  S   UNL     1     -43.889  25.503   1.240  0.00  0.00    -0.059 S 
ATOM      2  O   UNL     1     -39.519  26.345   2.727  0.00  0.00    -0.273 OA
ATOM      3  N   UNL     1     -41.233  25.488   1.361  0.00  0.00    -0.253 N 
ATOM      4  N   UNL     1     -42.507  26.689   3.074  0.00  0.00    -0.384 NA
ATOM      5  C   UNL     1     -39.920  25.707   1.759  0.00  0.00    +0.244 C 
ATOM      6  C   UNL     1     -42.412  25.954   1.989  0.00  0.00    +0.213 C 
ATOM      7  C   UNL     1     -43.842  26.919   3.343  0.00  0.00    +0.122 C 
ATOM      8  C   UNL     1     -44.740  26.355   2.460  0.00  0.00    +0.125 C 
ATOM      9  H   UNL     1     -41.357  24.945   0.549  0.00  0.00    +0.158 HD
ENDROOT
BRANCH   5  11
ATOM     10  N   UNL     1     -37.639  25.137   1.515  0.00  0.00    -0.148 NA
ATOM     11  C   UNL     1     -38.958  25.040   0.830  0.00  0.00    +0.156 C 
ATOM     12  C   UNL     1     -38.965  25.680  -0.554  0.00  0.00    +0.027 C 
ATOM     13  C   UNL     1     -38.337  27.073  -0.600  0.00  0.00    +0.003 C 
ATOM     14  C   UNL     1     -36.580  25.868   0.769  0.00  0.00    +0.096 C 
ATOM     15  C   UNL     1     -37.124  27.216   0.318  0.00  0.00    +0.019 C 
BRANCH  10  16
ATOM     16  S   UNL     1     -37.128  23.768   2.401  0.00  0.00    +0.064 S 
ATOM     17  O   UNL     1     -36.309  22.944   1.544  0.00  0.00    -0.153 OA
ATOM     18  O   UNL     1     -38.266  23.227   3.106  0.00  0.00    -0.153 OA
BRANCH  16  19
ATOM     19  C   UNL     1     -36.074  24.552   3.578  0.00  0.00    +0.122 C 
ATOM     20  C   UNL     1     -36.621  25.370   4.566  0.00  0.00    +0.020 C 
ATOM     21  C   UNL     1     -34.694  24.356   3.518  0.00  0.00    +0.020 C 
ATOM     22  C   UNL     1     -35.788  25.993   5.496  0.00  0.00    -0.003 C 
ATOM     23  C   UNL     1     -33.862  24.979   4.447  0.00  0.00    -0.003 C 
ATOM     24  C   UNL     1     -34.408  25.797   5.436  0.00  0.00    -0.022 C 
ATOM     25  C   UNL     1     -33.517  26.463   6.430  0.00  0.00    +0.031 C 
ENDBRANCH  16  19
ENDBRANCH  10  16
ENDBRANCH   5  11
BRANCH   7  26
ATOM     26  C   UNL     1     -44.258  27.697   4.474  0.00  0.00    +0.027 C 
ATOM     27  C   UNL     1     -45.262  27.223   5.318  0.00  0.00    +0.005 C 
ATOM     28  C   UNL     1     -43.658  28.930   4.729  0.00  0.00    +0.005 C 
ATOM     29  C   UNL     1     -45.667  27.980   6.417  0.00  0.00    +0.037 C 
ATOM     30  C   UNL     1     -44.062  29.689   5.828  0.00  0.00    +0.037 C 
ATOM     31  C   UNL     1     -45.067  29.214   6.671  0.00  0.00    +0.139 C 
BRANCH  31  32
ATOM     32  O   UNL     1     -45.461  29.955   7.743  0.00  0.00    -0.471 OA
ATOM     33  C   UNL     1     -44.437  30.592   8.504  0.00  0.00    +0.252 C 
ENDBRANCH  31  32
ENDBRANCH   7  26
TORSDOF 5
ENDMDL
MODEL 3
REMARK VINA RESULT:      -7.1      5.047      8.807
REMARK  Name = 53347902
REMARK  5 active torsions:
REMARK  status: ('A' for Active; 'I' for Inactive)
REMARK    1  A    between atoms: C_5  and  C_11
REMARK    2  A    between atoms: C_7  and  C_26
REMARK    3  A    between atoms: N_10  and  S_16
REMARK    4  A    between atoms: S_16  and  C_19
REMARK    5  A    between atoms: C_31  and  O_32
REMARK                            x       y       z     vdW  Elec       q    Type
REMARK                         _______ _______ _______ _____ _____    ______ ____
ROOT
ATOM      1  S   UNL     1     -34.811  31.184   2.865  0.00  0.00    -0.059 S 
ATOM      2  O   UNL     1     -35.221  26.557   2.210  0.00  0.00    -0.273 OA
ATOM      3  N   UNL     1     -35.761  28.841   2.045  0.00  0.00    -0.253 N 
ATOM      4  N   UNL     1     -33.717  28.903   3.393  0.00  0.00    -0.384 NA
ATOM      5  C   UNL     1     -35.929  27.480   1.822  0.00  0.00    +0.244 C 
ATOM      6  C   UNL     1     -34.728  29.473   2.776  0.00  0.00    +0.213 C 
ATOM      7  C   UNL     1     -32.943  29.884   3.983  0.00  0.00    +0.122 C 
ATOM      8  C   UNL     1     -33.378  31.181   3.807  0.00  0.00    +0.125 C 
ATOM      9  H   UNL     1     -36.440  29.434   1.649  0.00  0.00    +0.158 HD
ENDROOT
BRANCH   5  11
ATOM     10  N   UNL     1     -37.356  25.743   1.092  0.00  0.00    -0.148 NA
ATOM     11  C   UNL     1     -37.151  27.215   1.003  0.00  0.00    +0.156 C 
ATOM     12  C   UNL     1     -36.996  27.716  -0.430  0.00  0.00    +0.027 C 
ATOM     13  C   UNL     1     -36.022  26.896  -1.274  0.00  0.00    +0.003 C 
ATOM     14  C   UNL     1     -37.333  25.012  -0.203  0.00  0.00    +0.096 C 
ATOM     15  C   UNL     1     -36.079  25.399  -0.974  0.00  0.00    +0.019 C 
BRANCH  10  16
ATOM     16  S   UNL     1     -38.488  25.191   2.248  0.00  0.00    +0.064 S 
ATOM     17  O   UNL     1     -39.369  24.240   1.613  0.00  0.00    -0.153 OA
ATOM     18  O   UNL     1     -39.003  26.333   2.967  0.00  0.00    -0.153 OA
BRANCH  16  19
ATOM     19  C   UNL     1     -37.407  24.306   3.323  0.00  0.00    +0.122 C 
ATOM     20  C   UNL     1     -36.900  24.924   4.465  0.00  0.00    +0.020 C 
ATOM     21  C   UNL     1     -37.055  22.988   3.028  0.00  0.00    +0.020 C 
ATOM     22  C   UNL     1     -36.042  24.225   5.315  0.00  0.00    -0.003 C 
ATOM     23  C   UNL     1     -36.198  22.290   3.877  0.00  0.00    -0.003 C 
ATOM     24  C   UNL     1     -35.691  22.907   5.020  0.00  0.00    -0.022 C 
ATOM     25  C   UNL     1     -34.774  22.159   5.928  0.00  0.00    +0.031 C 
ENDBRANCH  16  19
ENDBRANCH  10  16
ENDBRANCH   5  11
BRANCH   7  26
ATOM     26  C   UNL     1     -31.763  29.561   4.731  0.00  0.00    +0.027 C 
ATOM     27  C   UNL     1     -31.691  29.865   6.091  0.00  0.00    +0.005 C 
ATOM     28  C   UNL     1     -30.684  28.943   4.098  0.00  0.00    +0.005 C 
ATOM     29  C   UNL     1     -30.543  29.552   6.817  0.00  0.00    +0.037 C 
ATOM     30  C   UNL     1     -29.535  28.630   4.823  0.00  0.00    +0.037 C 
ATOM     31  C   UNL     1     -29.464  28.935   6.182  0.00  0.00    +0.139 C 
BRANCH  31  32
ATOM     32  O   UNL     1     -28.343  28.629   6.891  0.00  0.00    -0.471 OA
ATOM     33  C   UNL     1     -28.015  29.480   7.988  0.00  0.00    +0.252 C 
ENDBRANCH  31  32
ENDBRANCH   7  26
TORSDOF 5
ENDMDL
MODEL 4
REMARK VINA RESULT:      -7.1      4.432      4.900
REMARK  Name = 53347902
REMARK  5 active torsions:
REMARK  status: ('A' for Active; 'I' for Inactive)
REMARK    1  A    between atoms: C_5  and  C_11
REMARK    2  A    between atoms: C_7  and  C_26
REMARK    3  A    between atoms: N_10  and  S_16
REMARK    4  A    between atoms: S_16  and  C_19
REMARK    5  A    between atoms: C_31  and  O_32
REMARK                            x       y       z     vdW  Elec       q    Type
REMARK                         _______ _______ _______ _____ _____    ______ ____
ROOT
ATOM      1  S   UNL     1     -34.085  29.408   0.558  0.00  0.00    -0.059 S 
ATOM      2  O   UNL     1     -37.061  26.445   2.648  0.00  0.00    -0.273 OA
ATOM      3  N   UNL     1     -35.055  27.201   1.678  0.00  0.00    -0.253 N 
ATOM      4  N   UNL     1     -36.488  29.179   1.482  0.00  0.00    -0.384 NA
ATOM      5  C   UNL     1     -35.897  26.285   2.296  0.00  0.00    +0.244 C 
ATOM      6  C   UNL     1     -35.355  28.534   1.311  0.00  0.00    +0.213 C 
ATOM      7  C   UNL     1     -36.353  30.460   0.982  0.00  0.00    +0.122 C 
ATOM      8  C   UNL     1     -35.121  30.768   0.440  0.00  0.00    +0.125 C 
ATOM      9  H   UNL     1     -34.147  26.885   1.470  0.00  0.00    +0.158 HD
ENDROOT
BRANCH   5  11
ATOM     10  N   UNL     1     -36.266  24.066   3.023  0.00  0.00    -0.148 NA
ATOM     11  C   UNL     1     -35.206  24.977   2.509  0.00  0.00    +0.156 C 
ATOM     12  C   UNL     1     -34.016  25.109   3.455  0.00  0.00    +0.027 C 
ATOM     13  C   UNL     1     -34.403  25.358   4.912  0.00  0.00    +0.003 C 
ATOM     14  C   UNL     1     -36.014  23.481   4.367  0.00  0.00    +0.096 C 
ATOM     15  C   UNL     1     -35.657  24.596   5.339  0.00  0.00    +0.019 C 
BRANCH  10  16
ATOM     16  S   UNL     1     -37.016  23.037   1.883  0.00  0.00    +0.064 S 
ATOM     17  O   UNL     1     -37.298  23.799   0.690  0.00  0.00    -0.153 OA
ATOM     18  O   UNL     1     -38.046  22.280   2.556  0.00  0.00    -0.153 OA
BRANCH  16  19
ATOM     19  C   UNL     1     -35.673  21.949   1.535  0.00  0.00    +0.122 C 
ATOM     20  C   UNL     1     -34.707  22.312   0.597  0.00  0.00    +0.020 C 
ATOM     21  C   UNL     1     -35.577  20.724   2.196  0.00  0.00    +0.020 C 
ATOM     22  C   UNL     1     -33.646  21.451   0.318  0.00  0.00    -0.003 C 
ATOM     23  C   UNL     1     -34.517  19.864   1.918  0.00  0.00    -0.003 C 
ATOM     24  C   UNL     1     -33.551  20.226   0.980  0.00  0.00    -0.022 C 
ATOM     25  C   UNL     1     -32.415  19.306   0.683  0.00  0.00    +0.031 C 
ENDBRANCH  16  19
ENDBRANCH  10  16
ENDBRANCH   5  11
BRANCH   7  26
ATOM     26  C   UNL     1     -37.432  31.402   1.029  0.00  0.00    +0.027 C 
ATOM     27  C   UNL     1     -37.361  32.507   1.878  0.00  0.00    +0.005 C 
ATOM     28  C   UNL     1     -38.557  31.213   0.225  0.00  0.00    +0.005 C 
ATOM     29  C   UNL     1     -38.412  33.421   1.924  0.00  0.00    +0.037 C 
ATOM     30  C   UNL     1     -39.609  32.127   0.271  0.00  0.00    +0.037 C 
ATOM     31  C   UNL     1     -39.537  33.231   1.120  0.00  0.00    +0.139 C 
BRANCH  31  32
ATOM     32  O   UNL     1     -40.564  34.124   1.164  0.00  0.00    -0.471 OA
ATOM     33  C   UNL     1     -40.449  35.200   2.094  0.00  0.00    +0.252 C 
ENDBRANCH  31  32
ENDBRANCH   7  26
TORSDOF 5
ENDMDL
MODEL 5
REMARK VINA RESULT:      -7.0      5.041      5.898
REMARK  Name = 53347902
REMARK  5 active torsions:
REMARK  status: ('A' for Active; 'I' for Inactive)
REMARK    1  A    between atoms: C_5  and  C_11
REMARK    2  A    between atoms: C_7  and  C_26
REMARK    3  A    between atoms: N_10  and  S_16
REMARK    4  A    between atoms: S_16  and  C_19
REMARK    5  A    between atoms: C_31  and  O_32
REMARK                            x       y       z     vdW  Elec       q    Type
REMARK                         _______ _______ _______ _____ _____    ______ ____
ROOT
ATOM      1  S   UNL     1     -32.919  29.687   1.207  0.00  0.00    -0.059 S 
ATOM      2  O   UNL     1     -36.519  27.167   2.849  0.00  0.00    -0.273 OA
ATOM      3  N   UNL     1     -34.333  27.625   2.107  0.00  0.00    -0.253 N 
ATOM      4  N   UNL     1     -35.406  29.817   1.898  0.00  0.00    -0.384 NA
ATOM      5  C   UNL     1     -35.366  26.834   2.594  0.00  0.00    +0.244 C 
ATOM      6  C   UNL     1     -34.379  29.003   1.793  0.00  0.00    +0.213 C 
ATOM      7  C   UNL     1     -35.021  31.078   1.486  0.00  0.00    +0.122 C 
ATOM      8  C   UNL     1     -33.709  31.203   1.075  0.00  0.00    +0.125 C 
ATOM      9  H   UNL     1     -33.470  27.173   1.964  0.00  0.00    +0.158 HD
ENDROOT
BRANCH   5  11
ATOM     10  N   UNL     1     -36.120  24.707   3.299  0.00  0.00    -0.148 NA
ATOM     11  C   UNL     1     -34.916  25.423   2.793  0.00  0.00    +0.156 C 
ATOM     12  C   UNL     1     -33.722  25.334   3.739  0.00  0.00    +0.027 C 
ATOM     13  C   UNL     1     -34.061  25.631   5.199  0.00  0.00    +0.003 C 
ATOM     14  C   UNL     1     -35.977  24.074   4.637  0.00  0.00    +0.096 C 
ATOM     15  C   UNL     1     -35.429  25.098   5.620  0.00  0.00    +0.019 C 
BRANCH  10  16
ATOM     16  S   UNL     1     -37.040  23.838   2.149  0.00  0.00    +0.064 S 
ATOM     17  O   UNL     1     -37.127  24.623   0.941  0.00  0.00    -0.153 OA
ATOM     18  O   UNL     1     -38.220  23.322   2.801  0.00  0.00    -0.153 OA
BRANCH  16  19
ATOM     19  C   UNL     1     -35.943  22.490   1.850  0.00  0.00    +0.122 C 
ATOM     20  C   UNL     1     -34.959  22.597   0.868  0.00  0.00    +0.020 C 
ATOM     21  C   UNL     1     -36.062  21.315   2.594  0.00  0.00    +0.020 C 
ATOM     22  C   UNL     1     -34.093  21.530   0.628  0.00  0.00    -0.003 C 
ATOM     23  C   UNL     1     -35.197  20.249   2.354  0.00  0.00    -0.003 C 
ATOM     24  C   UNL     1     -34.212  20.355   1.372  0.00  0.00    -0.022 C 
ATOM     25  C   UNL     1     -33.286  19.215   1.116  0.00  0.00    +0.031 C 
ENDBRANCH  16  19
ENDBRANCH  10  16
ENDBRANCH   5  11
BRANCH   7  26
ATOM     26  C   UNL     1     -35.936  32.182   1.490  0.00  0.00    +0.027 C 
ATOM     27  C   UNL     1     -35.501  33.453   1.116  0.00  0.00    +0.005 C 
ATOM     28  C   UNL     1     -37.264  31.984   1.869  0.00  0.00    +0.005 C 
ATOM     29  C   UNL     1     -36.391  34.526   1.121  0.00  0.00    +0.037 C 
ATOM     30  C   UNL     1     -38.155  33.057   1.875  0.00  0.00    +0.037 C 
ATOM     31  C   UNL     1     -37.719  34.327   1.502  0.00  0.00    +0.139 C 
BRANCH  31  32
ATOM     32  O   UNL     1     -38.589  35.375   1.507  0.00  0.00    -0.471 OA
ATOM     33  C   UNL     1     -39.313  35.611   2.713  0.00  0.00    +0.252 C 
ENDBRANCH  31  32
ENDBRANCH   7  26
TORSDOF 5
ENDMDL
MODEL 6
REMARK VINA RESULT:      -7.0      2.440     10.377
REMARK  Name = 53347902
REMARK  5 active torsions:
REMARK  status: ('A' for Active; 'I' for Inactive)
REMARK    1  A    between atoms: C_5  and  C_11
REMARK    2  A    between atoms: C_7  and  C_26
REMARK    3  A    between atoms: N_10  and  S_16
REMARK    4  A    between atoms: S_16  and  C_19
REMARK    5  A    between atoms: C_31  and  O_32
REMARK                            x       y       z     vdW  Elec       q    Type
REMARK                         _______ _______ _______ _____ _____    ______ ____
ROOT
ATOM      1  S   UNL     1     -35.635  22.449  -0.774  0.00  0.00    -0.059 S 
ATOM      2  O   UNL     1     -35.727  22.699   3.910  0.00  0.00    -0.273 OA
ATOM      3  N   UNL     1     -36.324  23.184   1.686  0.00  0.00    -0.253 N 
ATOM      4  N   UNL     1     -34.561  21.511   1.381  0.00  0.00    -0.384 NA
ATOM      5  C   UNL     1     -36.391  23.296   3.069  0.00  0.00    +0.244 C 
ATOM      6  C   UNL     1     -35.467  22.350   0.931  0.00  0.00    +0.213 C 
ATOM      7  C   UNL     1     -33.947  20.895   0.307  0.00  0.00    +0.122 C 
ATOM      8  C   UNL     1     -34.396  21.276  -0.941  0.00  0.00    +0.125 C 
ATOM      9  H   UNL     1     -36.944  23.751   1.172  0.00  0.00    +0.158 HD
ENDROOT
BRANCH   5  11
ATOM     10  N   UNL     1     -37.861  24.935   2.206  0.00  0.00    -0.148 NA
ATOM     11  C   UNL     1     -37.426  24.294   3.478  0.00  0.00    +0.156 C 
ATOM     12  C   UNL     1     -36.885  25.289   4.500  0.00  0.00    +0.027 C 
ATOM     13  C   UNL     1     -35.880  26.286   3.926  0.00  0.00    +0.003 C 
ATOM     14  C   UNL     1     -37.658  26.406   2.127  0.00  0.00    +0.096 C 
ATOM     15  C   UNL     1     -36.222  26.735   2.506  0.00  0.00    +0.019 C 
BRANCH  10  16
ATOM     16  S   UNL     1     -39.289  24.331   1.488  0.00  0.00    +0.064 S 
ATOM     17  O   UNL     1     -39.653  23.100   2.149  0.00  0.00    -0.153 OA
ATOM     18  O   UNL     1     -39.148  24.404   0.053  0.00  0.00    -0.153 OA
BRANCH  16  19
ATOM     19  C   UNL     1     -40.426  25.581   1.993  0.00  0.00    +0.122 C 
ATOM     20  C   UNL     1     -41.005  26.422   1.043  0.00  0.00    +0.020 C 
ATOM     21  C   UNL     1     -40.744  25.731   3.343  0.00  0.00    +0.020 C 
ATOM     22  C   UNL     1     -41.901  27.413   1.441  0.00  0.00    -0.003 C 
ATOM     23  C   UNL     1     -41.640  26.721   3.742  0.00  0.00    -0.003 C 
ATOM     24  C   UNL     1     -42.219  27.563   2.792  0.00  0.00    -0.022 C 
ATOM     25  C   UNL     1     -43.179  28.622   3.218  0.00  0.00    +0.031 C 
ENDBRANCH  16  19
ENDBRANCH  10  16
ENDBRANCH   5  11
BRANCH   7  26
ATOM     26  C   UNL     1     -32.910  19.923   0.491  0.00  0.00    +0.027 C 
ATOM     27  C   UNL     1     -31.667  20.103  -0.117  0.00  0.00    +0.005 C 
ATOM     28  C   UNL     1     -33.144  18.794   1.277  0.00  0.00    +0.005 C 
ATOM     29  C   UNL     1     -30.659  19.156   0.061  0.00  0.00    +0.037 C 
ATOM     30  C   UNL     1     -32.136  17.846   1.455  0.00  0.00    +0.037 C 
ATOM     31  C   UNL     1     -30.895  18.027   0.847  0.00  0.00    +0.139 C 
BRANCH  31  32
ATOM     32  O   UNL     1     -29.911  17.102   1.020  0.00  0.00    -0.471 OA
ATOM     33  C   UNL     1     -28.639  17.580   1.457  0.00  0.00    +0.252 C 
ENDBRANCH  31  32
ENDBRANCH   7  26
TORSDOF 5
ENDMDL
MODEL 7
REMARK VINA RESULT:      -6.8      6.410     10.486
REMARK  Name = 53347902
REMARK  5 active torsions:
REMARK  status: ('A' for Active; 'I' for Inactive)
REMARK    1  A    between atoms: C_5  and  C_11
REMARK    2  A    between atoms: C_7  and  C_26
REMARK    3  A    between atoms: N_10  and  S_16
REMARK    4  A    between atoms: S_16  and  C_19
REMARK    5  A    between atoms: C_31  and  O_32
REMARK                            x       y       z     vdW  Elec       q    Type
REMARK                         _______ _______ _______ _____ _____    ______ ____
ROOT
ATOM      1  S   UNL     1     -35.353  27.762  -0.124  0.00  0.00    -0.059 S 
ATOM      2  O   UNL     1     -35.070  30.819   3.423  0.00  0.00    -0.273 OA
ATOM      3  N   UNL     1     -35.125  30.057   1.197  0.00  0.00    -0.253 N 
ATOM      4  N   UNL     1     -35.362  27.966   2.452  0.00  0.00    -0.384 NA
ATOM      5  C   UNL     1     -35.036  31.003   2.211  0.00  0.00    +0.244 C 
ATOM      6  C   UNL     1     -35.275  28.657   1.337  0.00  0.00    +0.213 C 
ATOM      7  C   UNL     1     -35.501  26.628   2.139  0.00  0.00    +0.122 C 
ATOM      8  C   UNL     1     -35.516  26.323   0.793  0.00  0.00    +0.125 C 
ATOM      9  H   UNL     1     -35.077  30.400   0.276  0.00  0.00    +0.158 HD
ENDROOT
BRANCH   5  11
ATOM     10  N   UNL     1     -34.730  32.177   0.182  0.00  0.00    -0.148 NA
ATOM     11  C   UNL     1     -34.878  32.379   1.650  0.00  0.00    +0.156 C 
ATOM     12  C   UNL     1     -33.700  33.118   2.277  0.00  0.00    +0.027 C 
ATOM     13  C   UNL     1     -32.332  32.584   1.854  0.00  0.00    +0.003 C 
ATOM     14  C   UNL     1     -33.462  32.680  -0.411  0.00  0.00    +0.096 C 
ATOM     15  C   UNL     1     -32.286  32.142   0.392  0.00  0.00    +0.019 C 
BRANCH  10  16
ATOM     16  S   UNL     1     -36.136  32.375  -0.769  0.00  0.00    +0.064 S 
ATOM     17  O   UNL     1     -36.797  31.097  -0.885  0.00  0.00    -0.153 OA
ATOM     18  O   UNL     1     -35.796  33.158  -1.933  0.00  0.00    -0.153 OA
BRANCH  16  19
ATOM     19  C   UNL     1     -37.087  33.389   0.316  0.00  0.00    +0.122 C 
ATOM     20  C   UNL     1     -36.760  34.734   0.480  0.00  0.00    +0.020 C 
ATOM     21  C   UNL     1     -38.166  32.843   1.014  0.00  0.00    +0.020 C 
ATOM     22  C   UNL     1     -37.509  35.536   1.340  0.00  0.00    -0.003 C 
ATOM     23  C   UNL     1     -38.915  33.644   1.874  0.00  0.00    -0.003 C 
ATOM     24  C   UNL     1     -38.588  34.990   2.038  0.00  0.00    -0.022 C 
ATOM     25  C   UNL     1     -39.391  35.848   2.957  0.00  0.00    +0.031 C 
ENDBRANCH  16  19
ENDBRANCH  10  16
ENDBRANCH   5  11
BRANCH   7  26
ATOM     26  C   UNL     1     -35.620  25.626   3.158  0.00  0.00    +0.027 C 
ATOM     27  C   UNL     1     -35.670  25.998   4.502  0.00  0.00    +0.005 C 
ATOM     28  C   UNL     1     -35.684  24.278   2.806  0.00  0.00    +0.005 C 
ATOM     29  C   UNL     1     -35.784  25.023   5.492  0.00  0.00    +0.037 C 
ATOM     30  C   UNL     1     -35.798  23.302   3.796  0.00  0.00    +0.037 C 
ATOM     31  C   UNL     1     -35.848  23.675   5.139  0.00  0.00    +0.139 C 
BRANCH  31  32
ATOM     32  O   UNL     1     -35.959  22.723   6.105  0.00  0.00    -0.471 OA
ATOM     33  C   UNL     1     -35.109  21.582   5.995  0.00  0.00    +0.252 C 
ENDBRANCH  31  32
ENDBRANCH   7  26
TORSDOF 5
ENDMDL
MODEL 8
REMARK VINA RESULT:      -6.8      4.141      8.505
REMARK  Name = 53347902
REMARK  5 active torsions:
REMARK  status: ('A' for Active; 'I' for Inactive)
REMARK    1  A    between atoms: C_5  and  C_11
REMARK    2  A    between atoms: C_7  and  C_26
REMARK    3  A    between atoms: N_10  and  S_16
REMARK    4  A    between atoms: S_16  and  C_19
REMARK    5  A    between atoms: C_31  and  O_32
REMARK                            x       y       z     vdW  Elec       q    Type
REMARK                         _______ _______ _______ _____ _____    ______ ____
ROOT
ATOM      1  S   UNL     1     -39.150  21.690  -3.365  0.00  0.00    -0.059 S 
ATOM      2  O   UNL     1     -38.915  22.746   1.200  0.00  0.00    -0.273 OA
ATOM      3  N   UNL     1     -39.010  23.111  -1.123  0.00  0.00    -0.253 N 
ATOM      4  N   UNL     1     -39.073  20.666  -0.993  0.00  0.00    -0.384 NA
ATOM      5  C   UNL     1     -38.938  23.478   0.215  0.00  0.00    +0.244 C 
ATOM      6  C   UNL     1     -39.070  21.802  -1.655  0.00  0.00    +0.213 C 
ATOM      7  C   UNL     1     -39.143  19.623  -1.897  0.00  0.00    +0.122 C 
ATOM      8  C   UNL     1     -39.192  19.982  -3.228  0.00  0.00    +0.125 C 
ATOM      9  H   UNL     1     -39.018  23.847  -1.776  0.00  0.00    +0.158 HD
ENDROOT
BRANCH   5  11
ATOM     10  N   UNL     1     -38.305  25.190   1.717  0.00  0.00    -0.148 NA
ATOM     11  C   UNL     1     -38.884  24.964   0.364  0.00  0.00    +0.156 C 
ATOM     12  C   UNL     1     -40.257  25.605   0.182  0.00  0.00    +0.027 C 
ATOM     13  C   UNL     1     -41.227  25.335   1.332  0.00  0.00    +0.003 C 
ATOM     14  C   UNL     1     -39.163  25.950   2.665  0.00  0.00    +0.096 C 
ATOM     15  C   UNL     1     -40.549  25.321   2.701  0.00  0.00    +0.019 C 
BRANCH  10  16
ATOM     16  S   UNL     1     -36.629  25.514   1.794  0.00  0.00    +0.064 S 
ATOM     17  O   UNL     1     -36.442  26.884   2.208  0.00  0.00    -0.153 OA
ATOM     18  O   UNL     1     -36.007  24.995   0.598  0.00  0.00    -0.153 OA
BRANCH  16  19
ATOM     19  C   UNL     1     -36.185  24.467   3.142  0.00  0.00    +0.122 C 
ATOM     20  C   UNL     1     -35.972  23.106   2.927  0.00  0.00    +0.020 C 
ATOM     21  C   UNL     1     -36.052  25.001   4.425  0.00  0.00    +0.020 C 
ATOM     22  C   UNL     1     -35.624  22.277   3.994  0.00  0.00    -0.003 C 
ATOM     23  C   UNL     1     -35.704  24.172   5.491  0.00  0.00    -0.003 C 
ATOM     24  C   UNL     1     -35.490  22.811   5.276  0.00  0.00    -0.022 C 
ATOM     25  C   UNL     1     -35.118  21.925   6.417  0.00  0.00    +0.031 C 
ENDBRANCH  16  19
ENDBRANCH  10  16
ENDBRANCH   5  11
BRANCH   7  26
ATOM     26  C   UNL     1     -39.162  18.255  -1.465  0.00  0.00    +0.027 C 
ATOM     27  C   UNL     1     -40.234  17.430  -1.805  0.00  0.00    +0.005 C 
ATOM     28  C   UNL     1     -38.108  17.750  -0.704  0.00  0.00    +0.005 C 
ATOM     29  C   UNL     1     -40.254  16.101  -1.383  0.00  0.00    +0.037 C 
ATOM     30  C   UNL     1     -38.127  16.421  -0.281  0.00  0.00    +0.037 C 
ATOM     31  C   UNL     1     -39.199  15.597  -0.621  0.00  0.00    +0.139 C 
BRANCH  31  32
ATOM     32  O   UNL     1     -39.217  14.299  -0.209  0.00  0.00    -0.471 OA
ATOM     33  C   UNL     1     -40.496  13.699  -0.007  0.00  0.00    +0.252 C 
ENDBRANCH  31  32
ENDBRANCH   7  26
TORSDOF 5
ENDMDL
MODEL 9
REMARK VINA RESULT:      -6.7      3.897      9.583
REMARK  Name = 53347902
REMARK  5 active torsions:
REMARK  status: ('A' for Active; 'I' for Inactive)
REMARK    1  A    between atoms: C_5  and  C_11
REMARK    2  A    between atoms: C_7  and  C_26
REMARK    3  A    between atoms: N_10  and  S_16
REMARK    4  A    between atoms: S_16  and  C_19
REMARK    5  A    between atoms: C_31  and  O_32
REMARK                            x       y       z     vdW  Elec       q    Type
REMARK                         _______ _______ _______ _____ _____    ______ ____
ROOT
ATOM      1  S   UNL     1     -36.296  22.421  -0.575  0.00  0.00    -0.059 S 
ATOM      2  O   UNL     1     -34.419  24.538   3.168  0.00  0.00    -0.273 OA
ATOM      3  N   UNL     1     -35.891  24.194   1.365  0.00  0.00    -0.253 N 
ATOM      4  N   UNL     1     -34.420  22.243   1.194  0.00  0.00    -0.384 NA
ATOM      5  C   UNL     1     -35.373  24.861   2.467  0.00  0.00    +0.244 C 
ATOM      6  C   UNL     1     -35.430  22.984   0.796  0.00  0.00    +0.213 C 
ATOM      7  C   UNL     1     -34.313  21.146   0.360  0.00  0.00    +0.122 C 
ATOM      8  C   UNL     1     -35.243  21.072  -0.657  0.00  0.00    +0.125 C 
ATOM      9  H   UNL     1     -36.668  24.612   0.928  0.00  0.00    +0.158 HD
ENDROOT
BRANCH   5  11
ATOM     10  N   UNL     1     -37.425  25.944   2.016  0.00  0.00    -0.148 NA
ATOM     11  C   UNL     1     -36.140  26.112   2.749  0.00  0.00    +0.156 C 
ATOM     12  C   UNL     1     -35.368  27.360   2.331  0.00  0.00    +0.027 C 
ATOM     13  C   UNL     1     -35.255  27.545   0.819  0.00  0.00    +0.003 C 
ATOM     14  C   UNL     1     -37.717  26.976   0.985  0.00  0.00    +0.096 C 
ATOM     15  C   UNL     1     -36.514  27.118   0.065  0.00  0.00    +0.019 C 
BRANCH  10  16
ATOM     16  S   UNL     1     -38.762  25.386   2.923  0.00  0.00    +0.064 S 
ATOM     17  O   UNL     1     -39.782  26.407   2.916  0.00  0.00    -0.153 OA
ATOM     18  O   UNL     1     -38.274  24.814   4.156  0.00  0.00    -0.153 OA
BRANCH  16  19
ATOM     19  C   UNL     1     -39.299  24.068   1.880  0.00  0.00    +0.122 C 
ATOM     20  C   UNL     1     -39.066  22.745   2.254  0.00  0.00    +0.020 C 
ATOM     21  C   UNL     1     -39.953  24.350   0.681  0.00  0.00    +0.020 C 
ATOM     22  C   UNL     1     -39.487  21.703   1.429  0.00  0.00    -0.003 C 
ATOM     23  C   UNL     1     -40.374  23.308  -0.144  0.00  0.00    -0.003 C 
ATOM     24  C   UNL     1     -40.142  21.985   0.229  0.00  0.00    -0.022 C 
ATOM     25  C   UNL     1     -40.593  20.870  -0.654  0.00  0.00    +0.031 C 
ENDBRANCH  16  19
ENDBRANCH  10  16
ENDBRANCH   5  11
BRANCH   7  26
ATOM     26  C   UNL     1     -33.296  20.154   0.550  0.00  0.00    +0.027 C 
ATOM     27  C   UNL     1     -33.562  19.016   1.312  0.00  0.00    +0.005 C 
ATOM     28  C   UNL     1     -32.038  20.327  -0.028  0.00  0.00    +0.005 C 
ATOM     29  C   UNL     1     -32.571  18.053   1.498  0.00  0.00    +0.037 C 
ATOM     30  C   UNL     1     -31.046  19.364   0.158  0.00  0.00    +0.037 C 
ATOM     31  C   UNL     1     -31.313  18.227   0.920  0.00  0.00    +0.139 C 
BRANCH  31  32
ATOM     32  O   UNL     1     -30.345  17.287   1.101  0.00  0.00    -0.471 OA
ATOM     33  C   UNL     1     -29.017  17.639   0.715  0.00  0.00    +0.252 C 
ENDBRANCH  31  32
ENDBRANCH   7  26
TORSDOF 5
ENDMDL
