MODEL 1
REMARK VINA RESULT:      -5.3      0.000      0.000
REMARK  Name = 5496556
REMARK  12 active torsions:
REMARK  status: ('A' for Active; 'I' for Inactive)
REMARK    1  A    between atoms: N_2  and  CA_5
REMARK    2  A    between atoms: C_3  and  CA_17
REMARK    3  A    between atoms: CA_5  and  C_9
REMARK    4  A    between atoms: N_8  and  CA_11
REMARK    5  A    between atoms: CA_11  and  C_14
REMARK    6  A    between atoms: C_14  and  O_15
REMARK    7  A    between atoms: CA_17  and  N_18
REMARK    8  A    between atoms: CA_17  and  CB_22
REMARK    9  A    between atoms: CB_22  and  CG_23
REMARK   10  A    between atoms: CG_23  and  CD_24
REMARK   11  A    between atoms: CD_24  and  CE_25
REMARK   12  A    between atoms: CE_25  and  NZ_26
REMARK                            x       y       z     vdW  Elec       q    Type
REMARK                         _______ _______ _______ _____ _____    ______ ____
ROOT
ATOM      1  O   LYS A   1     -35.060  22.700   2.124  0.00  0.00    -0.277 OA
ATOM      2  N   ALA A   2     -36.126  21.933   4.040  0.00  0.00    -0.300 N 
ATOM      3  C   LYS A   1     -35.957  22.057   2.667  0.00  0.00    +0.202 C 
ATOM      4  H   ALA A   2     -36.879  21.393   4.371  0.00  0.00    +0.150 HD
ENDROOT
BRANCH   2   5
ATOM      5  CA  ALA A   2     -35.251  22.558   5.005  0.00  0.00    +0.149 C 
ATOM      6  CB  ALA A   2     -35.463  21.985   6.397  0.00  0.00    +0.031 C 
BRANCH   5   9
ATOM      7  O   ALA A   2     -36.607  24.545   5.301  0.00  0.00    -0.273 OA
ATOM      8  N   ALA A   3     -34.428  24.781   4.535  0.00  0.00    -0.295 N 
ATOM      9  C   ALA A   2     -35.523  24.056   4.986  0.00  0.00    +0.241 C 
ATOM     10  H   ALA A   3     -33.603  24.295   4.307  0.00  0.00    +0.150 HD
BRANCH   8  11
ATOM     11  CA  ALA A   3     -34.452  26.216   4.386  0.00  0.00    +0.171 C 
ATOM     12  CB  ALA A   3     -34.472  26.595   2.913  0.00  0.00    +0.033 C 
BRANCH  11  14
ATOM     13  OXT ALA A   3     -32.312  27.338   4.484  0.00  0.00    -0.248 OA
ATOM     14  C   ALA A   3     -33.276  26.878   5.086  0.00  0.00    +0.332 C 
BRANCH  14  15
ATOM     15  O   ALA A   3     -33.368  26.911   6.438  0.00  0.00    -0.479 OA
ATOM     16  H   ALA A   3     -32.676  26.561   6.962  0.00  0.00    +0.295 HD
ENDBRANCH  14  15
ENDBRANCH  11  14
ENDBRANCH   8  11
ENDBRANCH   5   9
ENDBRANCH   2   5
BRANCH   3  17
ATOM     17  CA  LYS A   1     -37.009  21.273   1.887  0.00  0.00    +0.013 C 
BRANCH  17  18
ATOM     18  N   LYS A   1     -36.909  19.873   2.294  0.00  0.00    +0.387 N 
ATOM     19  H1  LYS A   1     -36.052  19.469   1.916  0.00  0.00    -0.089 HD
ATOM     20  H2  LYS A   1     -37.713  19.357   1.937  0.00  0.00    -0.089 HD
ATOM     21  H3  LYS A   1     -36.892  19.815   3.312  0.00  0.00    -0.089 HD
ENDBRANCH  17  18
BRANCH  17  22
ATOM     22  CB  LYS A   1     -38.399  21.863   2.169  0.00  0.00    -0.013 C 
BRANCH  22  23
ATOM     23  CG  LYS A   1     -38.535  23.329   1.745  0.00  0.00    -0.004 C 
BRANCH  23  24
ATOM     24  CD  LYS A   1     -39.298  24.141   2.795  0.00  0.00    -0.024 C 
BRANCH  24  25
ATOM     25  CE  LYS A   1     -39.117  25.641   2.571  0.00  0.00    -0.086 C 
BRANCH  25  26
ATOM     26  NZ  LYS A   1     -38.157  26.183   3.526  0.00  0.00    +0.380 N 
ATOM     27  HZ1 LYS A   1     -38.330  25.781   4.447  0.00  0.00    -0.089 HD
ATOM     28  HZ2 LYS A   1     -38.260  27.197   3.573  0.00  0.00    -0.089 HD
ATOM     29  HZ3 LYS A   1     -37.210  25.951   3.225  0.00  0.00    -0.089 HD
ENDBRANCH  25  26
ENDBRANCH  24  25
ENDBRANCH  23  24
ENDBRANCH  22  23
ENDBRANCH  17  22
ENDBRANCH   3  17
TORSDOF 12
ENDMDL
MODEL 2
REMARK VINA RESULT:      -5.1      2.586      6.608
REMARK  Name = 5496556
REMARK  12 active torsions:
REMARK  status: ('A' for Active; 'I' for Inactive)
REMARK    1  A    between atoms: N_2  and  CA_5
REMARK    2  A    between atoms: C_3  and  CA_17
REMARK    3  A    between atoms: CA_5  and  C_9
REMARK    4  A    between atoms: N_8  and  CA_11
REMARK    5  A    between atoms: CA_11  and  C_14
REMARK    6  A    between atoms: C_14  and  O_15
REMARK    7  A    between atoms: CA_17  and  N_18
REMARK    8  A    between atoms: CA_17  and  CB_22
REMARK    9  A    between atoms: CB_22  and  CG_23
REMARK   10  A    between atoms: CG_23  and  CD_24
REMARK   11  A    between atoms: CD_24  and  CE_25
REMARK   12  A    between atoms: CE_25  and  NZ_26
REMARK                            x       y       z     vdW  Elec       q    Type
REMARK                         _______ _______ _______ _____ _____    ______ ____
ROOT
ATOM      1  O   LYS A   1     -36.811  25.590   4.270  0.00  0.00    -0.277 OA
ATOM      2  N   ALA A   2     -35.022  24.182   4.731  0.00  0.00    -0.300 N 
ATOM      3  C   LYS A   1     -35.600  25.383   4.343  0.00  0.00    +0.202 C 
ATOM      4  H   ALA A   2     -34.040  24.123   4.756  0.00  0.00    +0.150 HD
ENDROOT
BRANCH   2   5
ATOM      5  CA  ALA A   2     -35.791  23.016   5.100  0.00  0.00    +0.149 C 
ATOM      6  CB  ALA A   2     -35.005  22.108   6.032  0.00  0.00    +0.031 C 
BRANCH   5   9
ATOM      7  O   ALA A   2     -35.438  21.472   3.266  0.00  0.00    -0.273 OA
ATOM      8  N   ALA A   3     -37.423  22.672   3.352  0.00  0.00    -0.295 N 
ATOM      9  C   ALA A   2     -36.176  22.283   3.822  0.00  0.00    +0.241 C 
ATOM     10  H   ALA A   3     -37.938  23.330   3.871  0.00  0.00    +0.150 HD
BRANCH   8  11
ATOM     11  CA  ALA A   3     -37.992  22.152   2.131  0.00  0.00    +0.171 C 
ATOM     12  CB  ALA A   3     -37.495  22.946   0.934  0.00  0.00    +0.033 C 
BRANCH  11  14
ATOM     13  OXT ALA A   3     -40.176  23.165   2.353  0.00  0.00    -0.248 OA
ATOM     14  C   ALA A   3     -39.512  22.151   2.171  0.00  0.00    +0.332 C 
BRANCH  14  15
ATOM     15  O   ALA A   3     -40.081  20.933   2.000  0.00  0.00    -0.479 OA
ATOM     16  H   ALA A   3     -40.630  20.575   2.670  0.00  0.00    +0.295 HD
ENDBRANCH  14  15
ENDBRANCH  11  14
ENDBRANCH   8  11
ENDBRANCH   5   9
ENDBRANCH   2   5
BRANCH   3  17
ATOM     17  CA  LYS A   1     -34.554  26.450   4.034  0.00  0.00    +0.013 C 
BRANCH  17  18
ATOM     18  N   LYS A   1     -35.263  27.702   3.776  0.00  0.00    +0.387 N 
ATOM     19  H1  LYS A   1     -35.084  28.358   4.535  0.00  0.00    -0.089 HD
ATOM     20  H2  LYS A   1     -36.265  27.520   3.715  0.00  0.00    -0.089 HD
ATOM     21  H3  LYS A   1     -34.936  28.103   2.897  0.00  0.00    -0.089 HD
ENDBRANCH  17  18
BRANCH  17  22
ATOM     22  CB  LYS A   1     -33.580  26.568   5.216  0.00  0.00    -0.013 C 
BRANCH  22  23
ATOM     23  CG  LYS A   1     -32.630  27.765   5.104  0.00  0.00    -0.004 C 
BRANCH  23  24
ATOM     24  CD  LYS A   1     -32.094  28.176   6.478  0.00  0.00    -0.024 C 
BRANCH  24  25
ATOM     25  CE  LYS A   1     -30.708  28.809   6.362  0.00  0.00    -0.086 C 
BRANCH  25  26
ATOM     26  NZ  LYS A   1     -29.685  27.874   6.815  0.00  0.00    +0.380 N 
ATOM     27  HZ1 LYS A   1     -29.038  28.354   7.440  0.00  0.00    -0.089 HD
ATOM     28  HZ2 LYS A   1     -29.173  27.513   6.009  0.00  0.00    -0.089 HD
ATOM     29  HZ3 LYS A   1     -30.128  27.100   7.311  0.00  0.00    -0.089 HD
ENDBRANCH  25  26
ENDBRANCH  24  25
ENDBRANCH  23  24
ENDBRANCH  22  23
ENDBRANCH  17  22
ENDBRANCH   3  17
TORSDOF 12
ENDMDL
MODEL 3
REMARK VINA RESULT:      -5.0      2.839      5.226
REMARK  Name = 5496556
REMARK  12 active torsions:
REMARK  status: ('A' for Active; 'I' for Inactive)
REMARK    1  A    between atoms: N_2  and  CA_5
REMARK    2  A    between atoms: C_3  and  CA_17
REMARK    3  A    between atoms: CA_5  and  C_9
REMARK    4  A    between atoms: N_8  and  CA_11
REMARK    5  A    between atoms: CA_11  and  C_14
REMARK    6  A    between atoms: C_14  and  O_15
REMARK    7  A    between atoms: CA_17  and  N_18
REMARK    8  A    between atoms: CA_17  and  CB_22
REMARK    9  A    between atoms: CB_22  and  CG_23
REMARK   10  A    between atoms: CG_23  and  CD_24
REMARK   11  A    between atoms: CD_24  and  CE_25
REMARK   12  A    between atoms: CE_25  and  NZ_26
REMARK                            x       y       z     vdW  Elec       q    Type
REMARK                         _______ _______ _______ _____ _____    ______ ____
ROOT
ATOM      1  O   LYS A   1     -35.381  20.904   3.745  0.00  0.00    -0.277 OA
ATOM      2  N   ALA A   2     -37.027  22.539   3.652  0.00  0.00    -0.300 N 
ATOM      3  C   LYS A   1     -35.993  21.840   4.258  0.00  0.00    +0.202 C 
ATOM      4  H   ALA A   2     -37.450  23.275   4.151  0.00  0.00    +0.150 HD
ENDROOT
BRANCH   2   5
ATOM      5  CA  ALA A   2     -37.514  22.241   2.324  0.00  0.00    +0.149 C 
ATOM      6  CB  ALA A   2     -36.690  22.950   1.261  0.00  0.00    +0.031 C 
BRANCH   5   9
ATOM      7  O   ALA A   2     -39.898  21.866   2.107  0.00  0.00    -0.273 OA
ATOM      8  N   ALA A   3     -39.123  24.043   2.327  0.00  0.00    -0.295 N 
ATOM      9  C   ALA A   2     -38.975  22.665   2.253  0.00  0.00    +0.241 C 
ATOM     10  H   ALA A   3     -38.319  24.598   2.444  0.00  0.00    +0.150 HD
BRANCH   8  11
ATOM     11  CA  ALA A   3     -40.409  24.694   2.237  0.00  0.00    +0.171 C 
ATOM     12  CB  ALA A   3     -40.747  25.002   0.787  0.00  0.00    +0.033 C 
BRANCH  11  14
ATOM     13  OXT ALA A   3     -41.509  26.506   3.400  0.00  0.00    -0.248 OA
ATOM     14  C   ALA A   3     -40.460  25.963   3.072  0.00  0.00    +0.332 C 
BRANCH  14  15
ATOM     15  O   ALA A   3     -39.249  26.461   3.420  0.00  0.00    -0.479 OA
ATOM     16  H   ALA A   3     -38.977  26.449   4.316  0.00  0.00    +0.295 HD
ENDBRANCH  14  15
ENDBRANCH  11  14
ENDBRANCH   8  11
ENDBRANCH   5   9
ENDBRANCH   2   5
BRANCH   3  17
ATOM     17  CA  LYS A   1     -35.669  22.384   5.647  0.00  0.00    +0.013 C 
BRANCH  17  18
ATOM     18  N   LYS A   1     -34.527  21.631   6.161  0.00  0.00    +0.387 N 
ATOM     19  H1  LYS A   1     -33.819  21.545   5.432  0.00  0.00    -0.089 HD
ATOM     20  H2  LYS A   1     -34.834  20.700   6.447  0.00  0.00    -0.089 HD
ATOM     21  H3  LYS A   1     -34.131  22.120   6.963  0.00  0.00    -0.089 HD
ENDBRANCH  17  18
BRANCH  17  22
ATOM     22  CB  LYS A   1     -35.378  23.889   5.552  0.00  0.00    -0.013 C 
BRANCH  22  23
ATOM     23  CG  LYS A   1     -34.111  24.214   4.755  0.00  0.00    -0.004 C 
BRANCH  23  24
ATOM     24  CD  LYS A   1     -34.407  25.199   3.620  0.00  0.00    -0.024 C 
BRANCH  24  25
ATOM     25  CE  LYS A   1     -35.736  25.918   3.847  0.00  0.00    -0.086 C 
BRANCH  25  26
ATOM     26  NZ  LYS A   1     -35.513  27.348   4.026  0.00  0.00    +0.380 N 
ATOM     27  HZ1 LYS A   1     -36.195  27.718   4.688  0.00  0.00    -0.089 HD
ATOM     28  HZ2 LYS A   1     -35.617  27.823   3.130  0.00  0.00    -0.089 HD
ATOM     29  HZ3 LYS A   1     -34.571  27.502   4.386  0.00  0.00    -0.089 HD
ENDBRANCH  25  26
ENDBRANCH  24  25
ENDBRANCH  23  24
ENDBRANCH  22  23
ENDBRANCH  17  22
ENDBRANCH   3  17
TORSDOF 12
ENDMDL
MODEL 4
REMARK VINA RESULT:      -5.0      2.795      5.531
REMARK  Name = 5496556
REMARK  12 active torsions:
REMARK  status: ('A' for Active; 'I' for Inactive)
REMARK    1  A    between atoms: N_2  and  CA_5
REMARK    2  A    between atoms: C_3  and  CA_17
REMARK    3  A    between atoms: CA_5  and  C_9
REMARK    4  A    between atoms: N_8  and  CA_11
REMARK    5  A    between atoms: CA_11  and  C_14
REMARK    6  A    between atoms: C_14  and  O_15
REMARK    7  A    between atoms: CA_17  and  N_18
REMARK    8  A    between atoms: CA_17  and  CB_22
REMARK    9  A    between atoms: CB_22  and  CG_23
REMARK   10  A    between atoms: CG_23  and  CD_24
REMARK   11  A    between atoms: CD_24  and  CE_25
REMARK   12  A    between atoms: CE_25  and  NZ_26
REMARK                            x       y       z     vdW  Elec       q    Type
REMARK                         _______ _______ _______ _____ _____    ______ ____
ROOT
ATOM      1  O   LYS A   1     -33.449  25.346   4.098  0.00  0.00    -0.277 OA
ATOM      2  N   ALA A   2     -33.621  27.254   5.410  0.00  0.00    -0.300 N 
ATOM      3  C   LYS A   1     -34.039  26.014   4.945  0.00  0.00    +0.202 C 
ATOM      4  H   ALA A   2     -34.168  27.706   6.092  0.00  0.00    +0.150 HD
ENDROOT
BRANCH   2   5
ATOM      5  CA  ALA A   2     -32.422  27.912   4.943  0.00  0.00    +0.149 C 
ATOM      6  CB  ALA A   2     -31.786  28.748   6.041  0.00  0.00    +0.031 C 
BRANCH   5   9
ATOM      7  O   ALA A   2     -31.966  29.376   3.066  0.00  0.00    -0.273 OA
ATOM      8  N   ALA A   3     -34.171  28.841   3.558  0.00  0.00    -0.295 N 
ATOM      9  C   ALA A   2     -32.797  28.778   3.748  0.00  0.00    +0.241 C 
ATOM     10  H   ALA A   3     -34.754  28.324   4.160  0.00  0.00    +0.150 HD
BRANCH   8  11
ATOM     11  CA  ALA A   3     -34.778  29.634   2.516  0.00  0.00    +0.171 C 
ATOM     12  CB  ALA A   3     -35.349  30.920   3.094  0.00  0.00    +0.033 C 
BRANCH  11  14
ATOM     13  OXT ALA A   3     -36.307  29.219   0.690  0.00  0.00    -0.248 OA
ATOM     14  C   ALA A   3     -35.857  28.864   1.774  0.00  0.00    +0.332 C 
BRANCH  14  15
ATOM     15  O   ALA A   3     -36.299  27.752   2.411  0.00  0.00    -0.479 OA
ATOM     16  H   ALA A   3     -35.789  27.373   3.099  0.00  0.00    +0.295 HD
ENDBRANCH  14  15
ENDBRANCH  11  14
ENDBRANCH   8  11
ENDBRANCH   5   9
ENDBRANCH   2   5
BRANCH   3  17
ATOM     17  CA  LYS A   1     -35.321  25.548   5.628  0.00  0.00    +0.013 C 
BRANCH  17  18
ATOM     18  N   LYS A   1     -36.342  26.567   5.395  0.00  0.00    +0.387 N 
ATOM     19  H1  LYS A   1     -37.212  26.286   5.846  0.00  0.00    -0.089 HD
ATOM     20  H2  LYS A   1     -36.498  26.668   4.391  0.00  0.00    -0.089 HD
ATOM     21  H3  LYS A   1     -36.029  27.457   5.782  0.00  0.00    -0.089 HD
ENDBRANCH  17  18
BRANCH  17  22
ATOM     22  CB  LYS A   1     -35.729  24.177   5.068  0.00  0.00    -0.013 C 
BRANCH  22  23
ATOM     23  CG  LYS A   1     -35.351  23.009   5.986  0.00  0.00    -0.004 C 
BRANCH  23  24
ATOM     24  CD  LYS A   1     -35.249  21.698   5.200  0.00  0.00    -0.024 C 
BRANCH  24  25
ATOM     25  CE  LYS A   1     -35.495  21.928   3.709  0.00  0.00    -0.086 C 
BRANCH  25  26
ATOM     26  NZ  LYS A   1     -36.337  20.869   3.166  0.00  0.00    +0.380 N 
ATOM     27  HZ1 LYS A   1     -36.729  20.321   3.931  0.00  0.00    -0.089 HD
ATOM     28  HZ2 LYS A   1     -35.776  20.263   2.567  0.00  0.00    -0.089 HD
ATOM     29  HZ3 LYS A   1     -37.093  21.282   2.620  0.00  0.00    -0.089 HD
ENDBRANCH  25  26
ENDBRANCH  24  25
ENDBRANCH  23  24
ENDBRANCH  22  23
ENDBRANCH  17  22
ENDBRANCH   3  17
TORSDOF 12
ENDMDL
MODEL 5
REMARK VINA RESULT:      -5.0      2.049      4.023
REMARK  Name = 5496556
REMARK  12 active torsions:
REMARK  status: ('A' for Active; 'I' for Inactive)
REMARK    1  A    between atoms: N_2  and  CA_5
REMARK    2  A    between atoms: C_3  and  CA_17
REMARK    3  A    between atoms: CA_5  and  C_9
REMARK    4  A    between atoms: N_8  and  CA_11
REMARK    5  A    between atoms: CA_11  and  C_14
REMARK    6  A    between atoms: C_14  and  O_15
REMARK    7  A    between atoms: CA_17  and  N_18
REMARK    8  A    between atoms: CA_17  and  CB_22
REMARK    9  A    between atoms: CB_22  and  CG_23
REMARK   10  A    between atoms: CG_23  and  CD_24
REMARK   11  A    between atoms: CD_24  and  CE_25
REMARK   12  A    between atoms: CE_25  and  NZ_26
REMARK                            x       y       z     vdW  Elec       q    Type
REMARK                         _______ _______ _______ _____ _____    ______ ____
ROOT
ATOM      1  O   LYS A   1     -36.612  24.617   5.036  0.00  0.00    -0.277 OA
ATOM      2  N   ALA A   2     -34.306  24.879   4.952  0.00  0.00    -0.300 N 
ATOM      3  C   LYS A   1     -35.478  24.143   5.071  0.00  0.00    +0.202 C 
ATOM      4  H   ALA A   2     -33.447  24.399   4.993  0.00  0.00    +0.150 HD
ENDROOT
BRANCH   2   5
ATOM      5  CA  ALA A   2     -34.286  26.312   4.772  0.00  0.00    +0.149 C 
ATOM      6  CB  ALA A   2     -33.903  26.685   3.349  0.00  0.00    +0.031 C 
BRANCH   5   9
ATOM      7  O   ALA A   2     -33.036  26.363   6.847  0.00  0.00    -0.273 OA
ATOM      8  N   ALA A   3     -32.776  28.110   5.342  0.00  0.00    -0.295 N 
ATOM      9  C   ALA A   2     -33.298  26.898   5.772  0.00  0.00    +0.241 C 
ATOM     10  H   ALA A   3     -33.050  28.456   4.462  0.00  0.00    +0.150 HD
BRANCH   8  11
ATOM     11  CA  ALA A   3     -31.851  28.885   6.134  0.00  0.00    +0.171 C 
ATOM     12  CB  ALA A   3     -31.969  30.362   5.792  0.00  0.00    +0.033 C 
BRANCH  11  14
ATOM     13  OXT ALA A   3     -29.666  28.872   5.099  0.00  0.00    -0.248 OA
ATOM     14  C   ALA A   3     -30.418  28.414   5.952  0.00  0.00    +0.332 C 
BRANCH  14  15
ATOM     15  O   ALA A   3     -30.033  27.431   6.802  0.00  0.00    -0.479 OA
ATOM     16  H   ALA A   3     -29.125  27.302   6.990  0.00  0.00    +0.295 HD
ENDBRANCH  14  15
ENDBRANCH  11  14
ENDBRANCH   8  11
ENDBRANCH   5   9
ENDBRANCH   2   5
BRANCH   3  17
ATOM     17  CA  LYS A   1     -35.205  22.650   5.226  0.00  0.00    +0.013 C 
BRANCH  17  18
ATOM     18  N   LYS A   1     -35.912  22.193   6.420  0.00  0.00    +0.387 N 
ATOM     19  H1  LYS A   1     -36.767  22.736   6.538  0.00  0.00    -0.089 HD
ATOM     20  H2  LYS A   1     -35.315  22.319   7.239  0.00  0.00    -0.089 HD
ATOM     21  H3  LYS A   1     -36.147  21.206   6.319  0.00  0.00    -0.089 HD
ENDBRANCH  17  18
BRANCH  17  22
ATOM     22  CB  LYS A   1     -35.665  21.912   3.960  0.00  0.00    -0.013 C 
BRANCH  22  23
ATOM     23  CG  LYS A   1     -35.335  22.662   2.665  0.00  0.00    -0.004 C 
BRANCH  23  24
ATOM     24  CD  LYS A   1     -36.556  22.738   1.743  0.00  0.00    -0.024 C 
BRANCH  24  25
ATOM     25  CE  LYS A   1     -37.842  22.417   2.503  0.00  0.00    -0.086 C 
BRANCH  25  26
ATOM     26  NZ  LYS A   1     -38.354  21.112   2.103  0.00  0.00    +0.380 N 
ATOM     27  HZ1 LYS A   1     -37.966  20.393   2.712  0.00  0.00    -0.089 HD
ATOM     28  HZ2 LYS A   1     -38.083  20.922   1.138  0.00  0.00    -0.089 HD
ATOM     29  HZ3 LYS A   1     -39.372  21.109   2.177  0.00  0.00    -0.089 HD
ENDBRANCH  25  26
ENDBRANCH  24  25
ENDBRANCH  23  24
ENDBRANCH  22  23
ENDBRANCH  17  22
ENDBRANCH   3  17
TORSDOF 12
ENDMDL
MODEL 6
REMARK VINA RESULT:      -4.9      3.666      6.281
REMARK  Name = 5496556
REMARK  12 active torsions:
REMARK  status: ('A' for Active; 'I' for Inactive)
REMARK    1  A    between atoms: N_2  and  CA_5
REMARK    2  A    between atoms: C_3  and  CA_17
REMARK    3  A    between atoms: CA_5  and  C_9
REMARK    4  A    between atoms: N_8  and  CA_11
REMARK    5  A    between atoms: CA_11  and  C_14
REMARK    6  A    between atoms: C_14  and  O_15
REMARK    7  A    between atoms: CA_17  and  N_18
REMARK    8  A    between atoms: CA_17  and  CB_22
REMARK    9  A    between atoms: CB_22  and  CG_23
REMARK   10  A    between atoms: CG_23  and  CD_24
REMARK   11  A    between atoms: CD_24  and  CE_25
REMARK   12  A    between atoms: CE_25  and  NZ_26
REMARK                            x       y       z     vdW  Elec       q    Type
REMARK                         _______ _______ _______ _____ _____    ______ ____
ROOT
ATOM      1  O   LYS A   1     -34.652  27.724   3.798  0.00  0.00    -0.277 OA
ATOM      2  N   ALA A   2     -32.973  27.518   5.388  0.00  0.00    -0.300 N 
ATOM      3  C   LYS A   1     -34.186  27.186   4.801  0.00  0.00    +0.202 C 
ATOM      4  H   ALA A   2     -32.691  27.022   6.191  0.00  0.00    +0.150 HD
ENDROOT
BRANCH   2   5
ATOM      5  CA  ALA A   2     -32.104  28.554   4.880  0.00  0.00    +0.149 C 
ATOM      6  CB  ALA A   2     -31.211  28.030   3.766  0.00  0.00    +0.031 C 
BRANCH   5   9
ATOM      7  O   ALA A   2     -31.759  29.679   6.998  0.00  0.00    -0.273 OA
ATOM      8  N   ALA A   3     -29.915  28.845   5.862  0.00  0.00    -0.295 N 
ATOM      9  C   ALA A   2     -31.272  29.082   6.041  0.00  0.00    +0.241 C 
ATOM     10  H   ALA A   3     -29.624  28.356   5.058  0.00  0.00    +0.150 HD
BRANCH   8  11
ATOM     11  CA  ALA A   3     -28.916  29.289   6.804  0.00  0.00    +0.171 C 
ATOM     12  CB  ALA A   3     -27.918  30.212   6.123  0.00  0.00    +0.033 C 
BRANCH  11  14
ATOM     13  OXT ALA A   3     -27.222  28.261   8.189  0.00  0.00    -0.248 OA
ATOM     14  C   ALA A   3     -28.195  28.121   7.457  0.00  0.00    +0.332 C 
BRANCH  14  15
ATOM     15  O   ALA A   3     -28.705  26.902   7.156  0.00  0.00    -0.479 OA
ATOM     16  H   ALA A   3     -29.440  26.571   7.633  0.00  0.00    +0.295 HD
ENDBRANCH  14  15
ENDBRANCH  11  14
ENDBRANCH   8  11
ENDBRANCH   5   9
ENDBRANCH   2   5
BRANCH   3  17
ATOM     17  CA  LYS A   1     -34.882  26.040   5.530  0.00  0.00    +0.013 C 
BRANCH  17  18
ATOM     18  N   LYS A   1     -36.323  26.239   5.390  0.00  0.00    +0.387 N 
ATOM     19  H1  LYS A   1     -36.809  25.365   5.593  0.00  0.00    -0.089 HD
ATOM     20  H2  LYS A   1     -36.536  26.531   4.435  0.00  0.00    -0.089 HD
ATOM     21  H3  LYS A   1     -36.632  26.959   6.042  0.00  0.00    -0.089 HD
ENDBRANCH  17  18
BRANCH  17  22
ATOM     22  CB  LYS A   1     -34.420  24.701   4.937  0.00  0.00    -0.013 C 
BRANCH  22  23
ATOM     23  CG  LYS A   1     -35.448  24.065   3.997  0.00  0.00    -0.004 C 
BRANCH  23  24
ATOM     24  CD  LYS A   1     -35.848  22.666   4.477  0.00  0.00    -0.024 C 
BRANCH  24  25
ATOM     25  CE  LYS A   1     -35.463  22.456   5.941  0.00  0.00    -0.086 C 
BRANCH  25  26
ATOM     26  NZ  LYS A   1     -34.751  21.194   6.100  0.00  0.00    +0.380 N 
ATOM     27  HZ1 LYS A   1     -35.421  20.426   6.133  0.00  0.00    -0.089 HD
ATOM     28  HZ2 LYS A   1     -34.214  21.213   6.968  0.00  0.00    -0.089 HD
ATOM     29  HZ3 LYS A   1     -34.118  21.059   5.311  0.00  0.00    -0.089 HD
ENDBRANCH  25  26
ENDBRANCH  24  25
ENDBRANCH  23  24
ENDBRANCH  22  23
ENDBRANCH  17  22
ENDBRANCH   3  17
TORSDOF 12
ENDMDL
MODEL 7
REMARK VINA RESULT:      -4.8      2.688      4.483
REMARK  Name = 5496556
REMARK  12 active torsions:
REMARK  status: ('A' for Active; 'I' for Inactive)
REMARK    1  A    between atoms: N_2  and  CA_5
REMARK    2  A    between atoms: C_3  and  CA_17
REMARK    3  A    between atoms: CA_5  and  C_9
REMARK    4  A    between atoms: N_8  and  CA_11
REMARK    5  A    between atoms: CA_11  and  C_14
REMARK    6  A    between atoms: C_14  and  O_15
REMARK    7  A    between atoms: CA_17  and  N_18
REMARK    8  A    between atoms: CA_17  and  CB_22
REMARK    9  A    between atoms: CB_22  and  CG_23
REMARK   10  A    between atoms: CG_23  and  CD_24
REMARK   11  A    between atoms: CD_24  and  CE_25
REMARK   12  A    between atoms: CE_25  and  NZ_26
REMARK                            x       y       z     vdW  Elec       q    Type
REMARK                         _______ _______ _______ _____ _____    ______ ____
ROOT
ATOM      1  O   LYS A   1     -34.951  22.275   1.919  0.00  0.00    -0.277 OA
ATOM      2  N   ALA A   2     -35.690  21.464   3.965  0.00  0.00    -0.300 N 
ATOM      3  C   LYS A   1     -35.499  21.404   2.591  0.00  0.00    +0.202 C 
ATOM      4  H   ALA A   2     -36.141  20.709   4.407  0.00  0.00    +0.150 HD
ENDROOT
BRANCH   2   5
ATOM      5  CA  ALA A   2     -35.258  22.578   4.777  0.00  0.00    +0.149 C 
ATOM      6  CB  ALA A   2     -35.489  22.308   6.255  0.00  0.00    +0.031 C 
BRANCH   5   9
ATOM      7  O   ALA A   2     -37.248  23.897   4.363  0.00  0.00    -0.273 OA
ATOM      8  N   ALA A   3     -35.177  24.799   3.830  0.00  0.00    -0.295 N 
ATOM      9  C   ALA A   2     -36.022  23.814   4.324  0.00  0.00    +0.241 C 
ATOM     10  H   ALA A   3     -34.206  24.636   3.841  0.00  0.00    +0.150 HD
BRANCH   8  11
ATOM     11  CA  ALA A   3     -35.665  26.049   3.298  0.00  0.00    +0.171 C 
ATOM     12  CB  ALA A   3     -35.626  26.030   1.778  0.00  0.00    +0.033 C 
BRANCH  11  14
ATOM     13  OXT ALA A   3     -33.973  27.125   4.649  0.00  0.00    -0.248 OA
ATOM     14  C   ALA A   3     -34.879  27.236   3.831  0.00  0.00    +0.332 C 
BRANCH  14  15
ATOM     15  O   ALA A   3     -35.268  28.438   3.341  0.00  0.00    -0.479 OA
ATOM     16  H   ALA A   3     -35.061  29.223   3.807  0.00  0.00    +0.295 HD
ENDBRANCH  14  15
ENDBRANCH  11  14
ENDBRANCH   8  11
ENDBRANCH   5   9
ENDBRANCH   2   5
BRANCH   3  17
ATOM     17  CA  LYS A   1     -36.030  20.104   1.994  0.00  0.00    +0.013 C 
BRANCH  17  18
ATOM     18  N   LYS A   1     -37.375  20.367   1.488  0.00  0.00    +0.387 N 
ATOM     19  H1  LYS A   1     -37.948  19.530   1.592  0.00  0.00    -0.089 HD
ATOM     20  H2  LYS A   1     -37.324  20.622   0.501  0.00  0.00    -0.089 HD
ATOM     21  H3  LYS A   1     -37.793  21.133   2.015  0.00  0.00    -0.089 HD
ENDBRANCH  17  18
BRANCH  17  22
ATOM     22  CB  LYS A   1     -35.077  19.622   0.890  0.00  0.00    -0.013 C 
BRANCH  22  23
ATOM     23  CG  LYS A   1     -33.704  19.193   1.416  0.00  0.00    -0.004 C 
BRANCH  23  24
ATOM     24  CD  LYS A   1     -32.598  19.513   0.406  0.00  0.00    -0.024 C 
BRANCH  24  25
ATOM     25  CE  LYS A   1     -31.327  18.721   0.709  0.00  0.00    -0.086 C 
BRANCH  25  26
ATOM     26  NZ  LYS A   1     -31.661  17.463   1.368  0.00  0.00    +0.380 N 
ATOM     27  HZ1 LYS A   1     -31.427  16.685   0.753  0.00  0.00    -0.089 HD
ATOM     28  HZ2 LYS A   1     -32.659  17.444   1.578  0.00  0.00    -0.089 HD
ATOM     29  HZ3 LYS A   1     -31.129  17.383   2.236  0.00  0.00    -0.089 HD
ENDBRANCH  25  26
ENDBRANCH  24  25
ENDBRANCH  23  24
ENDBRANCH  22  23
ENDBRANCH  17  22
ENDBRANCH   3  17
TORSDOF 12
ENDMDL
MODEL 8
REMARK VINA RESULT:      -4.8      2.940      5.248
REMARK  Name = 5496556
REMARK  12 active torsions:
REMARK  status: ('A' for Active; 'I' for Inactive)
REMARK    1  A    between atoms: N_2  and  CA_5
REMARK    2  A    between atoms: C_3  and  CA_17
REMARK    3  A    between atoms: CA_5  and  C_9
REMARK    4  A    between atoms: N_8  and  CA_11
REMARK    5  A    between atoms: CA_11  and  C_14
REMARK    6  A    between atoms: C_14  and  O_15
REMARK    7  A    between atoms: CA_17  and  N_18
REMARK    8  A    between atoms: CA_17  and  CB_22
REMARK    9  A    between atoms: CB_22  and  CG_23
REMARK   10  A    between atoms: CG_23  and  CD_24
REMARK   11  A    between atoms: CD_24  and  CE_25
REMARK   12  A    between atoms: CE_25  and  NZ_26
REMARK                            x       y       z     vdW  Elec       q    Type
REMARK                         _______ _______ _______ _____ _____    ______ ____
ROOT
ATOM      1  O   LYS A   1     -33.316  25.088   4.526  0.00  0.00    -0.277 OA
ATOM      2  N   ALA A   2     -33.777  27.254   5.226  0.00  0.00    -0.300 N 
ATOM      3  C   LYS A   1     -34.056  25.902   5.076  0.00  0.00    +0.202 C 
ATOM      4  H   ALA A   2     -34.439  27.820   5.684  0.00  0.00    +0.150 HD
ENDROOT
BRANCH   2   5
ATOM      5  CA  ALA A   2     -32.563  27.870   4.742  0.00  0.00    +0.149 C 
ATOM      6  CB  ALA A   2     -31.864  28.655   5.842  0.00  0.00    +0.031 C 
BRANCH   5   9
ATOM      7  O   ALA A   2     -32.093  29.400   2.923  0.00  0.00    -0.273 OA
ATOM      8  N   ALA A   3     -34.300  28.844   3.375  0.00  0.00    -0.295 N 
ATOM      9  C   ALA A   2     -32.928  28.778   3.575  0.00  0.00    +0.241 C 
ATOM     10  H   ALA A   3     -34.888  28.306   3.953  0.00  0.00    +0.150 HD
BRANCH   8  11
ATOM     11  CA  ALA A   3     -34.900  29.673   2.356  0.00  0.00    +0.171 C 
ATOM     12  CB  ALA A   3     -35.409  30.972   2.962  0.00  0.00    +0.033 C 
BRANCH  11  14
ATOM     13  OXT ALA A   3     -36.423  29.286   0.519  0.00  0.00    -0.248 OA
ATOM     14  C   ALA A   3     -36.023  28.953   1.629  0.00  0.00    +0.332 C 
BRANCH  14  15
ATOM     15  O   ALA A   3     -36.563  27.913   2.310  0.00  0.00    -0.479 OA
ATOM     16  H   ALA A   3     -37.444  27.646   2.137  0.00  0.00    +0.295 HD
ENDBRANCH  14  15
ENDBRANCH  11  14
ENDBRANCH   8  11
ENDBRANCH   5   9
ENDBRANCH   2   5
BRANCH   3  17
ATOM     17  CA  LYS A   1     -35.394  25.520   5.702  0.00  0.00    +0.013 C 
BRANCH  17  18
ATOM     18  N   LYS A   1     -36.392  26.478   5.230  0.00  0.00    +0.387 N 
ATOM     19  H1  LYS A   1     -36.983  26.035   4.527  0.00  0.00    -0.089 HD
ATOM     20  H2  LYS A   1     -35.922  27.285   4.819  0.00  0.00    -0.089 HD
ATOM     21  H3  LYS A   1     -36.968  26.782   6.015  0.00  0.00    -0.089 HD
ENDBRANCH  17  18
BRANCH  17  22
ATOM     22  CB  LYS A   1     -35.745  24.076   5.316  0.00  0.00    -0.013 C 
BRANCH  22  23
ATOM     23  CG  LYS A   1     -36.551  23.973   4.017  0.00  0.00    -0.004 C 
BRANCH  23  24
ATOM     24  CD  LYS A   1     -35.788  23.179   2.953  0.00  0.00    -0.024 C 
BRANCH  24  25
ATOM     25  CE  LYS A   1     -35.678  23.969   1.649  0.00  0.00    -0.086 C 
BRANCH  25  26
ATOM     26  NZ  LYS A   1     -35.121  25.292   1.905  0.00  0.00    +0.380 N 
ATOM     27  HZ1 LYS A   1     -35.330  25.907   1.119  0.00  0.00    -0.089 HD
ATOM     28  HZ2 LYS A   1     -34.110  25.219   2.020  0.00  0.00    -0.089 HD
ATOM     29  HZ3 LYS A   1     -35.533  25.676   2.756  0.00  0.00    -0.089 HD
ENDBRANCH  25  26
ENDBRANCH  24  25
ENDBRANCH  23  24
ENDBRANCH  22  23
ENDBRANCH  17  22
ENDBRANCH   3  17
TORSDOF 12
ENDMDL
MODEL 9
REMARK VINA RESULT:      -4.8     10.941     13.143
REMARK  Name = 5496556
REMARK  12 active torsions:
REMARK  status: ('A' for Active; 'I' for Inactive)
REMARK    1  A    between atoms: N_2  and  CA_5
REMARK    2  A    between atoms: C_3  and  CA_17
REMARK    3  A    between atoms: CA_5  and  C_9
REMARK    4  A    between atoms: N_8  and  CA_11
REMARK    5  A    between atoms: CA_11  and  C_14
REMARK    6  A    between atoms: C_14  and  O_15
REMARK    7  A    between atoms: CA_17  and  N_18
REMARK    8  A    between atoms: CA_17  and  CB_22
REMARK    9  A    between atoms: CB_22  and  CG_23
REMARK   10  A    between atoms: CG_23  and  CD_24
REMARK   11  A    between atoms: CD_24  and  CE_25
REMARK   12  A    between atoms: CE_25  and  NZ_26
REMARK                            x       y       z     vdW  Elec       q    Type
REMARK                         _______ _______ _______ _____ _____    ______ ____
ROOT
ATOM      1  O   LYS A   1     -40.879  33.580   1.496  0.00  0.00    -0.277 OA
ATOM      2  N   ALA A   2     -42.833  34.788   1.838  0.00  0.00    -0.300 N 
ATOM      3  C   LYS A   1     -41.462  34.579   1.914  0.00  0.00    +0.202 C 
ATOM      4  H   ALA A   2     -43.198  35.626   2.204  0.00  0.00    +0.150 HD
ENDROOT
BRANCH   2   5
ATOM      5  CA  ALA A   2     -43.747  33.839   1.247  0.00  0.00    +0.149 C 
ATOM      6  CB  ALA A   2     -44.934  34.540   0.605  0.00  0.00    +0.031 C 
BRANCH   5   9
ATOM      7  O   ALA A   2     -44.080  31.664   2.262  0.00  0.00    -0.273 OA
ATOM      8  N   ALA A   3     -44.813  33.552   3.396  0.00  0.00    -0.295 N 
ATOM      9  C   ALA A   2     -44.206  32.884   2.341  0.00  0.00    +0.241 C 
ATOM     10  H   ALA A   3     -44.865  34.535   3.365  0.00  0.00    +0.150 HD
BRANCH   8  11
ATOM     11  CA  ALA A   3     -45.371  32.864   4.536  0.00  0.00    +0.171 C 
ATOM     12  CB  ALA A   3     -46.427  33.726   5.210  0.00  0.00    +0.033 C 
BRANCH  11  14
ATOM     13  OXT ALA A   3     -44.418  31.508   6.296  0.00  0.00    -0.248 OA
ATOM     14  C   ALA A   3     -44.299  32.463   5.536  0.00  0.00    +0.332 C 
BRANCH  14  15
ATOM     15  O   ALA A   3     -43.198  33.254   5.533  0.00  0.00    -0.479 OA
ATOM     16  H   ALA A   3     -42.897  33.635   4.733  0.00  0.00    +0.295 HD
ENDBRANCH  14  15
ENDBRANCH  11  14
ENDBRANCH   8  11
ENDBRANCH   5   9
ENDBRANCH   2   5
BRANCH   3  17
ATOM     17  CA  LYS A   1     -40.737  35.754   2.563  0.00  0.00    +0.013 C 
BRANCH  17  18
ATOM     18  N   LYS A   1     -41.362  35.996   3.862  0.00  0.00    +0.387 N 
ATOM     19  H1  LYS A   1     -42.190  36.578   3.738  0.00  0.00    -0.089 HD
ATOM     20  H2  LYS A   1     -40.700  36.475   4.474  0.00  0.00    -0.089 HD
ATOM     21  H3  LYS A   1     -41.631  35.106   4.281  0.00  0.00    -0.089 HD
ENDBRANCH  17  18
BRANCH  17  22
ATOM     22  CB  LYS A   1     -39.242  35.426   2.689  0.00  0.00    -0.013 C 
BRANCH  22  23
ATOM     23  CG  LYS A   1     -38.368  36.175   1.677  0.00  0.00    -0.004 C 
BRANCH  23  24
ATOM     24  CD  LYS A   1     -37.185  35.314   1.224  0.00  0.00    -0.024 C 
BRANCH  24  25
ATOM     25  CE  LYS A   1     -37.514  33.826   1.328  0.00  0.00    -0.086 C 
BRANCH  25  26
ATOM     26  NZ  LYS A   1     -38.110  33.351   0.085  0.00  0.00    +0.380 N 
ATOM     27  HZ1 LYS A   1     -37.402  33.339  -0.648  0.00  0.00    -0.089 HD
ATOM     28  HZ2 LYS A   1     -38.870  33.975  -0.187  0.00  0.00    -0.089 HD
ATOM     29  HZ3 LYS A   1     -38.476  32.408   0.222  0.00  0.00    -0.089 HD
ENDBRANCH  25  26
ENDBRANCH  24  25
ENDBRANCH  23  24
ENDBRANCH  22  23
ENDBRANCH  17  22
ENDBRANCH   3  17
TORSDOF 12
ENDMDL
