MODEL 1
REMARK VINA RESULT:      -6.5      0.000      0.000
REMARK  Name = 192020
REMARK  7 active torsions:
REMARK  status: ('A' for Active; 'I' for Inactive)
REMARK    1  A    between atoms: C_1  and  C_3
REMARK    2  A    between atoms: C_1  and  CA_15
REMARK    3  A    between atoms: C_9  and  N_14
REMARK    4  A    between atoms: CA_15  and  N_17
REMARK    5  A    between atoms: CA_15  and  C_24
REMARK    6  A    between atoms: C_18  and  C_22
REMARK    7  A    between atoms: C_24  and  O_25
REMARK                            x       y       z     vdW  Elec       q    Type
REMARK                         _______ _______ _______ _____ _____    ______ ____
ROOT
ATOM      1  C   UNL     1     -35.001  21.996   3.215  0.00  0.00    +0.059 C 
ENDROOT
BRANCH   1   3
ATOM      2  N   UNL     1     -37.452  20.301   1.104  0.00  0.00    -0.312 N 
ATOM      3  C   UNL     1     -35.775  21.143   2.290  0.00  0.00    -0.004 C 
ATOM      4  C   UNL     1     -35.280  20.037   1.544  0.00  0.00    +0.012 C 
ATOM      5  C   UNL     1     -36.352  19.527   0.808  0.00  0.00    +0.048 C 
ATOM      6  C   UNL     1     -37.112  21.281   1.999  0.00  0.00    +0.058 C 
ATOM      7  C   UNL     1     -34.020  19.418   1.423  0.00  0.00    +0.025 C 
ATOM      8  C   UNL     1     -36.226  18.425  -0.046  0.00  0.00    +0.016 C 
ATOM      9  C   UNL     1     -33.879  18.316   0.573  0.00  0.00    +0.143 C 
ATOM     10  C   UNL     1     -34.967  17.828  -0.148  0.00  0.00    +0.025 C 
ATOM     11  H   UNL     1     -38.351  20.169   0.727  0.00  0.00    +0.152 HD
BRANCH   9  14
ATOM     12  O   UNL     1     -31.899  17.558   1.470  0.00  0.00    -0.126 OA
ATOM     13  O   UNL     1     -32.247  17.288  -0.685  0.00  0.00    -0.126 OA
ATOM     14  N   UNL     1     -32.610  17.688   0.446  0.00  0.00    +0.058 N 
ENDBRANCH   9  14
ENDBRANCH   1   3
BRANCH   1  15
ATOM     15  CA  UNL     1     -35.831  22.571   4.387  0.00  0.00    +0.176 C 
BRANCH  15  17
ATOM     16  O   UNL     1     -37.633  24.800   4.305  0.00  0.00    -0.272 OA
ATOM     17  N   UNL     1     -35.496  23.954   4.619  0.00  0.00    -0.294 N 
ATOM     18  C   UNL     1     -36.441  24.969   4.557  0.00  0.00    +0.253 C 
ATOM     19  H   UNL     1     -34.564  24.186   4.828  0.00  0.00    +0.150 HD
BRANCH  18  22
ATOM     20 CL   UNL     1     -34.455  26.120   5.903  0.00  0.00    -0.087 Cl
ATOM     21 CL   UNL     1     -35.372  27.051   3.291  0.00  0.00    -0.087 Cl
ATOM     22  C   UNL     1     -35.853  26.332   4.837  0.00  0.00    +0.234 C 
ENDBRANCH  18  22
ENDBRANCH  15  17
BRANCH  15  24
ATOM     23  OXT UNL     1     -36.057  22.096   6.749  0.00  0.00    -0.248 OA
ATOM     24  C   UNL     1     -35.642  21.742   5.650  0.00  0.00    +0.332 C 
BRANCH  24  25
ATOM     25  O   UNL     1     -34.984  20.573   5.469  0.00  0.00    -0.479 OA
ATOM     26  H   UNL     1     -35.447  19.760   5.525  0.00  0.00    +0.295 HD
ENDBRANCH  24  25
ENDBRANCH  15  24
ENDBRANCH   1  15
TORSDOF 7
ENDMDL
MODEL 2
REMARK VINA RESULT:      -6.4      4.035      7.027
REMARK  Name = 192020
REMARK  7 active torsions:
REMARK  status: ('A' for Active; 'I' for Inactive)
REMARK    1  A    between atoms: C_1  and  C_3
REMARK    2  A    between atoms: C_1  and  CA_15
REMARK    3  A    between atoms: C_9  and  N_14
REMARK    4  A    between atoms: CA_15  and  N_17
REMARK    5  A    between atoms: CA_15  and  C_24
REMARK    6  A    between atoms: C_18  and  C_22
REMARK    7  A    between atoms: C_24  and  O_25
REMARK                            x       y       z     vdW  Elec       q    Type
REMARK                         _______ _______ _______ _____ _____    ______ ____
ROOT
ATOM      1  C   UNL     1     -35.924  24.327   5.541  0.00  0.00    +0.059 C 
ENDROOT
BRANCH   1   3
ATOM      2  N   UNL     1     -33.840  27.170   4.589  0.00  0.00    -0.312 N 
ATOM      3  C   UNL     1     -35.268  25.508   4.945  0.00  0.00    -0.004 C 
ATOM      4  C   UNL     1     -35.698  26.224   3.793  0.00  0.00    +0.012 C 
ATOM      5  C   UNL     1     -34.785  27.262   3.591  0.00  0.00    +0.048 C 
ATOM      6  C   UNL     1     -34.123  26.113   5.412  0.00  0.00    +0.058 C 
ATOM      7  C   UNL     1     -36.779  26.090   2.900  0.00  0.00    +0.025 C 
ATOM      8  C   UNL     1     -34.900  28.175   2.536  0.00  0.00    +0.016 C 
ATOM      9  C   UNL     1     -36.907  26.995   1.840  0.00  0.00    +0.143 C 
ATOM     10  C   UNL     1     -35.980  28.022   1.664  0.00  0.00    +0.025 C 
ATOM     11  H   UNL     1     -33.072  27.777   4.695  0.00  0.00    +0.152 HD
BRANCH   9  14
ATOM     12  O   UNL     1     -38.727  27.861   0.727  0.00  0.00    -0.126 OA
ATOM     13  O   UNL     1     -38.184  25.758   0.378  0.00  0.00    -0.126 OA
ATOM     14  N   UNL     1     -37.994  26.865   0.936  0.00  0.00    +0.058 N 
ENDBRANCH   9  14
ENDBRANCH   1   3
BRANCH   1  15
ATOM     15  CA  UNL     1     -35.638  23.002   4.795  0.00  0.00    +0.176 C 
BRANCH  15  17
ATOM     16  O   UNL     1     -35.658  22.784   1.936  0.00  0.00    -0.272 OA
ATOM     17  N   UNL     1     -36.760  22.629   3.971  0.00  0.00    -0.294 N 
ATOM     18  C   UNL     1     -36.675  22.550   2.587  0.00  0.00    +0.253 C 
ATOM     19  H   UNL     1     -37.619  22.423   4.405  0.00  0.00    +0.150 HD
BRANCH  18  22
ATOM     20 CL   UNL     1     -39.238  23.259   2.486  0.00  0.00    -0.087 Cl
ATOM     21 CL   UNL     1     -37.771  22.213   0.187  0.00  0.00    -0.087 Cl
ATOM     22  C   UNL     1     -37.978  22.138   1.944  0.00  0.00    +0.234 C 
ENDBRANCH  18  22
ENDBRANCH  15  17
BRANCH  15  24
ATOM     23  OXT UNL     1     -35.110  22.085   6.971  0.00  0.00    -0.248 OA
ATOM     24  C   UNL     1     -35.280  21.890   5.771  0.00  0.00    +0.332 C 
BRANCH  24  25
ATOM     25  O   UNL     1     -35.170  20.661   5.216  0.00  0.00    -0.479 OA
ATOM     26  H   UNL     1     -34.752  20.558   4.383  0.00  0.00    +0.295 HD
ENDBRANCH  24  25
ENDBRANCH  15  24
ENDBRANCH   1  15
TORSDOF 7
ENDMDL
MODEL 3
REMARK VINA RESULT:      -6.3      3.708      6.314
REMARK  Name = 192020
REMARK  7 active torsions:
REMARK  status: ('A' for Active; 'I' for Inactive)
REMARK    1  A    between atoms: C_1  and  C_3
REMARK    2  A    between atoms: C_1  and  CA_15
REMARK    3  A    between atoms: C_9  and  N_14
REMARK    4  A    between atoms: CA_15  and  N_17
REMARK    5  A    between atoms: CA_15  and  C_24
REMARK    6  A    between atoms: C_18  and  C_22
REMARK    7  A    between atoms: C_24  and  O_25
REMARK                            x       y       z     vdW  Elec       q    Type
REMARK                         _______ _______ _______ _____ _____    ______ ____
ROOT
ATOM      1  C   UNL     1     -35.362  23.342   5.050  0.00  0.00    +0.059 C 
ENDROOT
BRANCH   1   3
ATOM      2  N   UNL     1     -35.954  26.943   4.912  0.00  0.00    -0.312 N 
ATOM      3  C   UNL     1     -35.372  24.802   4.828  0.00  0.00    -0.004 C 
ATOM      4  C   UNL     1     -34.448  25.546   4.042  0.00  0.00    +0.012 C 
ATOM      5  C   UNL     1     -34.835  26.885   4.111  0.00  0.00    +0.048 C 
ATOM      6  C   UNL     1     -36.286  25.688   5.350  0.00  0.00    +0.058 C 
ATOM      7  C   UNL     1     -33.316  25.206   3.275  0.00  0.00    +0.025 C 
ATOM      8  C   UNL     1     -34.144  27.907   3.450  0.00  0.00    +0.016 C 
ATOM      9  C   UNL     1     -32.614  26.218   2.608  0.00  0.00    +0.143 C 
ATOM     10  C   UNL     1     -33.025  27.547   2.695  0.00  0.00    +0.025 C 
ATOM     11  H   UNL     1     -36.445  27.766   5.137  0.00  0.00    +0.152 HD
BRANCH   9  14
ATOM     12  O   UNL     1     -31.640  25.397   0.690  0.00  0.00    -0.126 OA
ATOM     13  O   UNL     1     -30.334  26.083   2.322  0.00  0.00    -0.126 OA
ATOM     14  N   UNL     1     -31.471  25.882   1.834  0.00  0.00    +0.058 N 
ENDBRANCH   9  14
ENDBRANCH   1   3
BRANCH   1  15
ATOM     15  CA  UNL     1     -35.677  22.510   3.784  0.00  0.00    +0.176 C 
BRANCH  15  17
ATOM     16  O   UNL     1     -36.654  23.936   1.496  0.00  0.00    -0.272 OA
ATOM     17  N   UNL     1     -37.056  22.671   3.398  0.00  0.00    -0.294 N 
ATOM     18  C   UNL     1     -37.435  23.383   2.268  0.00  0.00    +0.253 C 
ATOM     19  H   UNL     1     -37.755  22.262   3.957  0.00  0.00    +0.150 HD
BRANCH  18  22
ATOM     20 CL   UNL     1     -39.544  21.759   2.252  0.00  0.00    -0.087 Cl
ATOM     21 CL   UNL     1     -39.628  24.485   3.296  0.00  0.00    -0.087 Cl
ATOM     22  C   UNL     1     -38.933  23.411   2.071  0.00  0.00    +0.234 C 
ENDBRANCH  18  22
ENDBRANCH  15  17
BRANCH  15  24
ATOM     23  OXT UNL     1     -35.198  20.248   3.069  0.00  0.00    -0.248 OA
ATOM     24  C   UNL     1     -35.334  21.041   3.995  0.00  0.00    +0.332 C 
BRANCH  24  25
ATOM     25  O   UNL     1     -35.182  20.674   5.289  0.00  0.00    -0.479 OA
ATOM     26  H   UNL     1     -34.407  20.221   5.560  0.00  0.00    +0.295 HD
ENDBRANCH  24  25
ENDBRANCH  15  24
ENDBRANCH   1  15
TORSDOF 7
ENDMDL
MODEL 4
REMARK VINA RESULT:      -6.3      5.178      7.024
REMARK  Name = 192020
REMARK  7 active torsions:
REMARK  status: ('A' for Active; 'I' for Inactive)
REMARK    1  A    between atoms: C_1  and  C_3
REMARK    2  A    between atoms: C_1  and  CA_15
REMARK    3  A    between atoms: C_9  and  N_14
REMARK    4  A    between atoms: CA_15  and  N_17
REMARK    5  A    between atoms: CA_15  and  C_24
REMARK    6  A    between atoms: C_18  and  C_22
REMARK    7  A    between atoms: C_24  and  O_25
REMARK                            x       y       z     vdW  Elec       q    Type
REMARK                         _______ _______ _______ _____ _____    ______ ____
ROOT
ATOM      1  C   UNL     1     -34.775  25.885   5.735  0.00  0.00    +0.059 C 
ENDROOT
BRANCH   1   3
ATOM      2  N   UNL     1     -35.399  22.613   4.238  0.00  0.00    -0.312 N 
ATOM      3  C   UNL     1     -35.259  24.685   5.023  0.00  0.00    -0.004 C 
ATOM      4  C   UNL     1     -36.437  24.588   4.231  0.00  0.00    +0.012 C 
ATOM      5  C   UNL     1     -36.502  23.279   3.750  0.00  0.00    +0.048 C 
ATOM      6  C   UNL     1     -34.642  23.455   5.009  0.00  0.00    +0.058 C 
ATOM      7  C   UNL     1     -37.458  25.492   3.874  0.00  0.00    +0.025 C 
ATOM      8  C   UNL     1     -37.541  22.826   2.929  0.00  0.00    +0.016 C 
ATOM      9  C   UNL     1     -38.503  25.053   3.054  0.00  0.00    +0.143 C 
ATOM     10  C   UNL     1     -38.541  23.740   2.589  0.00  0.00    +0.025 C 
ATOM     11  H   UNL     1     -35.186  21.669   4.059  0.00  0.00    +0.152 HD
BRANCH   9  14
ATOM     12  O   UNL     1     -39.310  26.800   1.790  0.00  0.00    -0.126 OA
ATOM     13  O   UNL     1     -40.637  25.886   3.287  0.00  0.00    -0.126 OA
ATOM     14  N   UNL     1     -39.536  25.959   2.692  0.00  0.00    +0.058 N 
ENDBRANCH   9  14
ENDBRANCH   1   3
BRANCH   1  15
ATOM     15  CA  UNL     1     -33.634  26.634   5.006  0.00  0.00    +0.176 C 
BRANCH  15  17
ATOM     16  O   UNL     1     -30.995  27.747   4.862  0.00  0.00    -0.272 OA
ATOM     17  N   UNL     1     -33.098  27.681   5.840  0.00  0.00    -0.294 N 
ATOM     18  C   UNL     1     -31.802  28.157   5.696  0.00  0.00    +0.253 C 
ATOM     19  H   UNL     1     -33.672  28.072   6.537  0.00  0.00    +0.150 HD
BRANCH  18  22
ATOM     20 CL   UNL     1     -29.710  29.309   6.871  0.00  0.00    -0.087 Cl
ATOM     21 CL   UNL     1     -32.090  30.781   6.033  0.00  0.00    -0.087 Cl
ATOM     22  C   UNL     1     -31.470  29.253   6.681  0.00  0.00    +0.234 C 
ENDBRANCH  18  22
ENDBRANCH  15  17
BRANCH  15  24
ATOM     23  OXT UNL     1     -33.651  26.815   2.593  0.00  0.00    -0.248 OA
ATOM     24  C   UNL     1     -34.109  27.187   3.669  0.00  0.00    +0.332 C 
BRANCH  24  25
ATOM     25  O   UNL     1     -35.087  28.120   3.755  0.00  0.00    -0.479 OA
ATOM     26  H   UNL     1     -35.928  27.954   3.376  0.00  0.00    +0.295 HD
ENDBRANCH  24  25
ENDBRANCH  15  24
ENDBRANCH   1  15
TORSDOF 7
ENDMDL
MODEL 5
REMARK VINA RESULT:      -6.2      2.485      3.259
REMARK  Name = 192020
REMARK  7 active torsions:
REMARK  status: ('A' for Active; 'I' for Inactive)
REMARK    1  A    between atoms: C_1  and  C_3
REMARK    2  A    between atoms: C_1  and  CA_15
REMARK    3  A    between atoms: C_9  and  N_14
REMARK    4  A    between atoms: CA_15  and  N_17
REMARK    5  A    between atoms: CA_15  and  C_24
REMARK    6  A    between atoms: C_18  and  C_22
REMARK    7  A    between atoms: C_24  and  O_25
REMARK                            x       y       z     vdW  Elec       q    Type
REMARK                         _______ _______ _______ _____ _____    ______ ____
ROOT
ATOM      1  C   UNL     1     -36.331  21.072   1.678  0.00  0.00    +0.059 C 
ENDROOT
BRANCH   1   3
ATOM      2  N   UNL     1     -33.749  22.775  -0.263  0.00  0.00    -0.312 N 
ATOM      3  C   UNL     1     -35.139  21.522   0.931  0.00  0.00    -0.004 C 
ATOM      4  C   UNL     1     -33.947  20.776   0.710  0.00  0.00    +0.012 C 
ATOM      5  C   UNL     1     -33.092  21.585  -0.041  0.00  0.00    +0.048 C 
ATOM      6  C   UNL     1     -34.987  22.746   0.322  0.00  0.00    +0.058 C 
ATOM      7  C   UNL     1     -33.513  19.487   1.077  0.00  0.00    +0.025 C 
ATOM      8  C   UNL     1     -31.818  21.167  -0.445  0.00  0.00    +0.016 C 
ATOM      9  C   UNL     1     -32.242  19.056   0.681  0.00  0.00    +0.143 C 
ATOM     10  C   UNL     1     -31.410  19.885  -0.070  0.00  0.00    +0.025 C 
ATOM     11  H   UNL     1     -33.381  23.536  -0.767  0.00  0.00    +0.152 HD
BRANCH   9  14
ATOM     12  O   UNL     1     -30.649  17.629   1.532  0.00  0.00    -0.126 OA
ATOM     13  O   UNL     1     -32.570  16.785   0.874  0.00  0.00    -0.126 OA
ATOM     14  N   UNL     1     -31.798  17.757   1.048  0.00  0.00    +0.058 N 
ENDBRANCH   9  14
ENDBRANCH   1   3
BRANCH   1  15
ATOM     15  CA  UNL     1     -37.199  22.226   2.235  0.00  0.00    +0.176 C 
BRANCH  15  17
ATOM     16  O   UNL     1     -35.901  24.615   3.148  0.00  0.00    -0.272 OA
ATOM     17  N   UNL     1     -36.826  22.535   3.593  0.00  0.00    -0.294 N 
ATOM     18  C   UNL     1     -36.198  23.723   3.941  0.00  0.00    +0.253 C 
ATOM     19  H   UNL     1     -37.024  21.879   4.299  0.00  0.00    +0.150 HD
BRANCH  18  22
ATOM     20 CL   UNL     1     -35.421  22.215   5.991  0.00  0.00    -0.087 Cl
ATOM     21 CL   UNL     1     -34.610  25.000   5.651  0.00  0.00    -0.087 Cl
ATOM     22  C   UNL     1     -35.909  23.819   5.421  0.00  0.00    +0.234 C 
ENDBRANCH  18  22
ENDBRANCH  15  17
BRANCH  15  24
ATOM     23  OXT UNL     1     -39.564  22.667   2.493  0.00  0.00    -0.248 OA
ATOM     24  C   UNL     1     -38.681  21.893   2.135  0.00  0.00    +0.332 C 
BRANCH  24  25
ATOM     25  O   UNL     1     -38.956  20.676   1.610  0.00  0.00    -0.479 OA
ATOM     26  H   UNL     1     -39.199  19.967   2.173  0.00  0.00    +0.295 HD
ENDBRANCH  24  25
ENDBRANCH  15  24
ENDBRANCH   1  15
TORSDOF 7
ENDMDL
MODEL 6
REMARK VINA RESULT:      -6.0      2.502      4.127
REMARK  Name = 192020
REMARK  7 active torsions:
REMARK  status: ('A' for Active; 'I' for Inactive)
REMARK    1  A    between atoms: C_1  and  C_3
REMARK    2  A    between atoms: C_1  and  CA_15
REMARK    3  A    between atoms: C_9  and  N_14
REMARK    4  A    between atoms: CA_15  and  N_17
REMARK    5  A    between atoms: CA_15  and  C_24
REMARK    6  A    between atoms: C_18  and  C_22
REMARK    7  A    between atoms: C_24  and  O_25
REMARK                            x       y       z     vdW  Elec       q    Type
REMARK                         _______ _______ _______ _____ _____    ______ ____
ROOT
ATOM      1  C   UNL     1     -39.621  23.807   2.781  0.00  0.00    +0.059 C 
ENDROOT
BRANCH   1   3
ATOM      2  N   UNL     1     -39.910  21.648  -0.150  0.00  0.00    -0.312 N 
ATOM      3  C   UNL     1     -39.493  22.823   1.686  0.00  0.00    -0.004 C 
ATOM      4  C   UNL     1     -38.439  21.883   1.512  0.00  0.00    +0.012 C 
ATOM      5  C   UNL     1     -38.725  21.158   0.353  0.00  0.00    +0.048 C 
ATOM      6  C   UNL     1     -40.381  22.655   0.649  0.00  0.00    +0.058 C 
ATOM      7  C   UNL     1     -37.267  21.577   2.231  0.00  0.00    +0.025 C 
ATOM      8  C   UNL     1     -37.893  20.139  -0.126  0.00  0.00    +0.016 C 
ATOM      9  C   UNL     1     -36.425  20.561   1.764  0.00  0.00    +0.143 C 
ATOM     10  C   UNL     1     -36.736  19.854   0.604  0.00  0.00    +0.025 C 
ATOM     11  H   UNL     1     -40.354  21.321  -0.966  0.00  0.00    +0.152 HD
BRANCH   9  14
ATOM     12  O   UNL     1     -35.180  20.544   3.701  0.00  0.00    -0.126 OA
ATOM     13  O   UNL     1     -34.298  19.688   1.877  0.00  0.00    -0.126 OA
ATOM     14  N   UNL     1     -35.241  20.248   2.484  0.00  0.00    +0.058 N 
ENDBRANCH   9  14
ENDBRANCH   1   3
BRANCH   1  15
ATOM     15  CA  UNL     1     -38.476  24.847   2.830  0.00  0.00    +0.176 C 
BRANCH  15  17
ATOM     16  O   UNL     1     -35.753  25.616   3.294  0.00  0.00    -0.272 OA
ATOM     17  N   UNL     1     -37.760  24.758   4.078  0.00  0.00    -0.294 N 
ATOM     18  C   UNL     1     -36.437  25.157   4.207  0.00  0.00    +0.253 C 
ATOM     19  H   UNL     1     -38.227  24.402   4.867  0.00  0.00    +0.150 HD
BRANCH  18  22
ATOM     20 CL   UNL     1     -35.505  23.258   5.822  0.00  0.00    -0.087 Cl
ATOM     21 CL   UNL     1     -34.467  25.988   5.791  0.00  0.00    -0.087 Cl
ATOM     22  C   UNL     1     -35.905  24.970   5.608  0.00  0.00    +0.234 C 
ENDBRANCH  18  22
ENDBRANCH  15  17
BRANCH  15  24
ATOM     23  OXT UNL     1     -40.137  26.604   2.927  0.00  0.00    -0.248 OA
ATOM     24  C   UNL     1     -39.007  26.256   2.601  0.00  0.00    +0.332 C 
BRANCH  24  25
ATOM     25  O   UNL     1     -38.131  27.104   2.012  0.00  0.00    -0.479 OA
ATOM     26  H   UNL     1     -37.354  27.366   2.467  0.00  0.00    +0.295 HD
ENDBRANCH  24  25
ENDBRANCH  15  24
ENDBRANCH   1  15
TORSDOF 7
ENDMDL
MODEL 7
REMARK VINA RESULT:      -6.0      3.902      7.416
REMARK  Name = 192020
REMARK  7 active torsions:
REMARK  status: ('A' for Active; 'I' for Inactive)
REMARK    1  A    between atoms: C_1  and  C_3
REMARK    2  A    between atoms: C_1  and  CA_15
REMARK    3  A    between atoms: C_9  and  N_14
REMARK    4  A    between atoms: CA_15  and  N_17
REMARK    5  A    between atoms: CA_15  and  C_24
REMARK    6  A    between atoms: C_18  and  C_22
REMARK    7  A    between atoms: C_24  and  O_25
REMARK                            x       y       z     vdW  Elec       q    Type
REMARK                         _______ _______ _______ _____ _____    ______ ____
ROOT
ATOM      1  C   UNL     1     -34.930  22.335   1.629  0.00  0.00    +0.059 C 
ENDROOT
BRANCH   1   3
ATOM      2  N   UNL     1     -36.221  22.684   5.027  0.00  0.00    -0.312 N 
ATOM      3  C   UNL     1     -35.314  22.723   3.002  0.00  0.00    -0.004 C 
ATOM      4  C   UNL     1     -34.944  23.919   3.678  0.00  0.00    +0.012 C 
ATOM      5  C   UNL     1     -35.526  23.870   4.946  0.00  0.00    +0.048 C 
ATOM      6  C   UNL     1     -36.098  21.984   3.857  0.00  0.00    +0.058 C 
ATOM      7  C   UNL     1     -34.168  25.043   3.332  0.00  0.00    +0.025 C 
ATOM      8  C   UNL     1     -35.370  24.892   5.890  0.00  0.00    +0.016 C 
ATOM      9  C   UNL     1     -34.003  26.073   4.265  0.00  0.00    +0.143 C 
ATOM     10  C   UNL     1     -34.597  25.997   5.523  0.00  0.00    +0.025 C 
ATOM     11  H   UNL     1     -36.732  22.382   5.813  0.00  0.00    +0.152 HD
BRANCH   9  14
ATOM     12  O   UNL     1     -31.988  27.061   3.751  0.00  0.00    -0.126 OA
ATOM     13  O   UNL     1     -33.792  28.319   3.804  0.00  0.00    -0.126 OA
ATOM     14  N   UNL     1     -33.221  27.209   3.922  0.00  0.00    +0.058 N 
ENDBRANCH   9  14
ENDBRANCH   1   3
BRANCH   1  15
ATOM     15  CA  UNL     1     -34.781  20.808   1.424  0.00  0.00    +0.176 C 
BRANCH  15  17
ATOM     16  O   UNL     1     -33.090  18.507   1.682  0.00  0.00    -0.272 OA
ATOM     17  N   UNL     1     -33.608  20.513   0.639  0.00  0.00    -0.294 N 
ATOM     18  C   UNL     1     -32.848  19.368   0.838  0.00  0.00    +0.253 C 
ATOM     19  H   UNL     1     -33.336  21.146  -0.063  0.00  0.00    +0.150 HD
BRANCH  18  22
ATOM     20 CL   UNL     1     -31.101  20.921  -0.433  0.00  0.00    -0.087 Cl
ATOM     21 CL   UNL     1     -30.412  18.310   0.679  0.00  0.00    -0.087 Cl
ATOM     22  C   UNL     1     -31.672  19.277  -0.105  0.00  0.00    +0.234 C 
ENDBRANCH  18  22
ENDBRANCH  15  17
BRANCH  15  24
ATOM     23  OXT UNL     1     -36.390  20.486  -0.355  0.00  0.00    -0.248 OA
ATOM     24  C   UNL     1     -36.030  20.216   0.787  0.00  0.00    +0.332 C 
BRANCH  24  25
ATOM     25  O   UNL     1     -36.718  19.357   1.576  0.00  0.00    -0.479 OA
ATOM     26  H   UNL     1     -36.844  19.554   2.485  0.00  0.00    +0.295 HD
ENDBRANCH  24  25
ENDBRANCH  15  24
ENDBRANCH   1  15
TORSDOF 7
ENDMDL
MODEL 8
REMARK VINA RESULT:      -5.9      3.368      6.663
REMARK  Name = 192020
REMARK  7 active torsions:
REMARK  status: ('A' for Active; 'I' for Inactive)
REMARK    1  A    between atoms: C_1  and  C_3
REMARK    2  A    between atoms: C_1  and  CA_15
REMARK    3  A    between atoms: C_9  and  N_14
REMARK    4  A    between atoms: CA_15  and  N_17
REMARK    5  A    between atoms: CA_15  and  C_24
REMARK    6  A    between atoms: C_18  and  C_22
REMARK    7  A    between atoms: C_24  and  O_25
REMARK                            x       y       z     vdW  Elec       q    Type
REMARK                         _______ _______ _______ _____ _____    ______ ____
ROOT
ATOM      1  C   UNL     1     -35.258  22.007   2.095  0.00  0.00    +0.059 C 
ENDROOT
BRANCH   1   3
ATOM      2  N   UNL     1     -35.716  22.783   5.634  0.00  0.00    -0.312 N 
ATOM      3  C   UNL     1     -35.429  22.590   3.441  0.00  0.00    -0.004 C 
ATOM      4  C   UNL     1     -35.460  23.976   3.765  0.00  0.00    +0.012 C 
ATOM      5  C   UNL     1     -35.641  24.069   5.147  0.00  0.00    +0.048 C 
ATOM      6  C   UNL     1     -35.589  21.883   4.610  0.00  0.00    +0.058 C 
ATOM      7  C   UNL     1     -35.351  25.163   3.014  0.00  0.00    +0.025 C 
ATOM      8  C   UNL     1     -35.718  25.295   5.818  0.00  0.00    +0.016 C 
ATOM      9  C   UNL     1     -35.426  26.396   3.671  0.00  0.00    +0.143 C 
ATOM     10  C   UNL     1     -35.608  26.459   5.052  0.00  0.00    +0.025 C 
ATOM     11  H   UNL     1     -35.843  22.545   6.580  0.00  0.00    +0.152 HD
BRANCH   9  14
ATOM     12  O   UNL     1     -34.659  28.550   3.401  0.00  0.00    -0.126 OA
ATOM     13  O   UNL     1     -35.881  27.662   1.803  0.00  0.00    -0.126 OA
ATOM     14  N   UNL     1     -35.316  27.597   2.920  0.00  0.00    +0.058 N 
ENDBRANCH   9  14
ENDBRANCH   1   3
BRANCH   1  15
ATOM     15  CA  UNL     1     -36.588  21.651   1.388  0.00  0.00    +0.176 C 
BRANCH  15  17
ATOM     16  O   UNL     1     -38.523  23.423   0.233  0.00  0.00    -0.272 OA
ATOM     17  N   UNL     1     -37.704  22.261   2.066  0.00  0.00    -0.294 N 
ATOM     18  C   UNL     1     -38.593  23.110   1.420  0.00  0.00    +0.253 C 
ATOM     19  H   UNL     1     -37.841  22.069   3.021  0.00  0.00    +0.150 HD
BRANCH  18  22
ATOM     20 CL   UNL     1     -38.971  24.850   3.398  0.00  0.00    -0.087 Cl
ATOM     21 CL   UNL     1     -40.963  24.316   1.331  0.00  0.00    -0.087 Cl
ATOM     22  C   UNL     1     -39.679  23.623   2.336  0.00  0.00    +0.234 C 
ENDBRANCH  18  22
ENDBRANCH  15  17
BRANCH  15  24
ATOM     23  OXT UNL     1     -36.807  19.546   0.214  0.00  0.00    -0.248 OA
ATOM     24  C   UNL     1     -36.766  20.142   1.286  0.00  0.00    +0.332 C 
BRANCH  24  25
ATOM     25  O   UNL     1     -36.869  19.500   2.473  0.00  0.00    -0.479 OA
ATOM     26  H   UNL     1     -37.544  19.739   3.079  0.00  0.00    +0.295 HD
ENDBRANCH  24  25
ENDBRANCH  15  24
ENDBRANCH   1  15
TORSDOF 7
ENDMDL
MODEL 9
REMARK VINA RESULT:      -5.8      4.066      7.188
REMARK  Name = 192020
REMARK  7 active torsions:
REMARK  status: ('A' for Active; 'I' for Inactive)
REMARK    1  A    between atoms: C_1  and  C_3
REMARK    2  A    between atoms: C_1  and  CA_15
REMARK    3  A    between atoms: C_9  and  N_14
REMARK    4  A    between atoms: CA_15  and  N_17
REMARK    5  A    between atoms: CA_15  and  C_24
REMARK    6  A    between atoms: C_18  and  C_22
REMARK    7  A    between atoms: C_24  and  O_25
REMARK                            x       y       z     vdW  Elec       q    Type
REMARK                         _______ _______ _______ _____ _____    ______ ____
ROOT
ATOM      1  C   UNL     1     -35.645  24.169   3.996  0.00  0.00    +0.059 C 
ENDROOT
BRANCH   1   3
ATOM      2  N   UNL     1     -33.423  24.927   1.200  0.00  0.00    -0.312 N 
ATOM      3  C   UNL     1     -34.641  24.673   3.039  0.00  0.00    -0.004 C 
ATOM      4  C   UNL     1     -33.707  25.723   3.265  0.00  0.00    +0.012 C 
ATOM      5  C   UNL     1     -32.956  25.863   2.096  0.00  0.00    +0.048 C 
ATOM      6  C   UNL     1     -34.442  24.204   1.761  0.00  0.00    +0.058 C 
ATOM      7  C   UNL     1     -33.428  26.571   4.355  0.00  0.00    +0.025 C 
ATOM      8  C   UNL     1     -31.936  26.812   1.962  0.00  0.00    +0.016 C 
ATOM      9  C   UNL     1     -32.411  27.525   4.236  0.00  0.00    +0.143 C 
ATOM     10  C   UNL     1     -31.677  27.641   3.057  0.00  0.00    +0.025 C 
ATOM     11  H   UNL     1     -33.076  24.798   0.288  0.00  0.00    +0.152 HD
BRANCH   9  14
ATOM     12  O   UNL     1     -31.373  27.965   6.243  0.00  0.00    -0.126 OA
ATOM     13  O   UNL     1     -32.635  29.528   5.347  0.00  0.00    -0.126 OA
ATOM     14  N   UNL     1     -32.125  28.383   5.331  0.00  0.00    +0.058 N 
ENDBRANCH   9  14
ENDBRANCH   1   3
BRANCH   1  15
ATOM     15  CA  UNL     1     -35.879  22.641   3.920  0.00  0.00    +0.176 C 
BRANCH  15  17
ATOM     16  O   UNL     1     -36.573  21.367   1.446  0.00  0.00    -0.272 OA
ATOM     17  N   UNL     1     -37.210  22.353   3.447  0.00  0.00    -0.294 N 
ATOM     18  C   UNL     1     -37.449  21.730   2.229  0.00  0.00    +0.253 C 
ATOM     19  H   UNL     1     -37.977  22.607   4.007  0.00  0.00    +0.150 HD
BRANCH  18  22
ATOM     20 CL   UNL     1     -39.744  23.078   2.227  0.00  0.00    -0.087 Cl
ATOM     21 CL   UNL     1     -39.099  21.007   0.271  0.00  0.00    -0.087 Cl
ATOM     22  C   UNL     1     -38.921  21.534   1.953  0.00  0.00    +0.234 C 
ENDBRANCH  18  22
ENDBRANCH  15  17
BRANCH  15  24
ATOM     23  OXT UNL     1     -35.840  22.536   6.337  0.00  0.00    -0.248 OA
ATOM     24  C   UNL     1     -35.620  21.979   5.266  0.00  0.00    +0.332 C 
BRANCH  24  25
ATOM     25  O   UNL     1     -35.132  20.718   5.194  0.00  0.00    -0.479 OA
ATOM     26  H   UNL     1     -34.233  20.550   5.404  0.00  0.00    +0.295 HD
ENDBRANCH  24  25
ENDBRANCH  15  24
ENDBRANCH   1  15
TORSDOF 7
ENDMDL
