MODEL 1
REMARK VINA RESULT:      -7.4      0.000      0.000
REMARK  Name = 5706731
REMARK  7 active torsions:
REMARK  status: ('A' for Active; 'I' for Inactive)
REMARK    1  A    between atoms: C_1  and  C_21
REMARK    2  A    between atoms: C_2  and  S_7
REMARK    3  A    between atoms: C_3  and  N_12
REMARK    4  A    between atoms: C_13  and  C_15
REMARK    5  A    between atoms: C_22  and  C_23
REMARK    6  A    between atoms: C_24  and  S_29
REMARK    7  A    between atoms: C_27  and  N_33
REMARK                            x       y       z     vdW  Elec       q    Type
REMARK                         _______ _______ _______ _____ _____    ______ ____
ROOT
ATOM      1  C   UNL     1     -35.638  27.639   1.501  0.00  0.00    +0.018 C 
ATOM      2  C   UNL     1     -34.996  28.499   2.393  0.00  0.00    +0.114 C 
ATOM      3  C   UNL     1     -36.222  30.345   1.477  0.00  0.00    +0.052 C 
ATOM      4  C   UNL     1     -35.290  29.863   2.381  0.00  0.00    +0.034 C 
ATOM      5  C   UNL     1     -36.573  28.143   0.598  0.00  0.00    +0.003 C 
ATOM      6  C   UNL     1     -36.868  29.507   0.586  0.00  0.00    +0.015 C 
ENDROOT
BRANCH   2   7
ATOM      7  S   UNL     1     -33.813  27.916   3.547  0.00  0.00    +0.042 S 
ATOM      8  O   UNL     1     -33.137  29.263   4.176  0.00  0.00    -0.065 OA
ATOM      9  O   UNL     1     -34.532  27.254   4.623  0.00  0.00    -0.065 OA
ATOM     10  O   UNL     1     -32.798  27.211   2.783  0.00  0.00    -0.065 OA
ENDBRANCH   2   7
BRANCH   3  12
ATOM     11  O   UNL     1     -38.866  31.756   1.490  0.00  0.00    -0.270 OA
ATOM     12  N   UNL     1     -36.520  31.730   1.465  0.00  0.00    -0.280 N 
ATOM     13  C   UNL     1     -37.777  32.352   1.471  0.00  0.00    +0.249 C 
ATOM     14  H   UNL     1     -35.743  32.335   1.451  0.00  0.00    +0.155 HD
BRANCH  13  15
ATOM     15  C   UNL     1     -37.766  33.805   1.428  0.00  0.00    +0.054 C 
ATOM     16  C   UNL     1     -36.735  34.476   0.770  0.00  0.00    +0.005 C 
ATOM     17  C   UNL     1     -38.788  34.529   2.041  0.00  0.00    +0.005 C 
ATOM     18  C   UNL     1     -36.726  35.870   0.727  0.00  0.00    +0.000 C 
ATOM     19  C   UNL     1     -38.779  35.924   1.998  0.00  0.00    +0.000 C 
ATOM     20  C   UNL     1     -37.747  36.593   1.342  0.00  0.00    +0.000 C 
ENDBRANCH  13  15
ENDBRANCH   3  12
BRANCH   1  21
ATOM     21  C   UNL     1     -35.362  26.209   1.479  0.00  0.00    +0.001 C 
ATOM     22  C   UNL     1     -36.078  25.269   2.138  0.00  0.00    +0.001 C 
BRANCH  22  23
ATOM     23  C   UNL     1     -35.811  23.820   2.100  0.00  0.00    +0.018 C 
ATOM     24  C   UNL     1     -35.674  23.083   3.266  0.00  0.00    +0.113 C 
ATOM     25  C   UNL     1     -35.703  23.219   0.854  0.00  0.00    +0.003 C 
ATOM     26  C   UNL     1     -35.422  21.713   3.185  0.00  0.00    +0.033 C 
ATOM     27  C   UNL     1     -35.311  21.097   1.938  0.00  0.00    +0.043 C 
ATOM     28  C   UNL     1     -35.451  21.850   0.773  0.00  0.00    +0.014 C 
BRANCH  24  29
ATOM     29  S   UNL     1     -35.806  23.809   4.856  0.00  0.00    +0.042 S 
ATOM     30  O   UNL     1     -36.103  22.561   5.867  0.00  0.00    -0.065 OA
ATOM     31  O   UNL     1     -34.501  24.343   5.209  0.00  0.00    -0.065 OA
ATOM     32  O   UNL     1     -36.980  24.663   4.830  0.00  0.00    -0.065 OA
ENDBRANCH  24  29
BRANCH  27  33
ATOM     33  N   UNL     1     -35.056  19.712   1.857  0.00  0.00    -0.357 N 
ATOM     34  H   UNL     1     -35.709  19.117   1.422  0.00  0.00    +0.142 HD
ATOM     35  H   UNL     1     -34.226  19.341   2.233  0.00  0.00    +0.142 HD
ENDBRANCH  27  33
ENDBRANCH  22  23
ENDBRANCH   1  21
TORSDOF 7
ENDMDL
MODEL 2
REMARK VINA RESULT:      -7.1      1.776      2.071
REMARK  Name = 5706731
REMARK  7 active torsions:
REMARK  status: ('A' for Active; 'I' for Inactive)
REMARK    1  A    between atoms: C_1  and  C_21
REMARK    2  A    between atoms: C_2  and  S_7
REMARK    3  A    between atoms: C_3  and  N_12
REMARK    4  A    between atoms: C_13  and  C_15
REMARK    5  A    between atoms: C_22  and  C_23
REMARK    6  A    between atoms: C_24  and  S_29
REMARK    7  A    between atoms: C_27  and  N_33
REMARK                            x       y       z     vdW  Elec       q    Type
REMARK                         _______ _______ _______ _____ _____    ______ ____
ROOT
ATOM      1  C   UNL     1     -36.019  27.755   1.495  0.00  0.00    +0.018 C 
ATOM      2  C   UNL     1     -35.224  28.572   2.299  0.00  0.00    +0.114 C 
ATOM      3  C   UNL     1     -36.249  30.509   1.326  0.00  0.00    +0.052 C 
ATOM      4  C   UNL     1     -35.339  29.960   2.214  0.00  0.00    +0.034 C 
ATOM      5  C   UNL     1     -36.931  28.326   0.607  0.00  0.00    +0.003 C 
ATOM      6  C   UNL     1     -37.046  29.713   0.521  0.00  0.00    +0.015 C 
ENDROOT
BRANCH   2   7
ATOM      7  S   UNL     1     -34.063  27.905   3.430  0.00  0.00    +0.042 S 
ATOM      8  O   UNL     1     -33.355  29.203   4.124  0.00  0.00    -0.065 OA
ATOM      9  O   UNL     1     -34.806  27.215   4.472  0.00  0.00    -0.065 OA
ATOM     10  O   UNL     1     -33.063  27.209   2.640  0.00  0.00    -0.065 OA
ENDBRANCH   2   7
BRANCH   3  12
ATOM     11  O   UNL     1     -38.619  32.286   1.784  0.00  0.00    -0.270 OA
ATOM     12  N   UNL     1     -36.367  31.918   1.239  0.00  0.00    -0.280 N 
ATOM     13  C   UNL     1     -37.499  32.715   1.462  0.00  0.00    +0.249 C 
ATOM     14  H   UNL     1     -35.546  32.401   0.990  0.00  0.00    +0.155 HD
BRANCH  13  15
ATOM     15  C   UNL     1     -37.318  34.144   1.269  0.00  0.00    +0.054 C 
ATOM     16  C   UNL     1     -36.112  34.632   0.764  0.00  0.00    +0.005 C 
ATOM     17  C   UNL     1     -38.349  35.028   1.586  0.00  0.00    +0.005 C 
ATOM     18  C   UNL     1     -35.939  36.004   0.577  0.00  0.00    +0.000 C 
ATOM     19  C   UNL     1     -38.176  36.399   1.399  0.00  0.00    +0.000 C 
ATOM     20  C   UNL     1     -36.970  36.886   0.896  0.00  0.00    +0.000 C 
ENDBRANCH  13  15
ENDBRANCH   3  12
BRANCH   1  21
ATOM     21  C   UNL     1     -35.932  26.302   1.552  0.00  0.00    +0.001 C 
ATOM     22  C   UNL     1     -36.851  25.490   2.123  0.00  0.00    +0.001 C 
BRANCH  22  23
ATOM     23  C   UNL     1     -36.773  24.019   2.164  0.00  0.00    +0.018 C 
ATOM     24  C   UNL     1     -37.917  23.237   2.178  0.00  0.00    +0.113 C 
ATOM     25  C   UNL     1     -35.510  23.444   2.187  0.00  0.00    +0.003 C 
ATOM     26  C   UNL     1     -37.798  21.847   2.216  0.00  0.00    +0.033 C 
ATOM     27  C   UNL     1     -36.534  21.257   2.239  0.00  0.00    +0.043 C 
ATOM     28  C   UNL     1     -35.391  22.055   2.225  0.00  0.00    +0.014 C 
BRANCH  24  29
ATOM     29  S   UNL     1     -39.527  23.930   2.148  0.00  0.00    +0.042 S 
ATOM     30  O   UNL     1     -40.528  22.661   1.912  0.00  0.00    -0.065 OA
ATOM     31  O   UNL     1     -39.807  24.455   3.475  0.00  0.00    -0.065 OA
ATOM     32  O   UNL     1     -39.593  24.786   0.977  0.00  0.00    -0.065 OA
ENDBRANCH  24  29
BRANCH  27  33
ATOM     33  N   UNL     1     -36.413  19.851   2.278  0.00  0.00    -0.357 N 
ATOM     34  H   UNL     1     -36.201  19.354   1.455  0.00  0.00    +0.142 HD
ATOM     35  H   UNL     1     -36.541  19.370   3.127  0.00  0.00    +0.142 HD
ENDBRANCH  27  33
ENDBRANCH  22  23
ENDBRANCH   1  21
TORSDOF 7
ENDMDL
MODEL 3
REMARK VINA RESULT:      -7.0      3.457     10.250
REMARK  Name = 5706731
REMARK  7 active torsions:
REMARK  status: ('A' for Active; 'I' for Inactive)
REMARK    1  A    between atoms: C_1  and  C_21
REMARK    2  A    between atoms: C_2  and  S_7
REMARK    3  A    between atoms: C_3  and  N_12
REMARK    4  A    between atoms: C_13  and  C_15
REMARK    5  A    between atoms: C_22  and  C_23
REMARK    6  A    between atoms: C_24  and  S_29
REMARK    7  A    between atoms: C_27  and  N_33
REMARK                            x       y       z     vdW  Elec       q    Type
REMARK                         _______ _______ _______ _____ _____    ______ ____
ROOT
ATOM      1  C   UNL     1     -33.413  30.116   3.166  0.00  0.00    +0.018 C 
ATOM      2  C   UNL     1     -32.578  29.374   4.002  0.00  0.00    +0.114 C 
ATOM      3  C   UNL     1     -33.981  27.456   3.681  0.00  0.00    +0.052 C 
ATOM      4  C   UNL     1     -32.864  28.033   4.262  0.00  0.00    +0.034 C 
ATOM      5  C   UNL     1     -34.533  29.518   2.590  0.00  0.00    +0.003 C 
ATOM      6  C   UNL     1     -34.819  28.178   2.850  0.00  0.00    +0.015 C 
ENDROOT
BRANCH   2   7
ATOM      7  S   UNL     1     -31.159  30.078   4.751  0.00  0.00    +0.042 S 
ATOM      8  O   UNL     1     -30.461  28.851   5.573  0.00  0.00    -0.065 OA
ATOM      9  O   UNL     1     -30.240  30.460   3.690  0.00  0.00    -0.065 OA
ATOM     10  O   UNL     1     -31.637  31.057   5.712  0.00  0.00    -0.065 OA
ENDBRANCH   2   7
BRANCH   3  12
ATOM     11  O   UNL     1     -35.971  26.229   5.557  0.00  0.00    -0.270 OA
ATOM     12  N   UNL     1     -34.271  26.095   3.944  0.00  0.00    -0.280 N 
ATOM     13  C   UNL     1     -35.214  25.560   4.834  0.00  0.00    +0.249 C 
ATOM     14  H   UNL     1     -33.742  25.438   3.436  0.00  0.00    +0.155 HD
BRANCH  13  15
ATOM     15  C   UNL     1     -35.266  24.109   4.908  0.00  0.00    +0.054 C 
ATOM     16  C   UNL     1     -35.220  23.472   6.148  0.00  0.00    +0.005 C 
ATOM     17  C   UNL     1     -35.363  23.353   3.740  0.00  0.00    +0.005 C 
ATOM     18  C   UNL     1     -35.270  22.080   6.220  0.00  0.00    +0.000 C 
ATOM     19  C   UNL     1     -35.414  21.961   3.811  0.00  0.00    +0.000 C 
ATOM     20  C   UNL     1     -35.366  21.325   5.051  0.00  0.00    +0.000 C 
ENDBRANCH  13  15
ENDBRANCH   3  12
BRANCH   1  21
ATOM     21  C   UNL     1     -33.152  31.518   2.868  0.00  0.00    +0.001 C 
ATOM     22  C   UNL     1     -34.002  32.345   2.217  0.00  0.00    +0.001 C 
BRANCH  22  23
ATOM     23  C   UNL     1     -33.746  33.768   1.932  0.00  0.00    +0.018 C 
ATOM     24  C   UNL     1     -34.582  34.497   1.100  0.00  0.00    +0.113 C 
ATOM     25  C   UNL     1     -32.638  34.354   2.528  0.00  0.00    +0.003 C 
ATOM     26  C   UNL     1     -34.304  35.843   0.857  0.00  0.00    +0.033 C 
ATOM     27  C   UNL     1     -33.193  36.443   1.450  0.00  0.00    +0.043 C 
ATOM     28  C   UNL     1     -32.360  35.698   2.285  0.00  0.00    +0.014 C 
BRANCH  24  29
ATOM     29  S   UNL     1     -35.990  33.791   0.332  0.00  0.00    +0.042 S 
ATOM     30  O   UNL     1     -36.622  34.991  -0.578  0.00  0.00    -0.065 OA
ATOM     31  O   UNL     1     -35.526  32.760  -0.582  0.00  0.00    -0.065 OA
ATOM     32  O   UNL     1     -36.933  33.479   1.392  0.00  0.00    -0.065 OA
ENDBRANCH  24  29
BRANCH  27  33
ATOM     33  N   UNL     1     -32.911  37.804   1.204  0.00  0.00    -0.357 N 
ATOM     34  H   UNL     1     -32.562  38.372   1.929  0.00  0.00    +0.142 HD
ATOM     35  H   UNL     1     -33.064  38.183   0.309  0.00  0.00    +0.142 HD
ENDBRANCH  27  33
ENDBRANCH  22  23
ENDBRANCH   1  21
TORSDOF 7
ENDMDL
MODEL 4
REMARK VINA RESULT:      -7.0      5.648      6.961
REMARK  Name = 5706731
REMARK  7 active torsions:
REMARK  status: ('A' for Active; 'I' for Inactive)
REMARK    1  A    between atoms: C_1  and  C_21
REMARK    2  A    between atoms: C_2  and  S_7
REMARK    3  A    between atoms: C_3  and  N_12
REMARK    4  A    between atoms: C_13  and  C_15
REMARK    5  A    between atoms: C_22  and  C_23
REMARK    6  A    between atoms: C_24  and  S_29
REMARK    7  A    between atoms: C_27  and  N_33
REMARK                            x       y       z     vdW  Elec       q    Type
REMARK                         _______ _______ _______ _____ _____    ______ ____
ROOT
ATOM      1  C   UNL     1     -36.640  22.129   2.321  0.00  0.00    +0.018 C 
ATOM      2  C   UNL     1     -36.721  23.151   3.267  0.00  0.00    +0.114 C 
ATOM      3  C   UNL     1     -38.959  23.624   2.549  0.00  0.00    +0.052 C 
ATOM      4  C   UNL     1     -37.890  23.905   3.383  0.00  0.00    +0.034 C 
ATOM      5  C   UNL     1     -37.727  21.861   1.490  0.00  0.00    +0.003 C 
ATOM      6  C   UNL     1     -38.896  22.614   1.604  0.00  0.00    +0.015 C 
ENDROOT
BRANCH   2   7
ATOM      7  S   UNL     1     -35.383  23.529   4.335  0.00  0.00    +0.042 S 
ATOM      8  O   UNL     1     -35.966  24.658   5.360  0.00  0.00    -0.065 OA
ATOM      9  O   UNL     1     -35.097  22.341   5.124  0.00  0.00    -0.065 OA
ATOM     10  O   UNL     1     -34.356  24.145   3.514  0.00  0.00    -0.065 OA
ENDBRANCH   2   7
BRANCH   3  12
ATOM     11  O   UNL     1     -39.415  26.562   2.165  0.00  0.00    -0.270 OA
ATOM     12  N   UNL     1     -40.146  24.389   2.665  0.00  0.00    -0.280 N 
ATOM     13  C   UNL     1     -40.317  25.768   2.477  0.00  0.00    +0.249 C 
ATOM     14  H   UNL     1     -40.956  23.887   2.911  0.00  0.00    +0.155 HD
BRANCH  13  15
ATOM     15  C   UNL     1     -41.662  26.276   2.696  0.00  0.00    +0.054 C 
ATOM     16  C   UNL     1     -42.676  25.979   1.787  0.00  0.00    +0.005 C 
ATOM     17  C   UNL     1     -41.937  27.061   3.816  0.00  0.00    +0.005 C 
ATOM     18  C   UNL     1     -43.967  26.466   1.997  0.00  0.00    +0.000 C 
ATOM     19  C   UNL     1     -43.227  27.548   4.027  0.00  0.00    +0.000 C 
ATOM     20  C   UNL     1     -44.241  27.251   3.116  0.00  0.00    +0.000 C 
ENDBRANCH  13  15
ENDBRANCH   3  12
BRANCH   1  21
ATOM     21  C   UNL     1     -35.440  21.318   2.167  0.00  0.00    +0.001 C 
ATOM     22  C   UNL     1     -34.819  21.064   0.992  0.00  0.00    +0.001 C 
BRANCH  22  23
ATOM     23  C   UNL     1     -33.594  20.259   0.838  0.00  0.00    +0.018 C 
ATOM     24  C   UNL     1     -32.533  20.704   0.065  0.00  0.00    +0.113 C 
ATOM     25  C   UNL     1     -33.541  19.038   1.496  0.00  0.00    +0.003 C 
ATOM     26  C   UNL     1     -31.391  19.910  -0.054  0.00  0.00    +0.033 C 
ATOM     27  C   UNL     1     -31.326  18.681   0.603  0.00  0.00    +0.043 C 
ATOM     28  C   UNL     1     -32.401  18.245   1.377  0.00  0.00    +0.014 C 
BRANCH  24  29
ATOM     29  S   UNL     1     -32.565  22.240  -0.779  0.00  0.00    +0.042 S 
ATOM     30  O   UNL     1     -31.040  22.457  -1.319  0.00  0.00    -0.065 OA
ATOM     31  O   UNL     1     -33.415  22.085  -1.948  0.00  0.00    -0.065 OA
ATOM     32  O   UNL     1     -32.846  23.259   0.217  0.00  0.00    -0.065 OA
ENDBRANCH  24  29
BRANCH  27  33
ATOM     33  N   UNL     1     -30.171  17.878   0.483  0.00  0.00    -0.357 N 
ATOM     34  H   UNL     1     -29.332  18.271   0.152  0.00  0.00    +0.142 HD
ATOM     35  H   UNL     1     -30.207  16.926   0.732  0.00  0.00    +0.142 HD
ENDBRANCH  27  33
ENDBRANCH  22  23
ENDBRANCH   1  21
TORSDOF 7
ENDMDL
MODEL 5
REMARK VINA RESULT:      -6.9      2.741      3.346
REMARK  Name = 5706731
REMARK  7 active torsions:
REMARK  status: ('A' for Active; 'I' for Inactive)
REMARK    1  A    between atoms: C_1  and  C_21
REMARK    2  A    between atoms: C_2  and  S_7
REMARK    3  A    between atoms: C_3  and  N_12
REMARK    4  A    between atoms: C_13  and  C_15
REMARK    5  A    between atoms: C_22  and  C_23
REMARK    6  A    between atoms: C_24  and  S_29
REMARK    7  A    between atoms: C_27  and  N_33
REMARK                            x       y       z     vdW  Elec       q    Type
REMARK                         _______ _______ _______ _____ _____    ______ ____
ROOT
ATOM      1  C   UNL     1     -34.147  26.667   2.119  0.00  0.00    +0.018 C 
ATOM      2  C   UNL     1     -33.919  27.284   3.348  0.00  0.00    +0.114 C 
ATOM      3  C   UNL     1     -33.537  29.365   2.219  0.00  0.00    +0.052 C 
ATOM      4  C   UNL     1     -33.611  28.645   3.400  0.00  0.00    +0.034 C 
ATOM      5  C   UNL     1     -34.068  27.408   0.940  0.00  0.00    +0.003 C 
ATOM      6  C   UNL     1     -33.760  28.768   0.991  0.00  0.00    +0.015 C 
ENDROOT
BRANCH   2   7
ATOM      7  S   UNL     1     -34.006  26.397   4.858  0.00  0.00    +0.042 S 
ATOM      8  O   UNL     1     -33.179  27.308   5.932  0.00  0.00    -0.065 OA
ATOM      9  O   UNL     1     -35.396  26.386   5.286  0.00  0.00    -0.065 OA
ATOM     10  O   UNL     1     -33.277  25.157   4.655  0.00  0.00    -0.065 OA
ENDBRANCH   2   7
BRANCH   3  12
ATOM     11  O   UNL     1     -35.325  31.763   2.031  0.00  0.00    -0.270 OA
ATOM     12  N   UNL     1     -33.224  30.746   2.271  0.00  0.00    -0.280 N 
ATOM     13  C   UNL     1     -34.094  31.842   2.178  0.00  0.00    +0.249 C 
ATOM     14  H   UNL     1     -32.271  30.964   2.387  0.00  0.00    +0.155 HD
BRANCH  13  15
ATOM     15  C   UNL     1     -33.471  33.154   2.238  0.00  0.00    +0.054 C 
ATOM     16  C   UNL     1     -32.191  33.294   2.775  0.00  0.00    +0.005 C 
ATOM     17  C   UNL     1     -34.152  34.272   1.758  0.00  0.00    +0.005 C 
ATOM     18  C   UNL     1     -31.593  34.553   2.831  0.00  0.00    +0.000 C 
ATOM     19  C   UNL     1     -33.554  35.531   1.815  0.00  0.00    +0.000 C 
ATOM     20  C   UNL     1     -32.275  35.671   2.352  0.00  0.00    +0.000 C 
ENDBRANCH  13  15
ENDBRANCH   3  12
BRANCH   1  21
ATOM     21  C   UNL     1     -34.472  25.250   2.019  0.00  0.00    +0.001 C 
ATOM     22  C   UNL     1     -35.719  24.731   2.093  0.00  0.00    +0.001 C 
BRANCH  22  23
ATOM     23  C   UNL     1     -36.050  23.300   1.973  0.00  0.00    +0.018 C 
ATOM     24  C   UNL     1     -37.357  22.852   2.074  0.00  0.00    +0.113 C 
ATOM     25  C   UNL     1     -35.003  22.415   1.753  0.00  0.00    +0.003 C 
ATOM     26  C   UNL     1     -37.627  21.489   1.954  0.00  0.00    +0.033 C 
ATOM     27  C   UNL     1     -36.583  20.589   1.733  0.00  0.00    +0.043 C 
ATOM     28  C   UNL     1     -35.272  21.053   1.633  0.00  0.00    +0.014 C 
BRANCH  24  29
ATOM     29  S   UNL     1     -38.703  23.941   2.350  0.00  0.00    +0.042 S 
ATOM     30  O   UNL     1     -40.029  22.987   2.332  0.00  0.00    -0.065 OA
ATOM     31  O   UNL     1     -38.575  24.470   3.698  0.00  0.00    -0.065 OA
ATOM     32  O   UNL     1     -38.765  24.828   1.202  0.00  0.00    -0.065 OA
ENDBRANCH  24  29
BRANCH  27  33
ATOM     33  N   UNL     1     -36.855  19.210   1.611  0.00  0.00    -0.357 N 
ATOM     34  H   UNL     1     -37.785  18.897   1.528  0.00  0.00    +0.142 HD
ATOM     35  H   UNL     1     -36.115  18.561   1.610  0.00  0.00    +0.142 HD
ENDBRANCH  27  33
ENDBRANCH  22  23
ENDBRANCH   1  21
TORSDOF 7
ENDMDL
MODEL 6
REMARK VINA RESULT:      -6.9      2.601      9.924
REMARK  Name = 5706731
REMARK  7 active torsions:
REMARK  status: ('A' for Active; 'I' for Inactive)
REMARK    1  A    between atoms: C_1  and  C_21
REMARK    2  A    between atoms: C_2  and  S_7
REMARK    3  A    between atoms: C_3  and  N_12
REMARK    4  A    between atoms: C_13  and  C_15
REMARK    5  A    between atoms: C_22  and  C_23
REMARK    6  A    between atoms: C_24  and  S_29
REMARK    7  A    between atoms: C_27  and  N_33
REMARK                            x       y       z     vdW  Elec       q    Type
REMARK                         _______ _______ _______ _____ _____    ______ ____
ROOT
ATOM      1  C   UNL     1     -35.532  29.547   1.843  0.00  0.00    +0.018 C 
ATOM      2  C   UNL     1     -34.577  29.188   2.795  0.00  0.00    +0.114 C 
ATOM      3  C   UNL     1     -35.429  26.947   2.787  0.00  0.00    +0.052 C 
ATOM      4  C   UNL     1     -34.524  27.877   3.271  0.00  0.00    +0.034 C 
ATOM      5  C   UNL     1     -36.435  28.596   1.368  0.00  0.00    +0.003 C 
ATOM      6  C   UNL     1     -36.383  27.286   1.844  0.00  0.00    +0.015 C 
ENDROOT
BRANCH   2   7
ATOM      7  S   UNL     1     -33.421  30.345   3.424  0.00  0.00    +0.042 S 
ATOM      8  O   UNL     1     -32.553  29.516   4.531  0.00  0.00    -0.065 OA
ATOM      9  O   UNL     1     -32.513  30.697   2.344  0.00  0.00    -0.065 OA
ATOM     10  O   UNL     1     -34.188  31.365   4.118  0.00  0.00    -0.065 OA
ENDBRANCH   2   7
BRANCH   3  12
ATOM     11  O   UNL     1     -36.243  25.817   5.442  0.00  0.00    -0.270 OA
ATOM     12  N   UNL     1     -35.376  25.616   3.271  0.00  0.00    -0.280 N 
ATOM     13  C   UNL     1     -35.768  25.127   4.525  0.00  0.00    +0.249 C 
ATOM     14  H   UNL     1     -35.017  24.947   2.644  0.00  0.00    +0.155 HD
BRANCH  13  15
ATOM     15  C   UNL     1     -35.567  23.703   4.743  0.00  0.00    +0.054 C 
ATOM     16  C   UNL     1     -35.602  22.821   3.663  0.00  0.00    +0.005 C 
ATOM     17  C   UNL     1     -35.337  23.220   6.031  0.00  0.00    +0.005 C 
ATOM     18  C   UNL     1     -35.408  21.455   3.872  0.00  0.00    +0.000 C 
ATOM     19  C   UNL     1     -35.143  21.854   6.240  0.00  0.00    +0.000 C 
ATOM     20  C   UNL     1     -35.179  20.973   5.160  0.00  0.00    +0.000 C 
ENDBRANCH  13  15
ENDBRANCH   3  12
BRANCH   1  21
ATOM     21  C   UNL     1     -35.622  30.903   1.319  0.00  0.00    +0.001 C 
ATOM     22  C   UNL     1     -36.597  31.791   1.623  0.00  0.00    +0.001 C 
BRANCH  22  23
ATOM     23  C   UNL     1     -36.678  33.169   1.107  0.00  0.00    +0.018 C 
ATOM     24  C   UNL     1     -37.777  33.603   0.382  0.00  0.00    +0.113 C 
ATOM     25  C   UNL     1     -35.614  34.019   1.375  0.00  0.00    +0.003 C 
ATOM     26  C   UNL     1     -37.814  34.916  -0.088  0.00  0.00    +0.033 C 
ATOM     27  C   UNL     1     -36.750  35.780   0.175  0.00  0.00    +0.043 C 
ATOM     28  C   UNL     1     -35.651  35.331   0.906  0.00  0.00    +0.014 C 
BRANCH  24  29
ATOM     29  S   UNL     1     -39.138  32.557   0.026  0.00  0.00    +0.042 S 
ATOM     30  O   UNL     1     -40.249  33.532  -0.669  0.00  0.00    -0.065 OA
ATOM     31  O   UNL     1     -38.712  31.604  -0.985  0.00  0.00    -0.065 OA
ATOM     32  O   UNL     1     -39.664  32.106   1.303  0.00  0.00    -0.065 OA
ENDBRANCH  24  29
BRANCH  27  33
ATOM     33  N   UNL     1     -36.787  37.108  -0.300  0.00  0.00    -0.357 N 
ATOM     34  H   UNL     1     -37.399  37.352  -1.031  0.00  0.00    +0.142 HD
ATOM     35  H   UNL     1     -36.201  37.790   0.101  0.00  0.00    +0.142 HD
ENDBRANCH  27  33
ENDBRANCH  22  23
ENDBRANCH   1  21
TORSDOF 7
ENDMDL
MODEL 7
REMARK VINA RESULT:      -6.8      5.331      6.977
REMARK  Name = 5706731
REMARK  7 active torsions:
REMARK  status: ('A' for Active; 'I' for Inactive)
REMARK    1  A    between atoms: C_1  and  C_21
REMARK    2  A    between atoms: C_2  and  S_7
REMARK    3  A    between atoms: C_3  and  N_12
REMARK    4  A    between atoms: C_13  and  C_15
REMARK    5  A    between atoms: C_22  and  C_23
REMARK    6  A    between atoms: C_24  and  S_29
REMARK    7  A    between atoms: C_27  and  N_33
REMARK                            x       y       z     vdW  Elec       q    Type
REMARK                         _______ _______ _______ _____ _____    ______ ____
ROOT
ATOM      1  C   UNL     1     -37.526  21.880   2.255  0.00  0.00    +0.018 C 
ATOM      2  C   UNL     1     -37.270  22.997   3.051  0.00  0.00    +0.114 C 
ATOM      3  C   UNL     1     -39.436  23.868   2.505  0.00  0.00    +0.052 C 
ATOM      4  C   UNL     1     -38.233  23.999   3.177  0.00  0.00    +0.034 C 
ATOM      5  C   UNL     1     -38.744  21.765   1.586  0.00  0.00    +0.003 C 
ATOM      6  C   UNL     1     -39.706  22.766   1.711  0.00  0.00    +0.015 C 
ENDROOT
BRANCH   2   7
ATOM      7  S   UNL     1     -35.756  23.190   3.912  0.00  0.00    +0.042 S 
ATOM      8  O   UNL     1     -36.004  24.444   4.929  0.00  0.00    -0.065 OA
ATOM      9  O   UNL     1     -35.558  22.006   4.732  0.00  0.00    -0.065 OA
ATOM     10  O   UNL     1     -34.765  23.591   2.928  0.00  0.00    -0.065 OA
ENDBRANCH   2   7
BRANCH   3  12
ATOM     11  O   UNL     1     -39.499  26.646   1.380  0.00  0.00    -0.270 OA
ATOM     12  N   UNL     1     -40.414  24.885   2.633  0.00  0.00    -0.280 N 
ATOM     13  C   UNL     1     -40.406  26.177   2.089  0.00  0.00    +0.249 C 
ATOM     14  H   UNL     1     -41.203  24.654   3.175  0.00  0.00    +0.155 HD
BRANCH  13  15
ATOM     15  C   UNL     1     -41.548  27.013   2.420  0.00  0.00    +0.054 C 
ATOM     16  C   UNL     1     -42.053  27.021   3.720  0.00  0.00    +0.005 C 
ATOM     17  C   UNL     1     -42.138  27.809   1.438  0.00  0.00    +0.005 C 
ATOM     18  C   UNL     1     -43.149  27.824   4.037  0.00  0.00    +0.000 C 
ATOM     19  C   UNL     1     -43.234  28.612   1.756  0.00  0.00    +0.000 C 
ATOM     20  C   UNL     1     -43.739  28.618   3.055  0.00  0.00    +0.000 C 
ENDBRANCH  13  15
ENDBRANCH   3  12
BRANCH   1  21
ATOM     21  C   UNL     1     -36.549  20.811   2.095  0.00  0.00    +0.001 C 
ATOM     22  C   UNL     1     -35.987  20.441   0.922  0.00  0.00    +0.001 C 
BRANCH  22  23
ATOM     23  C   UNL     1     -34.985  19.371   0.762  0.00  0.00    +0.018 C 
ATOM     24  C   UNL     1     -35.176  18.335  -0.138  0.00  0.00    +0.113 C 
ATOM     25  C   UNL     1     -33.842  19.441   1.546  0.00  0.00    +0.003 C 
ATOM     26  C   UNL     1     -34.202  17.343  -0.258  0.00  0.00    +0.033 C 
ATOM     27  C   UNL     1     -33.049  17.401   0.525  0.00  0.00    +0.043 C 
ATOM     28  C   UNL     1     -32.869  18.450   1.427  0.00  0.00    +0.014 C 
BRANCH  24  29
ATOM     29  S   UNL     1     -36.606  18.217  -1.144  0.00  0.00    +0.042 S 
ATOM     30  O   UNL     1     -36.417  16.831  -1.987  0.00  0.00    -0.065 OA
ATOM     31  O   UNL     1     -37.751  18.031  -0.267  0.00  0.00    -0.065 OA
ATOM     32  O   UNL     1     -36.554  19.328  -2.078  0.00  0.00    -0.065 OA
ENDBRANCH  24  29
BRANCH  27  33
ATOM     33  N   UNL     1     -32.063  16.398   0.404  0.00  0.00    -0.357 N 
ATOM     34  H   UNL     1     -31.109  16.643   0.408  0.00  0.00    +0.142 HD
ATOM     35  H   UNL     1     -32.330  15.455   0.316  0.00  0.00    +0.142 HD
ENDBRANCH  27  33
ENDBRANCH  22  23
ENDBRANCH   1  21
TORSDOF 7
ENDMDL
MODEL 8
REMARK VINA RESULT:      -6.8      7.001     10.916
REMARK  Name = 5706731
REMARK  7 active torsions:
REMARK  status: ('A' for Active; 'I' for Inactive)
REMARK    1  A    between atoms: C_1  and  C_21
REMARK    2  A    between atoms: C_2  and  S_7
REMARK    3  A    between atoms: C_3  and  N_12
REMARK    4  A    between atoms: C_13  and  C_15
REMARK    5  A    between atoms: C_22  and  C_23
REMARK    6  A    between atoms: C_24  and  S_29
REMARK    7  A    between atoms: C_27  and  N_33
REMARK                            x       y       z     vdW  Elec       q    Type
REMARK                         _______ _______ _______ _____ _____    ______ ____
ROOT
ATOM      1  C   UNL     1     -35.096  18.132   0.028  0.00  0.00    +0.018 C 
ATOM      2  C   UNL     1     -36.325  18.790   0.094  0.00  0.00    +0.114 C 
ATOM      3  C   UNL     1     -35.358  20.424   1.558  0.00  0.00    +0.052 C 
ATOM      4  C   UNL     1     -36.457  19.946   0.865  0.00  0.00    +0.034 C 
ATOM      5  C   UNL     1     -34.001  18.628   0.734  0.00  0.00    +0.003 C 
ATOM      6  C   UNL     1     -34.132  19.783   1.505  0.00  0.00    +0.015 C 
ENDROOT
BRANCH   2   7
ATOM      7  S   UNL     1     -37.732  18.207  -0.773  0.00  0.00    +0.042 S 
ATOM      8  O   UNL     1     -38.926  19.255  -0.394  0.00  0.00    -0.065 OA
ATOM      9  O   UNL     1     -37.469  18.352  -2.195  0.00  0.00    -0.065 OA
ATOM     10  O   UNL     1     -38.065  16.913  -0.204  0.00  0.00    -0.065 OA
ENDBRANCH   2   7
BRANCH   3  12
ATOM     11  O   UNL     1     -35.220  20.794   4.530  0.00  0.00    -0.270 OA
ATOM     12  N   UNL     1     -35.492  21.597   2.341  0.00  0.00    -0.280 N 
ATOM     13  C   UNL     1     -35.420  21.728   3.736  0.00  0.00    +0.249 C 
ATOM     14  H   UNL     1     -35.656  22.429   1.841  0.00  0.00    +0.155 HD
BRANCH  13  15
ATOM     15  C   UNL     1     -35.626  23.069   4.259  0.00  0.00    +0.054 C 
ATOM     16  C   UNL     1     -36.718  23.825   3.830  0.00  0.00    +0.005 C 
ATOM     17  C   UNL     1     -34.734  23.599   5.190  0.00  0.00    +0.005 C 
ATOM     18  C   UNL     1     -36.916  25.111   4.333  0.00  0.00    +0.000 C 
ATOM     19  C   UNL     1     -34.932  24.886   5.693  0.00  0.00    +0.000 C 
ATOM     20  C   UNL     1     -36.022  25.641   5.263  0.00  0.00    +0.000 C 
ENDBRANCH  13  15
ENDBRANCH   3  12
BRANCH   1  21
ATOM     21  C   UNL     1     -34.914  16.923  -0.765  0.00  0.00    +0.001 C 
ATOM     22  C   UNL     1     -34.318  15.790  -0.327  0.00  0.00    +0.001 C 
BRANCH  22  23
ATOM     23  C   UNL     1     -34.150  14.560  -1.123  0.00  0.00    +0.018 C 
ATOM     24  C   UNL     1     -32.894  14.121  -1.512  0.00  0.00    +0.113 C 
ATOM     25  C   UNL     1     -35.295  13.856  -1.467  0.00  0.00    +0.003 C 
ATOM     26  C   UNL     1     -32.780  12.952  -2.264  0.00  0.00    +0.033 C 
ATOM     27  C   UNL     1     -33.924  12.235  -2.617  0.00  0.00    +0.043 C 
ATOM     28  C   UNL     1     -35.181  12.688  -2.218  0.00  0.00    +0.014 C 
BRANCH  24  29
ATOM     29  S   UNL     1     -31.427  14.984  -1.095  0.00  0.00    +0.042 S 
ATOM     30  O   UNL     1     -30.224  14.143  -1.811  0.00  0.00    -0.065 OA
ATOM     31  O   UNL     1     -31.480  16.286  -1.739  0.00  0.00    -0.065 OA
ATOM     32  O   UNL     1     -31.269  14.869   0.344  0.00  0.00    -0.065 OA
ENDBRANCH  24  29
BRANCH  27  33
ATOM     33  N   UNL     1     -33.808  11.052  -3.378  0.00  0.00    -0.357 N 
ATOM     34  H   UNL     1     -32.919  10.674  -3.567  0.00  0.00    +0.142 HD
ATOM     35  H   UNL     1     -34.617  10.605  -3.717  0.00  0.00    +0.142 HD
ENDBRANCH  27  33
ENDBRANCH  22  23
ENDBRANCH   1  21
TORSDOF 7
ENDMDL
MODEL 9
REMARK VINA RESULT:      -6.7      5.654      6.884
REMARK  Name = 5706731
REMARK  7 active torsions:
REMARK  status: ('A' for Active; 'I' for Inactive)
REMARK    1  A    between atoms: C_1  and  C_21
REMARK    2  A    between atoms: C_2  and  S_7
REMARK    3  A    between atoms: C_3  and  N_12
REMARK    4  A    between atoms: C_13  and  C_15
REMARK    5  A    between atoms: C_22  and  C_23
REMARK    6  A    between atoms: C_24  and  S_29
REMARK    7  A    between atoms: C_27  and  N_33
REMARK                            x       y       z     vdW  Elec       q    Type
REMARK                         _______ _______ _______ _____ _____    ______ ____
ROOT
ATOM      1  C   UNL     1     -36.160  23.343   1.562  0.00  0.00    +0.018 C 
ATOM      2  C   UNL     1     -36.560  23.617   2.870  0.00  0.00    +0.114 C 
ATOM      3  C   UNL     1     -38.731  24.238   2.063  0.00  0.00    +0.052 C 
ATOM      4  C   UNL     1     -37.856  24.068   3.123  0.00  0.00    +0.034 C 
ATOM      5  C   UNL     1     -37.055  23.519   0.508  0.00  0.00    +0.003 C 
ATOM      6  C   UNL     1     -38.350  23.970   0.760  0.00  0.00    +0.015 C 
ENDROOT
BRANCH   2   7
ATOM      7  S   UNL     1     -35.474  23.412   4.231  0.00  0.00    +0.042 S 
ATOM      8  O   UNL     1     -36.279  24.030   5.510  0.00  0.00    -0.065 OA
ATOM      9  O   UNL     1     -35.324  21.985   4.467  0.00  0.00    -0.065 OA
ATOM     10  O   UNL     1     -34.318  24.252   3.971  0.00  0.00    -0.065 OA
ENDBRANCH   2   7
BRANCH   3  12
ATOM     11  O   UNL     1     -39.952  26.945   1.656  0.00  0.00    -0.270 OA
ATOM     12  N   UNL     1     -40.047  24.696   2.319  0.00  0.00    -0.280 N 
ATOM     13  C   UNL     1     -40.581  25.977   2.114  0.00  0.00    +0.249 C 
ATOM     14  H   UNL     1     -40.668  24.028   2.690  0.00  0.00    +0.155 HD
BRANCH  13  15
ATOM     15  C   UNL     1     -41.970  26.155   2.502  0.00  0.00    +0.054 C 
ATOM     16  C   UNL     1     -42.283  26.777   3.710  0.00  0.00    +0.005 C 
ATOM     17  C   UNL     1     -42.991  25.706   1.664  0.00  0.00    +0.005 C 
ATOM     18  C   UNL     1     -43.617  26.949   4.082  0.00  0.00    +0.000 C 
ATOM     19  C   UNL     1     -44.325  25.878   2.035  0.00  0.00    +0.000 C 
ATOM     20  C   UNL     1     -44.637  26.499   3.245  0.00  0.00    +0.000 C 
ENDBRANCH  13  15
ENDBRANCH   3  12
BRANCH   1  21
ATOM     21  C   UNL     1     -34.817  22.869   1.253  0.00  0.00    +0.001 C 
ATOM     22  C   UNL     1     -34.516  21.953   0.305  0.00  0.00    +0.001 C 
BRANCH  22  23
ATOM     23  C   UNL     1     -33.156  21.488  -0.022  0.00  0.00    +0.018 C 
ATOM     24  C   UNL     1     -32.739  20.203   0.292  0.00  0.00    +0.113 C 
ATOM     25  C   UNL     1     -32.306  22.383  -0.657  0.00  0.00    +0.003 C 
ATOM     26  C   UNL     1     -31.443  19.803  -0.035  0.00  0.00    +0.033 C 
ATOM     27  C   UNL     1     -30.580  20.694  -0.673  0.00  0.00    +0.043 C 
ATOM     28  C   UNL     1     -31.011  21.983  -0.984  0.00  0.00    +0.014 C 
BRANCH  24  29
ATOM     29  S   UNL     1     -33.786  19.047   1.093  0.00  0.00    +0.042 S 
ATOM     30  O   UNL     1     -32.818  17.783   1.456  0.00  0.00    -0.065 OA
ATOM     31  O   UNL     1     -34.213  19.634   2.352  0.00  0.00    -0.065 OA
ATOM     32  O   UNL     1     -34.757  18.609   0.106  0.00  0.00    -0.065 OA
ENDBRANCH  24  29
BRANCH  27  33
ATOM     33  N   UNL     1     -29.269  20.290  -1.005  0.00  0.00    -0.357 N 
ATOM     34  H   UNL     1     -28.984  19.362  -0.839  0.00  0.00    +0.142 HD
ATOM     35  H   UNL     1     -28.641  20.935  -1.401  0.00  0.00    +0.142 HD
ENDBRANCH  27  33
ENDBRANCH  22  23
ENDBRANCH   1  21
TORSDOF 7
ENDMDL
