MODEL 1
REMARK VINA RESULT:      -5.1      0.000      0.000
REMARK  Name = 194916
REMARK  13 active torsions:
REMARK  status: ('A' for Active; 'I' for Inactive)
REMARK    1  A    between atoms: N_2  and  CA_21
REMARK    2  A    between atoms: C_3  and  CA_7
REMARK    3  A    between atoms: C_11  and  CA_12
REMARK    4  A    between atoms: CA_12  and  N_13
REMARK    5  A    between atoms: CA_12  and  CB_17
REMARK    6  A    between atoms: CB_17  and  CG_18
REMARK    7  A    between atoms: CA_21  and  C_24
REMARK    8  A    between atoms: N_23  and  CA_26
REMARK    9  A    between atoms: CA_26  and  C_29
REMARK   10  A    between atoms: CA_26  and  CB_36
REMARK   11  A    between atoms: N_28  and  CA_31
REMARK   12  A    between atoms: CA_31  and  C_33
REMARK   13  A    between atoms: C_33  and  O_34
REMARK                            x       y       z     vdW  Elec       q    Type
REMARK                         _______ _______ _______ _____ _____    ______ ____
ROOT
ATOM      1  O   PRO A   2     -33.735  24.380   4.720  0.00  0.00    -0.273 OA
ATOM      2  N   GLY A   3     -35.570  25.726   4.226  0.00  0.00    -0.295 N 
ATOM      3  C   PRO A   2     -34.947  24.569   4.682  0.00  0.00    +0.241 C 
ATOM      4  H   GLY A   3     -36.554  25.763   4.243  0.00  0.00    +0.150 HD
ENDROOT
BRANCH   3   7
ATOM      5  O   LEU A   1     -37.166  23.547   2.574  0.00  0.00    -0.277 OA
ATOM      6  N   PRO A   2     -35.921  22.455   4.192  0.00  0.00    -0.275 N 
ATOM      7  CA  PRO A   2     -35.925  23.540   5.165  0.00  0.00    +0.152 C 
ATOM      8  CB  PRO A   2     -35.468  22.893   6.468  0.00  0.00    +0.031 C 
ATOM      9  CG  PRO A   2     -34.573  21.748   6.000  0.00  0.00    +0.024 C 
ATOM     10  CD  PRO A   2     -35.253  21.271   4.725  0.00  0.00    +0.094 C 
ATOM     11  C   LEU A   1     -36.613  22.528   2.994  0.00  0.00    +0.205 C 
BRANCH  11  12
ATOM     12  CA  LEU A   1     -36.650  21.255   2.186  0.00  0.00    +0.013 C 
BRANCH  12  13
ATOM     13  N   LEU A   1     -38.051  21.062   1.833  0.00  0.00    +0.387 N 
ATOM     14  H1  LEU A   1     -38.224  20.073   1.655  0.00  0.00    -0.089 HD
ATOM     15  H2  LEU A   1     -38.267  21.602   0.994  0.00  0.00    -0.089 HD
ATOM     16  H3  LEU A   1     -38.641  21.379   2.602  0.00  0.00    -0.089 HD
ENDBRANCH  12  13
BRANCH  12  17
ATOM     17  CB  LEU A   1     -35.793  21.383   0.925  0.00  0.00    -0.013 C 
BRANCH  17  18
ATOM     18  CG  LEU A   1     -34.298  21.055   1.123  0.00  0.00    -0.002 C 
ATOM     19  CD1 LEU A   1     -34.066  19.591   1.499  0.00  0.00    -0.000 C 
ATOM     20  CD2 LEU A   1     -33.523  21.387  -0.155  0.00  0.00    -0.000 C 
ENDBRANCH  17  18
ENDBRANCH  12  17
ENDBRANCH  11  12
ENDBRANCH   3   7
BRANCH   2  21
ATOM     21  CA  GLY A   3     -34.858  26.868   3.732  0.00  0.00    +0.176 C 
BRANCH  21  24
ATOM     22  O   GLY A   3     -35.569  28.536   2.136  0.00  0.00    -0.273 OA
ATOM     23  N   VAL A   4     -36.033  26.298   1.715  0.00  0.00    -0.297 N 
ATOM     24  C   GLY A   3     -35.499  27.350   2.449  0.00  0.00    +0.243 C 
ATOM     25  H   VAL A   4     -35.918  25.383   2.060  0.00  0.00    +0.150 HD
BRANCH  23  26
ATOM     26  CA  VAL A   4     -36.745  26.476   0.474  0.00  0.00    +0.149 C 
BRANCH  26  29
ATOM     27  O   VAL A   4     -38.773  27.777   0.751  0.00  0.00    -0.273 OA
ATOM     28  N   GLY A   5     -38.857  25.486   1.117  0.00  0.00    -0.294 N 
ATOM     29  C   VAL A   4     -38.222  26.679   0.802  0.00  0.00    +0.241 C 
ATOM     30  H   GLY A   5     -38.324  24.659   1.129  0.00  0.00    +0.150 HD
BRANCH  28  31
ATOM     31  CA  GLY A   5     -40.266  25.403   1.425  0.00  0.00    +0.200 C 
BRANCH  31  33
ATOM     32  OXT GLY A   5     -41.728  23.625   0.720  0.00  0.00    -0.248 OA
ATOM     33  C   GLY A   5     -40.788  23.989   1.416  0.00  0.00    +0.334 C 
BRANCH  33  34
ATOM     34  O   GLY A   5     -40.118  23.160   2.250  0.00  0.00    -0.479 OA
ATOM     35  H   GLY A   5     -40.567  22.752   2.964  0.00  0.00    +0.295 HD
ENDBRANCH  33  34
ENDBRANCH  31  33
ENDBRANCH  28  31
ENDBRANCH  26  29
BRANCH  26  36
ATOM     36  CB  VAL A   4     -36.521  25.318  -0.522  0.00  0.00    +0.027 C 
ATOM     37  CG1 VAL A   4     -36.900  25.682  -1.962  0.00  0.00    +0.002 C 
ATOM     38  CG2 VAL A   4     -35.072  24.823  -0.475  0.00  0.00    +0.002 C 
ENDBRANCH  26  36
ENDBRANCH  23  26
ENDBRANCH  21  24
ENDBRANCH   2  21
TORSDOF 13
ENDMDL
MODEL 2
REMARK VINA RESULT:      -5.1      3.710      7.181
REMARK  Name = 194916
REMARK  13 active torsions:
REMARK  status: ('A' for Active; 'I' for Inactive)
REMARK    1  A    between atoms: N_2  and  CA_21
REMARK    2  A    between atoms: C_3  and  CA_7
REMARK    3  A    between atoms: C_11  and  CA_12
REMARK    4  A    between atoms: CA_12  and  N_13
REMARK    5  A    between atoms: CA_12  and  CB_17
REMARK    6  A    between atoms: CB_17  and  CG_18
REMARK    7  A    between atoms: CA_21  and  C_24
REMARK    8  A    between atoms: N_23  and  CA_26
REMARK    9  A    between atoms: CA_26  and  C_29
REMARK   10  A    between atoms: CA_26  and  CB_36
REMARK   11  A    between atoms: N_28  and  CA_31
REMARK   12  A    between atoms: CA_31  and  C_33
REMARK   13  A    between atoms: C_33  and  O_34
REMARK                            x       y       z     vdW  Elec       q    Type
REMARK                         _______ _______ _______ _____ _____    ______ ____
ROOT
ATOM      1  O   PRO A   2     -31.871  26.458   2.983  0.00  0.00    -0.273 OA
ATOM      2  N   GLY A   3     -33.980  26.062   2.075  0.00  0.00    -0.295 N 
ATOM      3  C   PRO A   2     -33.060  26.741   2.867  0.00  0.00    +0.241 C 
ATOM      4  H   GLY A   3     -34.911  26.383   2.063  0.00  0.00    +0.150 HD
ENDROOT
BRANCH   3   7
ATOM      5  O   LEU A   1     -32.444  27.021   6.022  0.00  0.00    -0.277 OA
ATOM      6  N   PRO A   2     -32.593  28.573   4.311  0.00  0.00    -0.275 N 
ATOM      7  CA  PRO A   2     -33.667  27.912   3.580  0.00  0.00    +0.152 C 
ATOM      8  CB  PRO A   2     -34.178  28.967   2.605  0.00  0.00    +0.031 C 
ATOM      9  CG  PRO A   2     -32.947  29.832   2.342  0.00  0.00    +0.024 C 
ATOM     10  CD  PRO A   2     -32.234  29.843   3.686  0.00  0.00    +0.094 C 
ATOM     11  C   LEU A   1     -32.118  28.101   5.524  0.00  0.00    +0.205 C 
BRANCH  11  12
ATOM     12  CA  LEU A   1     -31.133  28.998   6.230  0.00  0.00    +0.013 C 
BRANCH  12  13
ATOM     13  N   LEU A   1     -31.687  29.206   7.562  0.00  0.00    +0.387 N 
ATOM     14  H1  LEU A   1     -31.246  28.562   8.218  0.00  0.00    -0.089 HD
ATOM     15  H2  LEU A   1     -32.692  29.037   7.541  0.00  0.00    -0.089 HD
ATOM     16  H3  LEU A   1     -31.510  30.167   7.856  0.00  0.00    -0.089 HD
ENDBRANCH  12  13
BRANCH  12  17
ATOM     17  CB  LEU A   1     -29.758  28.335   6.320  0.00  0.00    -0.013 C 
BRANCH  17  18
ATOM     18  CG  LEU A   1     -28.567  29.317   6.368  0.00  0.00    -0.002 C 
ATOM     19  CD1 LEU A   1     -28.869  30.636   5.656  0.00  0.00    -0.000 C 
ATOM     20  CD2 LEU A   1     -28.185  29.593   7.825  0.00  0.00    -0.000 C 
ENDBRANCH  17  18
ENDBRANCH  12  17
ENDBRANCH  11  12
ENDBRANCH   3   7
BRANCH   2  21
ATOM     21  CA  GLY A   3     -33.646  24.920   1.275  0.00  0.00    +0.176 C 
BRANCH  21  24
ATOM     22  O   GLY A   3     -34.484  22.658   1.153  0.00  0.00    -0.273 OA
ATOM     23  N   VAL A   4     -34.998  23.955   3.012  0.00  0.00    -0.297 N 
ATOM     24  C   GLY A   3     -34.395  23.708   1.785  0.00  0.00    +0.243 C 
ATOM     25  H   VAL A   4     -34.860  24.835   3.431  0.00  0.00    +0.150 HD
BRANCH  23  26
ATOM     26  CA  VAL A   4     -35.815  22.991   3.704  0.00  0.00    +0.149 C 
BRANCH  26  29
ATOM     27  O   VAL A   4     -37.825  22.282   2.546  0.00  0.00    -0.273 OA
ATOM     28  N   GLY A   5     -37.825  24.336   3.625  0.00  0.00    -0.294 N 
ATOM     29  C   VAL A   4     -37.251  23.144   3.208  0.00  0.00    +0.241 C 
ATOM     30  H   GLY A   5     -37.277  24.962   4.154  0.00  0.00    +0.150 HD
BRANCH  28  31
ATOM     31  CA  GLY A   5     -39.189  24.702   3.321  0.00  0.00    +0.200 C 
BRANCH  31  33
ATOM     32  OXT GLY A   5     -40.378  26.575   2.386  0.00  0.00    -0.248 OA
ATOM     33  C   GLY A   5     -39.310  26.082   2.727  0.00  0.00    +0.334 C 
BRANCH  33  34
ATOM     34  O   GLY A   5     -38.124  26.724   2.607  0.00  0.00    -0.479 OA
ATOM     35  H   GLY A   5     -38.001  27.559   3.013  0.00  0.00    +0.295 HD
ENDBRANCH  33  34
ENDBRANCH  31  33
ENDBRANCH  28  31
ENDBRANCH  26  29
BRANCH  26  36
ATOM     36  CB  VAL A   4     -35.713  23.103   5.240  0.00  0.00    +0.027 C 
ATOM     37  CG1 VAL A   4     -35.186  21.826   5.904  0.00  0.00    +0.002 C 
ATOM     38  CG2 VAL A   4     -34.846  24.298   5.649  0.00  0.00    +0.002 C 
ENDBRANCH  26  36
ENDBRANCH  23  26
ENDBRANCH  21  24
ENDBRANCH   2  21
TORSDOF 13
ENDMDL
MODEL 3
REMARK VINA RESULT:      -5.0      2.236      4.737
REMARK  Name = 194916
REMARK  13 active torsions:
REMARK  status: ('A' for Active; 'I' for Inactive)
REMARK    1  A    between atoms: N_2  and  CA_21
REMARK    2  A    between atoms: C_3  and  CA_7
REMARK    3  A    between atoms: C_11  and  CA_12
REMARK    4  A    between atoms: CA_12  and  N_13
REMARK    5  A    between atoms: CA_12  and  CB_17
REMARK    6  A    between atoms: CB_17  and  CG_18
REMARK    7  A    between atoms: CA_21  and  C_24
REMARK    8  A    between atoms: N_23  and  CA_26
REMARK    9  A    between atoms: CA_26  and  C_29
REMARK   10  A    between atoms: CA_26  and  CB_36
REMARK   11  A    between atoms: N_28  and  CA_31
REMARK   12  A    between atoms: CA_31  and  C_33
REMARK   13  A    between atoms: C_33  and  O_34
REMARK                            x       y       z     vdW  Elec       q    Type
REMARK                         _______ _______ _______ _____ _____    ______ ____
ROOT
ATOM      1  O   PRO A   2     -34.410  19.619   2.288  0.00  0.00    -0.273 OA
ATOM      2  N   GLY A   3     -35.855  21.164   3.264  0.00  0.00    -0.295 N 
ATOM      3  C   PRO A   2     -35.391  20.356   2.231  0.00  0.00    +0.241 C 
ATOM      4  H   GLY A   3     -36.654  21.715   3.101  0.00  0.00    +0.150 HD
ENDROOT
BRANCH   3   7
ATOM      5  O   LEU A   1     -36.203  23.313   1.227  0.00  0.00    -0.277 OA
ATOM      6  N   PRO A   2     -35.586  21.389   0.098  0.00  0.00    -0.275 N 
ATOM      7  CA  PRO A   2     -36.240  20.450   1.000  0.00  0.00    +0.152 C 
ATOM      8  CB  PRO A   2     -36.271  19.133   0.231  0.00  0.00    +0.031 C 
ATOM      9  CG  PRO A   2     -35.043  19.221  -0.672  0.00  0.00    +0.024 C 
ATOM     10  CD  PRO A   2     -34.984  20.697  -1.038  0.00  0.00    +0.094 C 
ATOM     11  C   LEU A   1     -35.687  22.762   0.252  0.00  0.00    +0.205 C 
BRANCH  11  12
ATOM     12  CA  LEU A   1     -35.101  23.588  -0.866  0.00  0.00    +0.013 C 
BRANCH  12  13
ATOM     13  N   LEU A   1     -36.246  24.120  -1.593  0.00  0.00    +0.387 N 
ATOM     14  H1  LEU A   1     -36.200  23.821  -2.567  0.00  0.00    -0.089 HD
ATOM     15  H2  LEU A   1     -36.232  25.139  -1.549  0.00  0.00    -0.089 HD
ATOM     16  H3  LEU A   1     -37.107  23.774  -1.170  0.00  0.00    -0.089 HD
ENDBRANCH  12  13
BRANCH  12  17
ATOM     17  CB  LEU A   1     -34.242  24.725  -0.312  0.00  0.00    -0.013 C 
BRANCH  17  18
ATOM     18  CG  LEU A   1     -32.826  24.306   0.141  0.00  0.00    -0.002 C 
ATOM     19  CD1 LEU A   1     -32.201  23.264  -0.788  0.00  0.00    -0.000 C 
ATOM     20  CD2 LEU A   1     -31.922  25.539   0.215  0.00  0.00    -0.000 C 
ENDBRANCH  17  18
ENDBRANCH  12  17
ENDBRANCH  11  12
ENDBRANCH   3   7
BRANCH   2  21
ATOM     21  CA  GLY A   3     -35.232  21.239   4.553  0.00  0.00    +0.176 C 
BRANCH  21  24
ATOM     22  O   GLY A   3     -35.954  22.619   6.399  0.00  0.00    -0.273 OA
ATOM     23  N   VAL A   4     -35.559  23.610   4.335  0.00  0.00    -0.297 N 
ATOM     24  C   GLY A   3     -35.608  22.543   5.223  0.00  0.00    +0.243 C 
ATOM     25  H   VAL A   4     -35.265  23.434   3.411  0.00  0.00    +0.150 HD
BRANCH  23  26
ATOM     26  CA  VAL A   4     -35.916  24.959   4.693  0.00  0.00    +0.149 C 
BRANCH  26  29
ATOM     27  O   VAL A   4     -37.019  26.332   3.025  0.00  0.00    -0.273 OA
ATOM     28  N   GLY A   5     -38.195  24.573   3.979  0.00  0.00    -0.294 N 
ATOM     29  C   VAL A   4     -37.086  25.389   3.812  0.00  0.00    +0.241 C 
ATOM     30  H   GLY A   5     -38.146  23.842   4.638  0.00  0.00    +0.150 HD
BRANCH  28  31
ATOM     31  CA  GLY A   5     -39.419  24.745   3.231  0.00  0.00    +0.200 C 
BRANCH  31  33
ATOM     32  OXT GLY A   5     -40.726  23.519   1.624  0.00  0.00    -0.248 OA
ATOM     33  C   GLY A   5     -39.723  23.581   2.324  0.00  0.00    +0.334 C 
BRANCH  33  34
ATOM     34  O   GLY A   5     -38.780  22.610   2.356  0.00  0.00    -0.479 OA
ATOM     35  H   GLY A   5     -38.357  22.395   3.165  0.00  0.00    +0.295 HD
ENDBRANCH  33  34
ENDBRANCH  31  33
ENDBRANCH  28  31
ENDBRANCH  26  29
BRANCH  26  36
ATOM     36  CB  VAL A   4     -34.728  25.941   4.607  0.00  0.00    +0.027 C 
ATOM     37  CG1 VAL A   4     -34.044  26.180   5.958  0.00  0.00    +0.002 C 
ATOM     38  CG2 VAL A   4     -33.696  25.469   3.578  0.00  0.00    +0.002 C 
ENDBRANCH  26  36
ENDBRANCH  23  26
ENDBRANCH  21  24
ENDBRANCH   2  21
TORSDOF 13
ENDMDL
MODEL 4
REMARK VINA RESULT:      -5.0      3.879      7.085
REMARK  Name = 194916
REMARK  13 active torsions:
REMARK  status: ('A' for Active; 'I' for Inactive)
REMARK    1  A    between atoms: N_2  and  CA_21
REMARK    2  A    between atoms: C_3  and  CA_7
REMARK    3  A    between atoms: C_11  and  CA_12
REMARK    4  A    between atoms: CA_12  and  N_13
REMARK    5  A    between atoms: CA_12  and  CB_17
REMARK    6  A    between atoms: CB_17  and  CG_18
REMARK    7  A    between atoms: CA_21  and  C_24
REMARK    8  A    between atoms: N_23  and  CA_26
REMARK    9  A    between atoms: CA_26  and  C_29
REMARK   10  A    between atoms: CA_26  and  CB_36
REMARK   11  A    between atoms: N_28  and  CA_31
REMARK   12  A    between atoms: CA_31  and  C_33
REMARK   13  A    between atoms: C_33  and  O_34
REMARK                            x       y       z     vdW  Elec       q    Type
REMARK                         _______ _______ _______ _____ _____    ______ ____
ROOT
ATOM      1  O   PRO A   2     -33.237  25.905   5.064  0.00  0.00    -0.273 OA
ATOM      2  N   GLY A   3     -35.373  26.736   4.647  0.00  0.00    -0.295 N 
ATOM      3  C   PRO A   2     -33.997  26.657   4.459  0.00  0.00    +0.241 C 
ATOM      4  H   GLY A   3     -35.880  27.381   4.102  0.00  0.00    +0.150 HD
ENDROOT
BRANCH   3   7
ATOM      5  O   LEU A   1     -32.472  29.327   5.436  0.00  0.00    -0.277 OA
ATOM      6  N   PRO A   2     -32.103  27.866   3.679  0.00  0.00    -0.275 N 
ATOM      7  CA  PRO A   2     -33.505  27.591   3.394  0.00  0.00    +0.152 C 
ATOM      8  CB  PRO A   2     -33.498  26.929   2.020  0.00  0.00    +0.031 C 
ATOM      9  CG  PRO A   2     -32.139  26.236   1.968  0.00  0.00    +0.024 C 
ATOM     10  CD  PRO A   2     -31.228  27.194   2.722  0.00  0.00    +0.094 C 
ATOM     11  C   LEU A   1     -31.704  28.779   4.643  0.00  0.00    +0.205 C 
BRANCH  11  12
ATOM     12  CA  LEU A   1     -30.226  29.074   4.686  0.00  0.00    +0.013 C 
BRANCH  12  13
ATOM     13  N   LEU A   1     -30.117  30.521   4.552  0.00  0.00    +0.387 N 
ATOM     14  H1  LEU A   1     -29.677  30.748   3.660  0.00  0.00    -0.089 HD
ATOM     15  H2  LEU A   1     -29.551  30.892   5.315  0.00  0.00    -0.089 HD
ATOM     16  H3  LEU A   1     -31.049  30.936   4.587  0.00  0.00    -0.089 HD
ENDBRANCH  12  13
BRANCH  12  17
ATOM     17  CB  LEU A   1     -29.616  28.613   6.011  0.00  0.00    -0.013 C 
BRANCH  17  18
ATOM     18  CG  LEU A   1     -28.423  29.461   6.504  0.00  0.00    -0.002 C 
ATOM     19  CD1 LEU A   1     -28.351  29.536   8.030  0.00  0.00    -0.000 C 
ATOM     20  CD2 LEU A   1     -27.117  28.882   5.954  0.00  0.00    -0.000 C 
ENDBRANCH  17  18
ENDBRANCH  12  17
ENDBRANCH  11  12
ENDBRANCH   3   7
BRANCH   2  21
ATOM     21  CA  GLY A   3     -36.092  25.933   5.591  0.00  0.00    +0.176 C 
BRANCH  21  24
ATOM     22  O   GLY A   3     -36.326  23.597   5.020  0.00  0.00    -0.273 OA
ATOM     23  N   VAL A   4     -37.739  25.151   4.026  0.00  0.00    -0.297 N 
ATOM     24  C   GLY A   3     -36.718  24.753   4.879  0.00  0.00    +0.243 C 
ATOM     25  H   VAL A   4     -37.973  26.107   3.992  0.00  0.00    +0.150 HD
BRANCH  23  26
ATOM     26  CA  VAL A   4     -38.475  24.239   3.187  0.00  0.00    +0.149 C 
BRANCH  26  29
ATOM     27  O   VAL A   4     -36.744  24.048   1.498  0.00  0.00    -0.273 OA
ATOM     28  N   GLY A   5     -37.463  22.125   2.582  0.00  0.00    -0.294 N 
ATOM     29  C   VAL A   4     -37.474  23.487   2.314  0.00  0.00    +0.241 C 
ATOM     30  H   GLY A   5     -38.089  21.774   3.256  0.00  0.00    +0.150 HD
BRANCH  28  31
ATOM     31  CA  GLY A   5     -36.575  21.199   1.917  0.00  0.00    +0.200 C 
BRANCH  31  33
ATOM     32  OXT GLY A   5     -34.622  19.898   2.451  0.00  0.00    -0.248 OA
ATOM     33  C   GLY A   5     -35.528  20.627   2.836  0.00  0.00    +0.334 C 
BRANCH  33  34
ATOM     34  O   GLY A   5     -35.684  20.995   4.130  0.00  0.00    -0.479 OA
ATOM     35  H   GLY A   5     -35.998  21.853   4.338  0.00  0.00    +0.295 HD
ENDBRANCH  33  34
ENDBRANCH  31  33
ENDBRANCH  28  31
ENDBRANCH  26  29
BRANCH  26  36
ATOM     36  CB  VAL A   4     -39.571  24.935   2.353  0.00  0.00    +0.027 C 
ATOM     37  CG1 VAL A   4     -40.436  23.952   1.555  0.00  0.00    +0.002 C 
ATOM     38  CG2 VAL A   4     -40.462  25.813   3.236  0.00  0.00    +0.002 C 
ENDBRANCH  26  36
ENDBRANCH  23  26
ENDBRANCH  21  24
ENDBRANCH   2  21
TORSDOF 13
ENDMDL
MODEL 5
REMARK VINA RESULT:      -5.0      3.303      6.189
REMARK  Name = 194916
REMARK  13 active torsions:
REMARK  status: ('A' for Active; 'I' for Inactive)
REMARK    1  A    between atoms: N_2  and  CA_21
REMARK    2  A    between atoms: C_3  and  CA_7
REMARK    3  A    between atoms: C_11  and  CA_12
REMARK    4  A    between atoms: CA_12  and  N_13
REMARK    5  A    between atoms: CA_12  and  CB_17
REMARK    6  A    between atoms: CB_17  and  CG_18
REMARK    7  A    between atoms: CA_21  and  C_24
REMARK    8  A    between atoms: N_23  and  CA_26
REMARK    9  A    between atoms: CA_26  and  C_29
REMARK   10  A    between atoms: CA_26  and  CB_36
REMARK   11  A    between atoms: N_28  and  CA_31
REMARK   12  A    between atoms: CA_31  and  C_33
REMARK   13  A    between atoms: C_33  and  O_34
REMARK                            x       y       z     vdW  Elec       q    Type
REMARK                         _______ _______ _______ _____ _____    ______ ____
ROOT
ATOM      1  O   PRO A   2     -33.551  24.488   4.646  0.00  0.00    -0.273 OA
ATOM      2  N   GLY A   3     -34.833  25.319   2.887  0.00  0.00    -0.295 N 
ATOM      3  C   PRO A   2     -34.586  24.501   3.985  0.00  0.00    +0.241 C 
ATOM      4  H   GLY A   3     -35.703  25.239   2.434  0.00  0.00    +0.150 HD
ENDROOT
BRANCH   3   7
ATOM      5  O   LEU A   1     -35.733  22.628   1.622  0.00  0.00    -0.277 OA
ATOM      6  N   PRO A   2     -35.403  22.270   3.884  0.00  0.00    -0.275 N 
ATOM      7  CA  PRO A   2     -35.749  23.617   4.319  0.00  0.00    +0.152 C 
ATOM      8  CB  PRO A   2     -35.956  23.496   5.825  0.00  0.00    +0.031 C 
ATOM      9  CG  PRO A   2     -35.034  22.345   6.218  0.00  0.00    +0.024 C 
ATOM     10  CD  PRO A   2     -35.124  21.403   5.026  0.00  0.00    +0.094 C 
ATOM     11  C   LEU A   1     -35.496  21.867   2.561  0.00  0.00    +0.205 C 
BRANCH  11  12
ATOM     12  CA  LEU A   1     -35.271  20.397   2.312  0.00  0.00    +0.013 C 
BRANCH  12  13
ATOM     13  N   LEU A   1     -36.602  19.823   2.164  0.00  0.00    +0.387 N 
ATOM     14  H1  LEU A   1     -36.553  18.812   2.289  0.00  0.00    -0.089 HD
ATOM     15  H2  LEU A   1     -36.961  20.034   1.232  0.00  0.00    -0.089 HD
ATOM     16  H3  LEU A   1     -37.225  20.224   2.866  0.00  0.00    -0.089 HD
ENDBRANCH  12  13
BRANCH  12  17
ATOM     17  CB  LEU A   1     -34.449  20.178   1.041  0.00  0.00    -0.013 C 
BRANCH  17  18
ATOM     18  CG  LEU A   1     -33.256  19.211   1.200  0.00  0.00    -0.002 C 
ATOM     19  CD1 LEU A   1     -33.567  17.808   0.679  0.00  0.00    -0.000 C 
ATOM     20  CD2 LEU A   1     -32.034  19.775   0.468  0.00  0.00    -0.000 C 
ENDBRANCH  17  18
ENDBRANCH  12  17
ENDBRANCH  11  12
ENDBRANCH   3   7
BRANCH   2  21
ATOM     21  CA  GLY A   3     -33.889  26.271   2.380  0.00  0.00    +0.176 C 
BRANCH  21  24
ATOM     22  O   GLY A   3     -34.830  28.289   3.315  0.00  0.00    -0.273 OA
ATOM     23  N   VAL A   4     -32.685  27.648   3.938  0.00  0.00    -0.297 N 
ATOM     24  C   GLY A   3     -33.888  27.503   3.259  0.00  0.00    +0.243 C 
ATOM     25  H   VAL A   4     -31.996  26.955   3.820  0.00  0.00    +0.150 HD
BRANCH  23  26
ATOM     26  CA  VAL A   4     -32.392  28.760   4.807  0.00  0.00    +0.149 C 
BRANCH  26  29
ATOM     27  O   VAL A   4     -30.396  29.422   3.597  0.00  0.00    -0.273 OA
ATOM     28  N   GLY A   5     -32.094  30.977   3.885  0.00  0.00    -0.294 N 
ATOM     29  C   VAL A   4     -31.499  29.734   4.043  0.00  0.00    +0.241 C 
ATOM     30  H   GLY A   5     -32.983  31.126   4.282  0.00  0.00    +0.150 HD
BRANCH  28  31
ATOM     31  CA  GLY A   5     -31.471  32.063   3.163  0.00  0.00    +0.200 C 
BRANCH  31  33
ATOM     32  OXT GLY A   5     -31.122  31.879   0.789  0.00  0.00    -0.248 OA
ATOM     33  C   GLY A   5     -31.885  32.121   1.716  0.00  0.00    +0.334 C 
BRANCH  33  34
ATOM     34  O   GLY A   5     -33.182  32.467   1.538  0.00  0.00    -0.479 OA
ATOM     35  H   GLY A   5     -33.482  33.313   1.806  0.00  0.00    +0.295 HD
ENDBRANCH  33  34
ENDBRANCH  31  33
ENDBRANCH  28  31
ENDBRANCH  26  29
BRANCH  26  36
ATOM     36  CB  VAL A   4     -31.770  28.328   6.152  0.00  0.00    +0.027 C 
ATOM     37  CG1 VAL A   4     -31.524  29.503   7.106  0.00  0.00    +0.002 C 
ATOM     38  CG2 VAL A   4     -32.633  27.269   6.843  0.00  0.00    +0.002 C 
ENDBRANCH  26  36
ENDBRANCH  23  26
ENDBRANCH  21  24
ENDBRANCH   2  21
TORSDOF 13
ENDMDL
MODEL 6
REMARK VINA RESULT:      -4.8      3.282      6.249
REMARK  Name = 194916
REMARK  13 active torsions:
REMARK  status: ('A' for Active; 'I' for Inactive)
REMARK    1  A    between atoms: N_2  and  CA_21
REMARK    2  A    between atoms: C_3  and  CA_7
REMARK    3  A    between atoms: C_11  and  CA_12
REMARK    4  A    between atoms: CA_12  and  N_13
REMARK    5  A    between atoms: CA_12  and  CB_17
REMARK    6  A    between atoms: CB_17  and  CG_18
REMARK    7  A    between atoms: CA_21  and  C_24
REMARK    8  A    between atoms: N_23  and  CA_26
REMARK    9  A    between atoms: CA_26  and  C_29
REMARK   10  A    between atoms: CA_26  and  CB_36
REMARK   11  A    between atoms: N_28  and  CA_31
REMARK   12  A    between atoms: CA_31  and  C_33
REMARK   13  A    between atoms: C_33  and  O_34
REMARK                            x       y       z     vdW  Elec       q    Type
REMARK                         _______ _______ _______ _____ _____    ______ ____
ROOT
ATOM      1  O   PRO A   2     -34.435  24.977   2.840  0.00  0.00    -0.273 OA
ATOM      2  N   GLY A   3     -35.931  26.759   2.956  0.00  0.00    -0.295 N 
ATOM      3  C   PRO A   2     -35.489  25.470   3.234  0.00  0.00    +0.241 C 
ATOM      4  H   GLY A   3     -36.797  27.044   3.328  0.00  0.00    +0.150 HD
ENDROOT
BRANCH   3   7
ATOM      5  O   LEU A   1     -37.673  23.602   1.769  0.00  0.00    -0.277 OA
ATOM      6  N   PRO A   2     -36.401  23.320   3.682  0.00  0.00    -0.275 N 
ATOM      7  CA  PRO A   2     -36.438  24.711   4.113  0.00  0.00    +0.152 C 
ATOM      8  CB  PRO A   2     -35.966  24.680   5.562  0.00  0.00    +0.031 C 
ATOM      9  CG  PRO A   2     -35.038  23.469   5.607  0.00  0.00    +0.024 C 
ATOM     10  CD  PRO A   2     -35.701  22.485   4.654  0.00  0.00    +0.094 C 
ATOM     11  C   LEU A   1     -37.093  22.866   2.570  0.00  0.00    +0.205 C 
BRANCH  11  12
ATOM     12  CA  LEU A   1     -37.091  21.372   2.368  0.00  0.00    +0.013 C 
BRANCH  12  13
ATOM     13  N   LEU A   1     -38.483  21.014   2.127  0.00  0.00    +0.387 N 
ATOM     14  H1  LEU A   1     -39.059  21.856   2.147  0.00  0.00    -0.089 HD
ATOM     15  H2  LEU A   1     -38.799  20.369   2.852  0.00  0.00    -0.089 HD
ATOM     16  H3  LEU A   1     -38.565  20.566   1.214  0.00  0.00    -0.089 HD
ENDBRANCH  12  13
BRANCH  12  17
ATOM     17  CB  LEU A   1     -36.224  20.983   1.170  0.00  0.00    -0.013 C 
BRANCH  17  18
ATOM     18  CG  LEU A   1     -34.703  21.006   1.438  0.00  0.00    -0.002 C 
ATOM     19  CD1 LEU A   1     -34.073  19.616   1.344  0.00  0.00    -0.000 C 
ATOM     20  CD2 LEU A   1     -34.018  21.950   0.447  0.00  0.00    -0.000 C 
ENDBRANCH  17  18
ENDBRANCH  12  17
ENDBRANCH  11  12
ENDBRANCH   3   7
BRANCH   2  21
ATOM     21  CA  GLY A   3     -35.196  27.695   2.157  0.00  0.00    +0.176 C 
BRANCH  21  24
ATOM     22  O   GLY A   3     -34.698  29.750   3.324  0.00  0.00    -0.273 OA
ATOM     23  N   VAL A   4     -33.210  27.971   3.481  0.00  0.00    -0.297 N 
ATOM     24  C   GLY A   3     -34.376  28.595   3.055  0.00  0.00    +0.243 C 
ATOM     25  H   VAL A   4     -33.052  27.039   3.205  0.00  0.00    +0.150 HD
BRANCH  23  26
ATOM     26  CA  VAL A   4     -32.220  28.615   4.306  0.00  0.00    +0.149 C 
BRANCH  26  29
ATOM     27  O   VAL A   4     -30.223  29.682   3.437  0.00  0.00    -0.273 OA
ATOM     28  N   GLY A   5     -30.586  27.439   2.964  0.00  0.00    -0.294 N 
ATOM     29  C   VAL A   4     -30.911  28.667   3.522  0.00  0.00    +0.241 C 
ATOM     30  H   GLY A   5     -31.208  26.686   3.090  0.00  0.00    +0.150 HD
BRANCH  28  31
ATOM     31  CA  GLY A   5     -29.376  27.215   2.206  0.00  0.00    +0.200 C 
BRANCH  31  33
ATOM     32  OXT GLY A   5     -27.413  27.508   3.569  0.00  0.00    -0.248 OA
ATOM     33  C   GLY A   5     -28.227  26.746   3.060  0.00  0.00    +0.334 C 
BRANCH  33  34
ATOM     34  O   GLY A   5     -28.178  25.402   3.210  0.00  0.00    -0.479 OA
ATOM     35  H   GLY A   5     -27.352  24.971   3.309  0.00  0.00    +0.295 HD
ENDBRANCH  33  34
ENDBRANCH  31  33
ENDBRANCH  28  31
ENDBRANCH  26  29
BRANCH  26  36
ATOM     36  CB  VAL A   4     -32.049  27.940   5.684  0.00  0.00    +0.027 C 
ATOM     37  CG1 VAL A   4     -31.897  28.944   6.832  0.00  0.00    +0.002 C 
ATOM     38  CG2 VAL A   4     -33.210  26.985   5.978  0.00  0.00    +0.002 C 
ENDBRANCH  26  36
ENDBRANCH  23  26
ENDBRANCH  21  24
ENDBRANCH   2  21
TORSDOF 13
ENDMDL
MODEL 7
REMARK VINA RESULT:      -4.8      3.334      7.046
REMARK  Name = 194916
REMARK  13 active torsions:
REMARK  status: ('A' for Active; 'I' for Inactive)
REMARK    1  A    between atoms: N_2  and  CA_21
REMARK    2  A    between atoms: C_3  and  CA_7
REMARK    3  A    between atoms: C_11  and  CA_12
REMARK    4  A    between atoms: CA_12  and  N_13
REMARK    5  A    between atoms: CA_12  and  CB_17
REMARK    6  A    between atoms: CB_17  and  CG_18
REMARK    7  A    between atoms: CA_21  and  C_24
REMARK    8  A    between atoms: N_23  and  CA_26
REMARK    9  A    between atoms: CA_26  and  C_29
REMARK   10  A    between atoms: CA_26  and  CB_36
REMARK   11  A    between atoms: N_28  and  CA_31
REMARK   12  A    between atoms: CA_31  and  C_33
REMARK   13  A    between atoms: C_33  and  O_34
REMARK                            x       y       z     vdW  Elec       q    Type
REMARK                         _______ _______ _______ _____ _____    ______ ____
ROOT
ATOM      1  O   PRO A   2     -40.479  23.816  -0.284  0.00  0.00    -0.273 OA
ATOM      2  N   GLY A   3     -40.182  22.227   1.394  0.00  0.00    -0.295 N 
ATOM      3  C   PRO A   2     -40.387  23.513   0.903  0.00  0.00    +0.241 C 
ATOM      4  H   GLY A   3     -40.124  22.106   2.370  0.00  0.00    +0.150 HD
ENDROOT
BRANCH   3   7
ATOM      5  O   LEU A   1     -38.273  23.338   3.334  0.00  0.00    -0.277 OA
ATOM      6  N   PRO A   2     -39.195  25.123   2.185  0.00  0.00    -0.275 N 
ATOM      7  CA  PRO A   2     -40.514  24.534   1.993  0.00  0.00    +0.152 C 
ATOM      8  CB  PRO A   2     -41.402  25.701   1.575  0.00  0.00    +0.031 C 
ATOM      9  CG  PRO A   2     -40.434  26.649   0.871  0.00  0.00    +0.024 C 
ATOM     10  CD  PRO A   2     -39.147  26.488   1.667  0.00  0.00    +0.094 C 
ATOM     11  C   LEU A   1     -38.197  24.493   2.912  0.00  0.00    +0.205 C 
BRANCH  11  12
ATOM     12  CA  LEU A   1     -36.958  25.316   3.163  0.00  0.00    +0.013 C 
BRANCH  12  13
ATOM     13  N   LEU A   1     -37.320  26.242   4.228  0.00  0.00    +0.387 N 
ATOM     14  H1  LEU A   1     -37.275  25.762   5.127  0.00  0.00    -0.089 HD
ATOM     15  H2  LEU A   1     -38.268  26.586   4.073  0.00  0.00    -0.089 HD
ATOM     16  H3  LEU A   1     -36.670  27.029   4.229  0.00  0.00    -0.089 HD
ENDBRANCH  12  13
BRANCH  12  17
ATOM     17  CB  LEU A   1     -35.793  24.427   3.599  0.00  0.00    -0.013 C 
BRANCH  17  18
ATOM     18  CG  LEU A   1     -35.462  24.486   5.106  0.00  0.00    -0.002 C 
ATOM     19  CD1 LEU A   1     -35.405  23.099   5.746  0.00  0.00    -0.000 C 
ATOM     20  CD2 LEU A   1     -34.127  25.206   5.314  0.00  0.00    -0.000 C 
ENDBRANCH  17  18
ENDBRANCH  12  17
ENDBRANCH  11  12
ENDBRANCH   3   7
BRANCH   2  21
ATOM     21  CA  GLY A   3     -40.050  21.071   0.558  0.00  0.00    +0.176 C 
BRANCH  21  24
ATOM     22  O   GLY A   3     -38.264  21.532  -1.002  0.00  0.00    -0.273 OA
ATOM     23  N   VAL A   4     -37.838  20.174   0.836  0.00  0.00    -0.297 N 
ATOM     24  C   GLY A   3     -38.633  20.983   0.034  0.00  0.00    +0.243 C 
ATOM     25  H   VAL A   4     -38.238  19.784   1.647  0.00  0.00    +0.150 HD
BRANCH  23  26
ATOM     26  CA  VAL A   4     -36.458  19.876   0.544  0.00  0.00    +0.149 C 
BRANCH  26  29
ATOM     27  O   VAL A   4     -35.754  18.431  -1.272  0.00  0.00    -0.273 OA
ATOM     28  N   GLY A   5     -37.162  17.568   0.359  0.00  0.00    -0.294 N 
ATOM     29  C   VAL A   4     -36.413  18.569  -0.244  0.00  0.00    +0.241 C 
ATOM     30  H   GLY A   5     -37.655  17.782   1.184  0.00  0.00    +0.150 HD
BRANCH  28  31
ATOM     31  CA  GLY A   5     -37.249  16.226  -0.169  0.00  0.00    +0.200 C 
BRANCH  31  33
ATOM     32  OXT GLY A   5     -39.060  14.647  -0.311  0.00  0.00    -0.248 OA
ATOM     33  C   GLY A   5     -38.665  15.798  -0.454  0.00  0.00    +0.334 C 
BRANCH  33  34
ATOM     34  O   GLY A   5     -39.459  16.807  -0.883  0.00  0.00    -0.479 OA
ATOM     35  H   GLY A   5     -39.893  16.741  -1.711  0.00  0.00    +0.295 HD
ENDBRANCH  33  34
ENDBRANCH  31  33
ENDBRANCH  28  31
ENDBRANCH  26  29
BRANCH  26  36
ATOM     36  CB  VAL A   4     -35.570  19.829   1.806  0.00  0.00    +0.027 C 
ATOM     37  CG1 VAL A   4     -34.100  19.525   1.497  0.00  0.00    +0.002 C 
ATOM     38  CG2 VAL A   4     -35.675  21.132   2.603  0.00  0.00    +0.002 C 
ENDBRANCH  26  36
ENDBRANCH  23  26
ENDBRANCH  21  24
ENDBRANCH   2  21
TORSDOF 13
ENDMDL
MODEL 8
REMARK VINA RESULT:      -4.8      3.769      7.118
REMARK  Name = 194916
REMARK  13 active torsions:
REMARK  status: ('A' for Active; 'I' for Inactive)
REMARK    1  A    between atoms: N_2  and  CA_21
REMARK    2  A    between atoms: C_3  and  CA_7
REMARK    3  A    between atoms: C_11  and  CA_12
REMARK    4  A    between atoms: CA_12  and  N_13
REMARK    5  A    between atoms: CA_12  and  CB_17
REMARK    6  A    between atoms: CB_17  and  CG_18
REMARK    7  A    between atoms: CA_21  and  C_24
REMARK    8  A    between atoms: N_23  and  CA_26
REMARK    9  A    between atoms: CA_26  and  C_29
REMARK   10  A    between atoms: CA_26  and  CB_36
REMARK   11  A    between atoms: N_28  and  CA_31
REMARK   12  A    between atoms: CA_31  and  C_33
REMARK   13  A    between atoms: C_33  and  O_34
REMARK                            x       y       z     vdW  Elec       q    Type
REMARK                         _______ _______ _______ _____ _____    ______ ____
ROOT
ATOM      1  O   PRO A   2     -33.028  28.383   1.271  0.00  0.00    -0.273 OA
ATOM      2  N   GLY A   3     -33.925  26.640   2.531  0.00  0.00    -0.295 N 
ATOM      3  C   PRO A   2     -33.594  27.968   2.279  0.00  0.00    +0.241 C 
ATOM      4  H   GLY A   3     -34.380  26.427   3.377  0.00  0.00    +0.150 HD
ENDROOT
BRANCH   3   7
ATOM      5  O   LEU A   1     -32.455  27.364   5.236  0.00  0.00    -0.277 OA
ATOM      6  N   PRO A   2     -32.824  29.329   4.070  0.00  0.00    -0.275 N 
ATOM      7  CA  PRO A   2     -34.029  28.889   3.379  0.00  0.00    +0.152 C 
ATOM      8  CB  PRO A   2     -34.651  30.170   2.832  0.00  0.00    +0.031 C 
ATOM      9  CG  PRO A   2     -33.447  31.083   2.613  0.00  0.00    +0.024 C 
ATOM     10  CD  PRO A   2     -32.522  30.726   3.767  0.00  0.00    +0.094 C 
ATOM     11  C   LEU A   1     -32.174  28.542   5.007  0.00  0.00    +0.205 C 
BRANCH  11  12
ATOM     12  CA  LEU A   1     -31.050  29.216   5.756  0.00  0.00    +0.013 C 
BRANCH  12  13
ATOM     13  N   LEU A   1     -31.457  29.202   7.155  0.00  0.00    +0.387 N 
ATOM     14  H1  LEU A   1     -30.942  28.475   7.652  0.00  0.00    -0.089 HD
ATOM     15  H2  LEU A   1     -32.457  29.012   7.216  0.00  0.00    -0.089 HD
ATOM     16  H3  LEU A   1     -31.257  30.110   7.575  0.00  0.00    -0.089 HD
ENDBRANCH  12  13
BRANCH  12  17
ATOM     17  CB  LEU A   1     -29.738  28.453   5.572  0.00  0.00    -0.013 C 
BRANCH  17  18
ATOM     18  CG  LEU A   1     -28.822  28.432   6.815  0.00  0.00    -0.002 C 
ATOM     19  CD1 LEU A   1     -28.064  27.112   6.959  0.00  0.00    -0.000 C 
ATOM     20  CD2 LEU A   1     -27.827  29.593   6.742  0.00  0.00    -0.000 C 
ENDBRANCH  17  18
ENDBRANCH  12  17
ENDBRANCH  11  12
ENDBRANCH   3   7
BRANCH   2  21
ATOM     21  CA  GLY A   3     -33.639  25.567   1.625  0.00  0.00    +0.176 C 
BRANCH  21  24
ATOM     22  O   GLY A   3     -34.581  23.367   1.296  0.00  0.00    -0.273 OA
ATOM     23  N   VAL A   4     -34.974  24.476   3.299  0.00  0.00    -0.297 N 
ATOM     24  C   GLY A   3     -34.424  24.338   2.031  0.00  0.00    +0.243 C 
ATOM     25  H   VAL A   4     -34.783  25.300   3.804  0.00  0.00    +0.150 HD
BRANCH  23  26
ATOM     26  CA  VAL A   4     -35.811  23.477   3.916  0.00  0.00    +0.149 C 
BRANCH  26  29
ATOM     27  O   VAL A   4     -37.966  24.590   3.948  0.00  0.00    -0.273 OA
ATOM     28  N   GLY A   5     -37.619  22.873   2.425  0.00  0.00    -0.294 N 
ATOM     29  C   VAL A   4     -37.248  23.718   3.462  0.00  0.00    +0.241 C 
ATOM     30  H   GLY A   5     -36.967  22.207   2.107  0.00  0.00    +0.150 HD
BRANCH  28  31
ATOM     31  CA  GLY A   5     -38.916  22.928   1.791  0.00  0.00    +0.200 C 
BRANCH  31  33
ATOM     32  OXT GLY A   5     -39.451  21.018   0.426  0.00  0.00    -0.248 OA
ATOM     33  C   GLY A   5     -39.497  21.564   1.522  0.00  0.00    +0.334 C 
BRANCH  33  34
ATOM     34  O   GLY A   5     -40.074  20.999   2.609  0.00  0.00    -0.479 OA
ATOM     35  H   GLY A   5     -40.607  21.519   3.179  0.00  0.00    +0.295 HD
ENDBRANCH  33  34
ENDBRANCH  31  33
ENDBRANCH  28  31
ENDBRANCH  26  29
BRANCH  26  36
ATOM     36  CB  VAL A   4     -35.681  23.446   5.454  0.00  0.00    +0.027 C 
ATOM     37  CG1 VAL A   4     -35.178  22.100   5.988  0.00  0.00    +0.002 C 
ATOM     38  CG2 VAL A   4     -34.775  24.575   5.954  0.00  0.00    +0.002 C 
ENDBRANCH  26  36
ENDBRANCH  23  26
ENDBRANCH  21  24
ENDBRANCH   2  21
TORSDOF 13
ENDMDL
MODEL 9
REMARK VINA RESULT:      -4.7      4.382      7.892
REMARK  Name = 194916
REMARK  13 active torsions:
REMARK  status: ('A' for Active; 'I' for Inactive)
REMARK    1  A    between atoms: N_2  and  CA_21
REMARK    2  A    between atoms: C_3  and  CA_7
REMARK    3  A    between atoms: C_11  and  CA_12
REMARK    4  A    between atoms: CA_12  and  N_13
REMARK    5  A    between atoms: CA_12  and  CB_17
REMARK    6  A    between atoms: CB_17  and  CG_18
REMARK    7  A    between atoms: CA_21  and  C_24
REMARK    8  A    between atoms: N_23  and  CA_26
REMARK    9  A    between atoms: CA_26  and  C_29
REMARK   10  A    between atoms: CA_26  and  CB_36
REMARK   11  A    between atoms: N_28  and  CA_31
REMARK   12  A    between atoms: CA_31  and  C_33
REMARK   13  A    between atoms: C_33  and  O_34
REMARK                            x       y       z     vdW  Elec       q    Type
REMARK                         _______ _______ _______ _____ _____    ______ ____
ROOT
ATOM      1  O   PRO A   2     -34.945  21.390   0.397  0.00  0.00    -0.273 OA
ATOM      2  N   GLY A   3     -34.400  19.518   1.673  0.00  0.00    -0.295 N 
ATOM      3  C   PRO A   2     -35.210  20.579   1.281  0.00  0.00    +0.241 C 
ATOM      4  H   GLY A   3     -34.720  18.933   2.398  0.00  0.00    +0.150 HD
ENDROOT
BRANCH   3   7
ATOM      5  O   LEU A   1     -35.006  20.642   4.500  0.00  0.00    -0.277 OA
ATOM      6  N   PRO A   2     -36.385  21.734   2.996  0.00  0.00    -0.275 N 
ATOM      7  CA  PRO A   2     -36.499  20.635   2.046  0.00  0.00    +0.152 C 
ATOM      8  CB  PRO A   2     -37.672  21.017   1.150  0.00  0.00    +0.031 C 
ATOM      9  CG  PRO A   2     -37.653  22.543   1.173  0.00  0.00    +0.024 C 
ATOM     10  CD  PRO A   2     -37.214  22.867   2.593  0.00  0.00    +0.094 C 
ATOM     11  C   LEU A   1     -35.698  21.615   4.193  0.00  0.00    +0.205 C 
BRANCH  11  12
ATOM     12  CA  LEU A   1     -35.828  22.784   5.137  0.00  0.00    +0.013 C 
BRANCH  12  13
ATOM     13  N   LEU A   1     -35.966  22.195   6.463  0.00  0.00    +0.387 N 
ATOM     14  H1  LEU A   1     -36.254  21.220   6.375  0.00  0.00    -0.089 HD
ATOM     15  H2  LEU A   1     -36.670  22.710   6.992  0.00  0.00    -0.089 HD
ATOM     16  H3  LEU A   1     -35.072  22.243   6.951  0.00  0.00    -0.089 HD
ENDBRANCH  12  13
BRANCH  12  17
ATOM     17  CB  LEU A   1     -34.588  23.677   5.075  0.00  0.00    -0.013 C 
BRANCH  17  18
ATOM     18  CG  LEU A   1     -34.882  25.178   4.869  0.00  0.00    -0.002 C 
ATOM     19  CD1 LEU A   1     -36.367  25.509   5.020  0.00  0.00    -0.000 C 
ATOM     20  CD2 LEU A   1     -34.066  26.006   5.865  0.00  0.00    -0.000 C 
ENDBRANCH  17  18
ENDBRANCH  12  17
ENDBRANCH  11  12
ENDBRANCH   3   7
BRANCH   2  21
ATOM     21  CA  GLY A   3     -33.126  19.233   1.082  0.00  0.00    +0.176 C 
BRANCH  21  24
ATOM     22  O   GLY A   3     -33.139  18.962  -1.319  0.00  0.00    -0.273 OA
ATOM     23  N   VAL A   4     -33.789  17.180   0.023  0.00  0.00    -0.297 N 
ATOM     24  C   GLY A   3     -33.326  18.469  -0.209  0.00  0.00    +0.243 C 
ATOM     25  H   VAL A   4     -33.903  16.886   0.956  0.00  0.00    +0.150 HD
BRANCH  23  26
ATOM     26  CA  VAL A   4     -34.111  16.249  -1.029  0.00  0.00    +0.149 C 
BRANCH  26  29
ATOM     27  O   VAL A   4     -35.605  14.367  -0.698  0.00  0.00    -0.273 OA
ATOM     28  N   GLY A   5     -36.409  16.511  -0.318  0.00  0.00    -0.294 N 
ATOM     29  C   VAL A   4     -35.442  15.586  -0.683  0.00  0.00    +0.241 C 
ATOM     30  H   GLY A   5     -36.176  17.468  -0.340  0.00  0.00    +0.150 HD
BRANCH  28  31
ATOM     31  CA  GLY A   5     -37.742  16.135   0.093  0.00  0.00    +0.200 C 
BRANCH  31  33
ATOM     32  OXT GLY A   5     -38.614  17.496  -1.691  0.00  0.00    -0.248 OA
ATOM     33  C   GLY A   5     -38.809  16.626  -0.851  0.00  0.00    +0.334 C 
BRANCH  33  34
ATOM     34  O   GLY A   5     -40.004  16.012  -0.682  0.00  0.00    -0.479 OA
ATOM     35  H   GLY A   5     -40.517  15.773  -1.429  0.00  0.00    +0.295 HD
ENDBRANCH  33  34
ENDBRANCH  31  33
ENDBRANCH  28  31
ENDBRANCH  26  29
BRANCH  26  36
ATOM     36  CB  VAL A   4     -32.993  15.216  -1.286  0.00  0.00    +0.027 C 
ATOM     37  CG1 VAL A   4     -32.260  15.439  -2.613  0.00  0.00    +0.002 C 
ATOM     38  CG2 VAL A   4     -31.985  15.197  -0.133  0.00  0.00    +0.002 C 
ENDBRANCH  26  36
ENDBRANCH  23  26
ENDBRANCH  21  24
ENDBRANCH   2  21
TORSDOF 13
ENDMDL
