MODEL 1
REMARK VINA RESULT:      -7.6      0.000      0.000
REMARK  Name = 5748733
REMARK  5 active torsions:
REMARK  status: ('A' for Active; 'I' for Inactive)
REMARK    1  A    between atoms: N_1  and  S_13
REMARK    2  A    between atoms: C_8  and  C_20
REMARK    3  A    between atoms: S_13  and  C_16
REMARK    4  A    between atoms: N_19  and  O_27
REMARK    5  A    between atoms: C_20  and  C_21
REMARK                            x       y       z     vdW  Elec       q    Type
REMARK                         _______ _______ _______ _____ _____    ______ ____
ROOT
ATOM      1  N   UNL     1     -36.301  24.887   3.678  0.00  0.00    -0.132 N 
ATOM      2  N   UNL     1     -35.775  24.373   5.776  0.00  0.00    -0.375 NA
ATOM      3  N   UNL     1     -36.478  26.613   5.272  0.00  0.00    -0.319 N 
ATOM      4  C   UNL     1     -35.945  23.563   3.651  0.00  0.00    +0.103 C 
ATOM      5  C   UNL     1     -35.620  23.266   4.973  0.00  0.00    +0.132 C 
ATOM      6  C   UNL     1     -36.183  25.326   4.968  0.00  0.00    +0.258 C 
ATOM      7  C   UNL     1     -35.879  22.630   2.618  0.00  0.00    +0.020 C 
ATOM      8  C   UNL     1     -35.464  21.338   2.960  0.00  0.00    +0.018 C 
ATOM      9  C   UNL     1     -35.206  21.964   5.299  0.00  0.00    +0.086 C 
ATOM     10  C   UNL     1     -35.134  21.009   4.277  0.00  0.00    -0.017 C 
ATOM     11  H   UNL     1     -36.775  27.230   4.566  0.00  0.00    +0.146 HD
ATOM     12  H   UNL     1     -36.394  26.930   6.200  0.00  0.00    +0.146 HD
ENDROOT
BRANCH   1  13
ATOM     13  S   UNL     1     -36.788  25.784   2.362  0.00  0.00    +0.062 S 
ATOM     14  O   UNL     1     -36.171  27.101   2.524  0.00  0.00    -0.154 OA
ATOM     15  O   UNL     1     -36.475  24.961   1.195  0.00  0.00    -0.154 OA
BRANCH  13  16
ATOM     16  C   UNL     1     -38.558  26.058   2.358  0.00  0.00    +0.150 C 
ATOM     17  C   UNL     1     -39.273  24.896   3.032  0.00  0.00    +0.027 C 
ATOM     18  C   UNL     1     -39.056  26.269   0.936  0.00  0.00    +0.027 C 
ENDBRANCH  13  16
ENDBRANCH   1  13
BRANCH   8  20
ATOM     19  N   UNL     1     -36.409  19.638   1.467  0.00  0.00    -0.086 NA
ATOM     20  C   UNL     1     -35.378  20.319   1.926  0.00  0.00    +0.119 C 
BRANCH  20  21
ATOM     21  C   UNL     1     -34.034  20.003   1.313  0.00  0.00    +0.021 C 
ATOM     22  C   UNL     1     -33.490  20.916   0.453  0.00  0.00    +0.002 C 
ATOM     23  C   UNL     1     -33.436  18.821   1.656  0.00  0.00    +0.002 C 
ATOM     24  C   UNL     1     -32.247  20.623  -0.110  0.00  0.00    +0.000 C 
ATOM     25  C   UNL     1     -32.195  18.528   1.093  0.00  0.00    +0.000 C 
ATOM     26  C   UNL     1     -31.600  19.430   0.210  0.00  0.00    +0.000 C 
ENDBRANCH  20  21
BRANCH  19  27
ATOM     27  O   UNL     1     -36.018  18.736   0.474  0.00  0.00    -0.409 OA
ATOM     28  H   UNL     1     -36.556  18.611  -0.283  0.00  0.00    +0.328 HD
ENDBRANCH  19  27
ENDBRANCH   8  20
TORSDOF 5
ENDMDL
MODEL 2
REMARK VINA RESULT:      -7.4      1.077      1.628
REMARK  Name = 5748733
REMARK  5 active torsions:
REMARK  status: ('A' for Active; 'I' for Inactive)
REMARK    1  A    between atoms: N_1  and  S_13
REMARK    2  A    between atoms: C_8  and  C_20
REMARK    3  A    between atoms: S_13  and  C_16
REMARK    4  A    between atoms: N_19  and  O_27
REMARK    5  A    between atoms: C_20  and  C_21
REMARK                            x       y       z     vdW  Elec       q    Type
REMARK                         _______ _______ _______ _____ _____    ______ ____
ROOT
ATOM      1  N   UNL     1     -36.216  24.899   3.639  0.00  0.00    -0.132 N 
ATOM      2  N   UNL     1     -35.775  24.355   5.749  0.00  0.00    -0.375 NA
ATOM      3  N   UNL     1     -36.391  26.619   5.240  0.00  0.00    -0.319 N 
ATOM      4  C   UNL     1     -35.902  23.565   3.614  0.00  0.00    +0.103 C 
ATOM      5  C   UNL     1     -35.630  23.248   4.943  0.00  0.00    +0.132 C 
ATOM      6  C   UNL     1     -36.126  25.325   4.936  0.00  0.00    +0.258 C 
ATOM      7  C   UNL     1     -35.832  22.636   2.576  0.00  0.00    +0.020 C 
ATOM      8  C   UNL     1     -35.470  21.330   2.922  0.00  0.00    +0.018 C 
ATOM      9  C   UNL     1     -35.268  21.932   5.273  0.00  0.00    +0.086 C 
ATOM     10  C   UNL     1     -35.193  20.981   4.246  0.00  0.00    -0.017 C 
ATOM     11  H   UNL     1     -36.645  27.250   4.529  0.00  0.00    +0.146 HD
ATOM     12  H   UNL     1     -36.327  26.927   6.173  0.00  0.00    +0.146 HD
ENDROOT
BRANCH   1  13
ATOM     13  S   UNL     1     -36.631  25.820   2.315  0.00  0.00    +0.062 S 
ATOM     14  O   UNL     1     -37.986  26.307   2.575  0.00  0.00    -0.154 OA
ATOM     15  O   UNL     1     -35.528  26.763   2.137  0.00  0.00    -0.154 OA
BRANCH  13  16
ATOM     16  C   UNL     1     -36.732  24.835   0.821  0.00  0.00    +0.150 C 
ATOM     17  C   UNL     1     -35.633  25.237  -0.150  0.00  0.00    +0.027 C 
ATOM     18  C   UNL     1     -38.110  24.973   0.191  0.00  0.00    +0.027 C 
ENDBRANCH  13  16
ENDBRANCH   1  13
BRANCH   8  20
ATOM     19  N   UNL     1     -36.418  19.663   1.393  0.00  0.00    -0.086 NA
ATOM     20  C   UNL     1     -35.383  20.315   1.883  0.00  0.00    +0.119 C 
BRANCH  20  21
ATOM     21  C   UNL     1     -34.032  19.969   1.303  0.00  0.00    +0.021 C 
ATOM     22  C   UNL     1     -33.460  18.783   1.669  0.00  0.00    +0.002 C 
ATOM     23  C   UNL     1     -33.458  20.863   0.441  0.00  0.00    +0.002 C 
ATOM     24  C   UNL     1     -32.213  18.464   1.131  0.00  0.00    +0.000 C 
ATOM     25  C   UNL     1     -32.211  20.545  -0.097  0.00  0.00    +0.000 C 
ATOM     26  C   UNL     1     -31.589  19.345   0.248  0.00  0.00    +0.000 C 
ENDBRANCH  20  21
BRANCH  19  27
ATOM     27  O   UNL     1     -36.024  18.758   0.404  0.00  0.00    -0.409 OA
ATOM     28  H   UNL     1     -35.848  17.866   0.628  0.00  0.00    +0.328 HD
ENDBRANCH  19  27
ENDBRANCH   8  20
TORSDOF 5
ENDMDL
MODEL 3
REMARK VINA RESULT:      -6.7      2.414      3.748
REMARK  Name = 5748733
REMARK  5 active torsions:
REMARK  status: ('A' for Active; 'I' for Inactive)
REMARK    1  A    between atoms: N_1  and  S_13
REMARK    2  A    between atoms: C_8  and  C_20
REMARK    3  A    between atoms: S_13  and  C_16
REMARK    4  A    between atoms: N_19  and  O_27
REMARK    5  A    between atoms: C_20  and  C_21
REMARK                            x       y       z     vdW  Elec       q    Type
REMARK                         _______ _______ _______ _____ _____    ______ ____
ROOT
ATOM      1  N   UNL     1     -35.267  24.847   3.365  0.00  0.00    -0.132 N 
ATOM      2  N   UNL     1     -34.257  26.635   2.515  0.00  0.00    -0.375 NA
ATOM      3  N   UNL     1     -35.346  26.823   4.646  0.00  0.00    -0.319 N 
ATOM      4  C   UNL     1     -34.747  24.437   2.164  0.00  0.00    +0.103 C 
ATOM      5  C   UNL     1     -34.121  25.571   1.652  0.00  0.00    +0.132 C 
ATOM      6  C   UNL     1     -34.948  26.167   3.529  0.00  0.00    +0.258 C 
ATOM      7  C   UNL     1     -34.770  23.210   1.501  0.00  0.00    +0.020 C 
ATOM      8  C   UNL     1     -34.121  23.150   0.263  0.00  0.00    +0.018 C 
ATOM      9  C   UNL     1     -33.474  25.493   0.408  0.00  0.00    +0.086 C 
ATOM     10  C   UNL     1     -33.483  24.271  -0.276  0.00  0.00    -0.017 C 
ATOM     11  H   UNL     1     -35.865  26.350   5.336  0.00  0.00    +0.146 HD
ATOM     12  H   UNL     1     -35.118  27.773   4.766  0.00  0.00    +0.146 HD
ENDROOT
BRANCH   1  13
ATOM     13  S   UNL     1     -36.130  23.892   4.421  0.00  0.00    +0.062 S 
ATOM     14  O   UNL     1     -36.364  24.717   5.607  0.00  0.00    -0.154 OA
ATOM     15  O   UNL     1     -37.258  23.378   3.646  0.00  0.00    -0.154 OA
BRANCH  13  16
ATOM     16  C   UNL     1     -35.179  22.478   4.975  0.00  0.00    +0.150 C 
ATOM     17  C   UNL     1     -35.467  21.271   4.094  0.00  0.00    +0.027 C 
ATOM     18  C   UNL     1     -35.475  22.183   6.437  0.00  0.00    +0.027 C 
ENDBRANCH  13  16
ENDBRANCH   1  13
BRANCH   8  20
ATOM     19  N   UNL     1     -34.730  21.705  -1.621  0.00  0.00    -0.086 NA
ATOM     20  C   UNL     1     -34.109  21.897  -0.475  0.00  0.00    +0.119 C 
BRANCH  20  21
ATOM     21  C   UNL     1     -33.337  20.723   0.079  0.00  0.00    +0.021 C 
ATOM     22  C   UNL     1     -34.002  19.838   0.881  0.00  0.00    +0.002 C 
ATOM     23  C   UNL     1     -32.015  20.611  -0.255  0.00  0.00    +0.002 C 
ATOM     24  C   UNL     1     -33.288  18.753   1.390  0.00  0.00    +0.000 C 
ATOM     25  C   UNL     1     -31.301  19.526   0.254  0.00  0.00    +0.000 C 
ATOM     26  C   UNL     1     -31.938  18.597   1.077  0.00  0.00    +0.000 C 
ENDBRANCH  20  21
BRANCH  19  27
ATOM     27  O   UNL     1     -34.530  20.405  -2.094  0.00  0.00    -0.409 OA
ATOM     28  H   UNL     1     -34.150  19.756  -1.534  0.00  0.00    +0.328 HD
ENDBRANCH  19  27
ENDBRANCH   8  20
TORSDOF 5
ENDMDL
MODEL 4
REMARK VINA RESULT:      -6.6      3.256      4.723
REMARK  Name = 5748733
REMARK  5 active torsions:
REMARK  status: ('A' for Active; 'I' for Inactive)
REMARK    1  A    between atoms: N_1  and  S_13
REMARK    2  A    between atoms: C_8  and  C_20
REMARK    3  A    between atoms: S_13  and  C_16
REMARK    4  A    between atoms: N_19  and  O_27
REMARK    5  A    between atoms: C_20  and  C_21
REMARK                            x       y       z     vdW  Elec       q    Type
REMARK                         _______ _______ _______ _____ _____    ______ ____
ROOT
ATOM      1  N   UNL     1     -33.034  26.540   2.575  0.00  0.00    -0.132 N 
ATOM      2  N   UNL     1     -33.278  27.902   4.314  0.00  0.00    -0.375 NA
ATOM      3  N   UNL     1     -32.234  28.742   2.322  0.00  0.00    -0.319 N 
ATOM      4  C   UNL     1     -33.651  25.790   3.543  0.00  0.00    +0.103 C 
ATOM      5  C   UNL     1     -33.792  26.662   4.619  0.00  0.00    +0.132 C 
ATOM      6  C   UNL     1     -32.832  27.794   3.083  0.00  0.00    +0.258 C 
ATOM      7  C   UNL     1     -34.083  24.464   3.570  0.00  0.00    +0.020 C 
ATOM      8  C   UNL     1     -34.685  24.021   4.752  0.00  0.00    +0.018 C 
ATOM      9  C   UNL     1     -34.400  26.201   5.799  0.00  0.00    +0.086 C 
ATOM     10  C   UNL     1     -34.842  24.873   5.848  0.00  0.00    -0.017 C 
ATOM     11  H   UNL     1     -31.944  28.528   1.406  0.00  0.00    +0.146 HD
ATOM     12  H   UNL     1     -32.088  29.645   2.687  0.00  0.00    +0.146 HD
ENDROOT
BRANCH   1  13
ATOM     13  S   UNL     1     -32.614  26.002   1.056  0.00  0.00    +0.062 S 
ATOM     14  O   UNL     1     -33.136  26.998   0.119  0.00  0.00    -0.154 OA
ATOM     15  O   UNL     1     -31.178  25.734   1.123  0.00  0.00    -0.154 OA
BRANCH  13  16
ATOM     16  C   UNL     1     -33.423  24.457   0.646  0.00  0.00    +0.150 C 
ATOM     17  C   UNL     1     -32.553  23.640  -0.296  0.00  0.00    +0.027 C 
ATOM     18  C   UNL     1     -34.795  24.724   0.046  0.00  0.00    +0.027 C 
ENDBRANCH  13  16
ENDBRANCH   1  13
BRANCH   8  20
ATOM     19  N   UNL     1     -35.051  21.893   5.914  0.00  0.00    -0.086 NA
ATOM     20  C   UNL     1     -35.158  22.648   4.840  0.00  0.00    +0.119 C 
BRANCH  20  21
ATOM     21  C   UNL     1     -35.827  22.022   3.639  0.00  0.00    +0.021 C 
ATOM     22  C   UNL     1     -35.206  20.962   3.038  0.00  0.00    +0.002 C 
ATOM     23  C   UNL     1     -37.019  22.548   3.223  0.00  0.00    +0.002 C 
ATOM     24  C   UNL     1     -35.826  20.383   1.931  0.00  0.00    +0.000 C 
ATOM     25  C   UNL     1     -37.639  21.970   2.115  0.00  0.00    +0.000 C 
ATOM     26  C   UNL     1     -37.042  20.887   1.470  0.00  0.00    +0.000 C 
ENDBRANCH  20  21
BRANCH  19  27
ATOM     27  O   UNL     1     -35.602  20.627   5.701  0.00  0.00    -0.409 OA
ATOM     28  H   UNL     1     -35.096  19.961   5.279  0.00  0.00    +0.328 HD
ENDBRANCH  19  27
ENDBRANCH   8  20
TORSDOF 5
ENDMDL
MODEL 5
REMARK VINA RESULT:      -6.6      3.202      4.237
REMARK  Name = 5748733
REMARK  5 active torsions:
REMARK  status: ('A' for Active; 'I' for Inactive)
REMARK    1  A    between atoms: N_1  and  S_13
REMARK    2  A    between atoms: C_8  and  C_20
REMARK    3  A    between atoms: S_13  and  C_16
REMARK    4  A    between atoms: N_19  and  O_27
REMARK    5  A    between atoms: C_20  and  C_21
REMARK                            x       y       z     vdW  Elec       q    Type
REMARK                         _______ _______ _______ _____ _____    ______ ____
ROOT
ATOM      1  N   UNL     1     -32.876  26.707   3.539  0.00  0.00    -0.132 N 
ATOM      2  N   UNL     1     -33.393  27.253   5.631  0.00  0.00    -0.375 NA
ATOM      3  N   UNL     1     -31.625  28.443   4.526  0.00  0.00    -0.319 N 
ATOM      4  C   UNL     1     -33.904  25.870   3.892  0.00  0.00    +0.103 C 
ATOM      5  C   UNL     1     -34.209  26.231   5.202  0.00  0.00    +0.132 C 
ATOM      6  C   UNL     1     -32.608  27.514   4.611  0.00  0.00    +0.258 C 
ATOM      7  C   UNL     1     -34.571  24.860   3.200  0.00  0.00    +0.020 C 
ATOM      8  C   UNL     1     -35.594  24.196   3.885  0.00  0.00    +0.018 C 
ATOM      9  C   UNL     1     -35.239  25.554   5.875  0.00  0.00    +0.086 C 
ATOM     10  C   UNL     1     -35.924  24.536   5.200  0.00  0.00    -0.017 C 
ATOM     11  H   UNL     1     -31.105  28.535   3.695  0.00  0.00    +0.146 HD
ATOM     12  H   UNL     1     -31.430  29.024   5.296  0.00  0.00    +0.146 HD
ENDROOT
BRANCH   1  13
ATOM     13  S   UNL     1     -32.106  26.723   2.063  0.00  0.00    +0.062 S 
ATOM     14  O   UNL     1     -32.023  28.130   1.669  0.00  0.00    -0.154 OA
ATOM     15  O   UNL     1     -30.888  25.937   2.253  0.00  0.00    -0.154 OA
BRANCH  13  16
ATOM     16  C   UNL     1     -33.072  25.905   0.795  0.00  0.00    +0.150 C 
ATOM     17  C   UNL     1     -32.288  24.745   0.201  0.00  0.00    +0.027 C 
ATOM     18  C   UNL     1     -33.488  26.902  -0.276  0.00  0.00    +0.027 C 
ENDBRANCH  13  16
ENDBRANCH   1  13
BRANCH   8  20
ATOM     19  N   UNL     1     -37.634  22.971   3.293  0.00  0.00    -0.086 NA
ATOM     20  C   UNL     1     -36.328  23.134   3.215  0.00  0.00    +0.119 C 
BRANCH  20  21
ATOM     21  C   UNL     1     -35.574  22.142   2.362  0.00  0.00    +0.021 C 
ATOM     22  C   UNL     1     -35.280  20.921   2.905  0.00  0.00    +0.002 C 
ATOM     23  C   UNL     1     -35.230  22.519   1.094  0.00  0.00    +0.002 C 
ATOM     24  C   UNL     1     -34.585  20.005   2.115  0.00  0.00    +0.000 C 
ATOM     25  C   UNL     1     -34.535  21.604   0.304  0.00  0.00    +0.000 C 
ATOM     26  C   UNL     1     -34.213  20.346   0.815  0.00  0.00    +0.000 C 
ENDBRANCH  20  21
BRANCH  19  27
ATOM     27  O   UNL     1     -38.052  21.872   2.539  0.00  0.00    -0.409 OA
ATOM     28  H   UNL     1     -38.607  21.223   2.924  0.00  0.00    +0.328 HD
ENDBRANCH  19  27
ENDBRANCH   8  20
TORSDOF 5
ENDMDL
MODEL 6
REMARK VINA RESULT:      -6.5      4.541      6.445
REMARK  Name = 5748733
REMARK  5 active torsions:
REMARK  status: ('A' for Active; 'I' for Inactive)
REMARK    1  A    between atoms: N_1  and  S_13
REMARK    2  A    between atoms: C_8  and  C_20
REMARK    3  A    between atoms: S_13  and  C_16
REMARK    4  A    between atoms: N_19  and  O_27
REMARK    5  A    between atoms: C_20  and  C_21
REMARK                            x       y       z     vdW  Elec       q    Type
REMARK                         _______ _______ _______ _____ _____    ______ ____
ROOT
ATOM      1  N   UNL     1     -31.758  27.860   3.307  0.00  0.00    -0.132 N 
ATOM      2  N   UNL     1     -31.396  27.474   1.148  0.00  0.00    -0.375 NA
ATOM      3  N   UNL     1     -29.889  28.916   2.336  0.00  0.00    -0.319 N 
ATOM      4  C   UNL     1     -32.765  27.016   2.912  0.00  0.00    +0.103 C 
ATOM      5  C   UNL     1     -32.517  26.790   1.560  0.00  0.00    +0.132 C 
ATOM      6  C   UNL     1     -30.967  28.104   2.218  0.00  0.00    +0.258 C 
ATOM      7  C   UNL     1     -33.838  26.449   3.599  0.00  0.00    +0.020 C 
ATOM      8  C   UNL     1     -34.687  25.616   2.864  0.00  0.00    +0.018 C 
ATOM      9  C   UNL     1     -33.380  25.950   0.837  0.00  0.00    +0.086 C 
ATOM     10  C   UNL     1     -34.464  25.369   1.507  0.00  0.00    -0.017 C 
ATOM     11  H   UNL     1     -29.677  29.330   3.204  0.00  0.00    +0.146 HD
ATOM     12  H   UNL     1     -29.319  29.093   1.554  0.00  0.00    +0.146 HD
ENDROOT
BRANCH   1  13
ATOM     13  S   UNL     1     -31.553  28.468   4.843  0.00  0.00    +0.062 S 
ATOM     14  O   UNL     1     -32.657  27.928   5.638  0.00  0.00    -0.154 OA
ATOM     15  O   UNL     1     -30.168  28.162   5.199  0.00  0.00    -0.154 OA
BRANCH  13  16
ATOM     16  C   UNL     1     -31.730  30.250   4.886  0.00  0.00    +0.150 C 
ATOM     17  C   UNL     1     -31.920  30.727   6.318  0.00  0.00    +0.027 C 
ATOM     18  C   UNL     1     -32.884  30.687   3.996  0.00  0.00    +0.027 C 
ENDBRANCH  13  16
ENDBRANCH   1  13
BRANCH   8  20
ATOM     19  N   UNL     1     -37.047  25.480   3.516  0.00  0.00    -0.086 NA
ATOM     20  C   UNL     1     -35.823  24.993   3.526  0.00  0.00    +0.119 C 
BRANCH  20  21
ATOM     21  C   UNL     1     -35.619  23.699   4.278  0.00  0.00    +0.021 C 
ATOM     22  C   UNL     1     -35.595  22.536   3.560  0.00  0.00    +0.002 C 
ATOM     23  C   UNL     1     -35.467  23.765   5.636  0.00  0.00    +0.002 C 
ATOM     24  C   UNL     1     -35.404  21.342   4.256  0.00  0.00    +0.000 C 
ATOM     25  C   UNL     1     -35.277  22.571   6.332  0.00  0.00    +0.000 C 
ATOM     26  C   UNL     1     -35.245  21.360   5.641  0.00  0.00    +0.000 C 
ENDBRANCH  20  21
BRANCH  19  27
ATOM     27  O   UNL     1     -37.925  24.661   4.230  0.00  0.00    -0.409 OA
ATOM     28  H   UNL     1     -38.391  23.978   3.790  0.00  0.00    +0.328 HD
ENDBRANCH  19  27
ENDBRANCH   8  20
TORSDOF 5
ENDMDL
MODEL 7
REMARK VINA RESULT:      -6.5      3.672      7.745
REMARK  Name = 5748733
REMARK  5 active torsions:
REMARK  status: ('A' for Active; 'I' for Inactive)
REMARK    1  A    between atoms: N_1  and  S_13
REMARK    2  A    between atoms: C_8  and  C_20
REMARK    3  A    between atoms: S_13  and  C_16
REMARK    4  A    between atoms: N_19  and  O_27
REMARK    5  A    between atoms: C_20  and  C_21
REMARK                            x       y       z     vdW  Elec       q    Type
REMARK                         _______ _______ _______ _____ _____    ______ ____
ROOT
ATOM      1  N   UNL     1     -31.499  19.296   0.120  0.00  0.00    -0.132 N 
ATOM      2  N   UNL     1     -30.950  21.083  -1.083  0.00  0.00    -0.375 NA
ATOM      3  N   UNL     1     -29.521  19.155  -1.153  0.00  0.00    -0.319 N 
ATOM      4  C   UNL     1     -32.487  20.216   0.360  0.00  0.00    +0.103 C 
ATOM      5  C   UNL     1     -32.122  21.323  -0.402  0.00  0.00    +0.132 C 
ATOM      6  C   UNL     1     -30.604  19.860  -0.747  0.00  0.00    +0.258 C 
ATOM      7  C   UNL     1     -33.633  20.176   1.154  0.00  0.00    +0.020 C 
ATOM      8  C   UNL     1     -34.434  21.323   1.162  0.00  0.00    +0.018 C 
ATOM      9  C   UNL     1     -32.938  22.466  -0.383  0.00  0.00    +0.086 C 
ATOM     10  C   UNL     1     -34.095  22.449   0.407  0.00  0.00    -0.017 C 
ATOM     11  H   UNL     1     -29.378  18.239  -0.822  0.00  0.00    +0.146 HD
ATOM     12  H   UNL     1     -28.876  19.560  -1.777  0.00  0.00    +0.146 HD
ENDROOT
BRANCH   1  13
ATOM     13  S   UNL     1     -31.420  17.768   0.776  0.00  0.00    +0.062 S 
ATOM     14  O   UNL     1     -30.008  17.537   1.086  0.00  0.00    -0.154 OA
ATOM     15  O   UNL     1     -32.421  17.751   1.842  0.00  0.00    -0.154 OA
BRANCH  13  16
ATOM     16  C   UNL     1     -31.885  16.506  -0.408  0.00  0.00    +0.150 C 
ATOM     17  C   UNL     1     -33.333  16.091  -0.195  0.00  0.00    +0.027 C 
ATOM     18  C   UNL     1     -30.944  15.315  -0.306  0.00  0.00    +0.027 C 
ENDBRANCH  13  16
ENDBRANCH   1  13
BRANCH   8  20
ATOM     19  N   UNL     1     -36.802  20.847   1.583  0.00  0.00    -0.086 NA
ATOM     20  C   UNL     1     -35.644  21.342   1.969  0.00  0.00    +0.119 C 
BRANCH  20  21
ATOM     21  C   UNL     1     -35.600  21.958   3.348  0.00  0.00    +0.021 C 
ATOM     22  C   UNL     1     -35.954  23.272   3.476  0.00  0.00    +0.002 C 
ATOM     23  C   UNL     1     -35.211  21.164   4.391  0.00  0.00    +0.002 C 
ATOM     24  C   UNL     1     -35.915  23.838   4.750  0.00  0.00    +0.000 C 
ATOM     25  C   UNL     1     -35.171  21.730   5.665  0.00  0.00    +0.000 C 
ATOM     26  C   UNL     1     -35.523  23.067   5.844  0.00  0.00    +0.000 C 
ENDBRANCH  20  21
BRANCH  19  27
ATOM     27  O   UNL     1     -37.775  21.004   2.573  0.00  0.00    -0.409 OA
ATOM     28  H   UNL     1     -37.887  20.345   3.229  0.00  0.00    +0.328 HD
ENDBRANCH  19  27
ENDBRANCH   8  20
TORSDOF 5
ENDMDL
MODEL 8
REMARK VINA RESULT:      -6.5      4.405      6.313
REMARK  Name = 5748733
REMARK  5 active torsions:
REMARK  status: ('A' for Active; 'I' for Inactive)
REMARK    1  A    between atoms: N_1  and  S_13
REMARK    2  A    between atoms: C_8  and  C_20
REMARK    3  A    between atoms: S_13  and  C_16
REMARK    4  A    between atoms: N_19  and  O_27
REMARK    5  A    between atoms: C_20  and  C_21
REMARK                            x       y       z     vdW  Elec       q    Type
REMARK                         _______ _______ _______ _____ _____    ______ ____
ROOT
ATOM      1  N   UNL     1     -32.069  28.784   3.689  0.00  0.00    -0.132 N 
ATOM      2  N   UNL     1     -31.121  28.751   5.700  0.00  0.00    -0.375 NA
ATOM      3  N   UNL     1     -30.203  30.187   4.009  0.00  0.00    -0.319 N 
ATOM      4  C   UNL     1     -32.801  27.887   4.424  0.00  0.00    +0.103 C 
ATOM      5  C   UNL     1     -32.190  27.883   5.675  0.00  0.00    +0.132 C 
ATOM      6  C   UNL     1     -31.077  29.273   4.495  0.00  0.00    +0.258 C 
ATOM      7  C   UNL     1     -33.910  27.101   4.111  0.00  0.00    +0.020 C 
ATOM      8  C   UNL     1     -34.409  26.282   5.129  0.00  0.00    +0.018 C 
ATOM      9  C   UNL     1     -32.704  27.055   6.686  0.00  0.00    +0.086 C 
ATOM     10  C   UNL     1     -33.818  26.258   6.395  0.00  0.00    -0.017 C 
ATOM     11  H   UNL     1     -30.281  30.497   3.078  0.00  0.00    +0.146 HD
ATOM     12  H   UNL     1     -29.489  30.540   4.587  0.00  0.00    +0.146 HD
ENDROOT
BRANCH   1  13
ATOM     13  S   UNL     1     -32.353  29.192   2.100  0.00  0.00    +0.062 S 
ATOM     14  O   UNL     1     -31.035  29.387   1.495  0.00  0.00    -0.154 OA
ATOM     15  O   UNL     1     -33.254  28.161   1.590  0.00  0.00    -0.154 OA
BRANCH  13  16
ATOM     16  C   UNL     1     -33.206  30.761   1.956  0.00  0.00    +0.150 C 
ATOM     17  C   UNL     1     -32.213  31.878   1.672  0.00  0.00    +0.027 C 
ATOM     18  C   UNL     1     -34.013  31.040   3.214  0.00  0.00    +0.027 C 
ENDBRANCH  13  16
ENDBRANCH   1  13
BRANCH   8  20
ATOM     19  N   UNL     1     -36.776  25.899   4.616  0.00  0.00    -0.086 NA
ATOM     20  C   UNL     1     -35.566  25.441   4.864  0.00  0.00    +0.119 C 
BRANCH  20  21
ATOM     21  C   UNL     1     -35.400  23.939   4.861  0.00  0.00    +0.021 C 
ATOM     22  C   UNL     1     -35.322  23.299   6.067  0.00  0.00    +0.002 C 
ATOM     23  C   UNL     1     -35.340  23.305   3.651  0.00  0.00    +0.002 C 
ATOM     24  C   UNL     1     -35.171  21.912   6.061  0.00  0.00    +0.000 C 
ATOM     25  C   UNL     1     -35.188  21.918   3.646  0.00  0.00    +0.000 C 
ATOM     26  C   UNL     1     -35.104  21.222   4.851  0.00  0.00    +0.000 C 
ENDBRANCH  20  21
BRANCH  19  27
ATOM     27  O   UNL     1     -37.677  24.855   4.394  0.00  0.00    -0.409 OA
ATOM     28  H   UNL     1     -37.761  24.166   5.023  0.00  0.00    +0.328 HD
ENDBRANCH  19  27
ENDBRANCH   8  20
TORSDOF 5
ENDMDL
MODEL 9
REMARK VINA RESULT:      -6.4      2.460      3.035
REMARK  Name = 5748733
REMARK  5 active torsions:
REMARK  status: ('A' for Active; 'I' for Inactive)
REMARK    1  A    between atoms: N_1  and  S_13
REMARK    2  A    between atoms: C_8  and  C_20
REMARK    3  A    between atoms: S_13  and  C_16
REMARK    4  A    between atoms: N_19  and  O_27
REMARK    5  A    between atoms: C_20  and  C_21
REMARK                            x       y       z     vdW  Elec       q    Type
REMARK                         _______ _______ _______ _____ _____    ______ ____
ROOT
ATOM      1  N   UNL     1     -33.945  25.641   4.043  0.00  0.00    -0.132 N 
ATOM      2  N   UNL     1     -34.761  24.901   5.974  0.00  0.00    -0.375 NA
ATOM      3  N   UNL     1     -33.695  27.051   5.914  0.00  0.00    -0.319 N 
ATOM      4  C   UNL     1     -34.482  24.410   3.766  0.00  0.00    +0.103 C 
ATOM      5  C   UNL     1     -34.985  23.968   4.987  0.00  0.00    +0.132 C 
ATOM      6  C   UNL     1     -34.136  25.889   5.375  0.00  0.00    +0.258 C 
ATOM      7  C   UNL     1     -34.567  23.667   2.588  0.00  0.00    +0.020 C 
ATOM      8  C   UNL     1     -35.197  22.421   2.673  0.00  0.00    +0.018 C 
ATOM      9  C   UNL     1     -35.615  22.715   5.054  0.00  0.00    +0.086 C 
ATOM     10  C   UNL     1     -35.714  21.951   3.884  0.00  0.00    -0.017 C 
ATOM     11  H   UNL     1     -33.237  27.714   5.349  0.00  0.00    +0.146 HD
ATOM     12  H   UNL     1     -33.832  27.232   6.872  0.00  0.00    +0.146 HD
ENDROOT
BRANCH   1  13
ATOM     13  S   UNL     1     -33.197  26.640   2.942  0.00  0.00    +0.062 S 
ATOM     14  O   UNL     1     -33.988  27.871   2.914  0.00  0.00    -0.154 OA
ATOM     15  O   UNL     1     -31.791  26.676   3.343  0.00  0.00    -0.154 OA
BRANCH  13  16
ATOM     16  C   UNL     1     -33.257  25.969   1.281  0.00  0.00    +0.150 C 
ATOM     17  C   UNL     1     -31.850  25.808   0.727  0.00  0.00    +0.027 C 
ATOM     18  C   UNL     1     -34.110  26.855   0.386  0.00  0.00    +0.027 C 
ENDBRANCH  13  16
ENDBRANCH   1  13
BRANCH   8  20
ATOM     19  N   UNL     1     -36.379  21.580   0.697  0.00  0.00    -0.086 NA
ATOM     20  C   UNL     1     -35.319  21.601   1.478  0.00  0.00    +0.119 C 
BRANCH  20  21
ATOM     21  C   UNL     1     -34.168  20.708   1.077  0.00  0.00    +0.021 C 
ATOM     22  C   UNL     1     -34.106  19.456   1.622  0.00  0.00    +0.002 C 
ATOM     23  C   UNL     1     -33.254  21.203   0.188  0.00  0.00    +0.002 C 
ATOM     24  C   UNL     1     -33.044  18.632   1.249  0.00  0.00    +0.000 C 
ATOM     25  C   UNL     1     -32.191  20.380  -0.184  0.00  0.00    +0.000 C 
ATOM     26  C   UNL     1     -32.087  19.094   0.346  0.00  0.00    +0.000 C 
ENDBRANCH  20  21
BRANCH  19  27
ATOM     27  O   UNL     1     -36.201  20.703  -0.376  0.00  0.00    -0.409 OA
ATOM     28  H   UNL     1     -36.423  20.974  -1.245  0.00  0.00    +0.328 HD
ENDBRANCH  19  27
ENDBRANCH   8  20
TORSDOF 5
ENDMDL
