MODEL 1
REMARK VINA RESULT:      -5.3      0.000      0.000
REMARK  Name = 20224
REMARK  4 active torsions:
REMARK  status: ('A' for Active; 'I' for Inactive)
REMARK    1  A    between atoms: C_1  and  N_9
REMARK    2  A    between atoms: C_2  and  O_13
REMARK    3  A    between atoms: C_3  and  N_12
REMARK    4  A    between atoms: O_13  and  C_15
REMARK                            x       y       z     vdW  Elec       q    Type
REMARK                         _______ _______ _______ _____ _____    ______ ____
ROOT
ATOM      1  C   UNL     1     -35.593  23.729   5.012  0.00  0.00    +0.179 C 
ATOM      2  C   UNL     1     -36.584  24.199   4.149  0.00  0.00    +0.171 C 
ATOM      3  C   UNL     1     -34.571  25.918   5.031  0.00  0.00    +0.145 C 
ATOM      4  C   UNL     1     -34.587  24.588   5.452  0.00  0.00    +0.051 C 
ATOM      5  C   UNL     1     -36.568  25.528   3.728  0.00  0.00    +0.041 C 
ATOM      6  C   UNL     1     -35.562  26.388   4.168  0.00  0.00    +0.027 C 
ENDROOT
BRANCH   1   9
ATOM      7  O   UNL     1     -36.031  22.110   6.595  0.00  0.00    -0.126 OA
ATOM      8  O   UNL     1     -35.157  21.489   4.680  0.00  0.00    -0.126 OA
ATOM      9  N   UNL     1     -35.594  22.376   5.451  0.00  0.00    +0.061 N 
ENDBRANCH   1   9
BRANCH   3  12
ATOM     10  O   UNL     1     -32.958  26.541   6.555  0.00  0.00    -0.126 OA
ATOM     11  O   UNL     1     -33.255  27.794   4.778  0.00  0.00    -0.126 OA
ATOM     12  N   UNL     1     -33.546  26.792   5.477  0.00  0.00    +0.058 N 
ENDBRANCH   3  12
BRANCH   2  13
ATOM     13  O   UNL     1     -37.577  23.378   3.704  0.00  0.00    -0.422 OA
BRANCH  13  15
ATOM     14  O   UNL     1     -36.490  22.614   1.777  0.00  0.00    -0.250 OA
ATOM     15  C   UNL     1     -37.483  23.052   2.342  0.00  0.00    +0.322 C 
ATOM     16  C   UNL     1     -38.791  23.322   1.660  0.00  0.00    +0.122 C 
ENDBRANCH  13  15
ENDBRANCH   2  13
TORSDOF 4
ENDMDL
MODEL 2
REMARK VINA RESULT:      -5.1      2.078      3.369
REMARK  Name = 20224
REMARK  4 active torsions:
REMARK  status: ('A' for Active; 'I' for Inactive)
REMARK    1  A    between atoms: C_1  and  N_9
REMARK    2  A    between atoms: C_2  and  O_13
REMARK    3  A    between atoms: C_3  and  N_12
REMARK    4  A    between atoms: O_13  and  C_15
REMARK                            x       y       z     vdW  Elec       q    Type
REMARK                         _______ _______ _______ _____ _____    ______ ____
ROOT
ATOM      1  C   UNL     1     -36.715  25.005   3.745  0.00  0.00    +0.179 C 
ATOM      2  C   UNL     1     -35.986  24.445   4.794  0.00  0.00    +0.171 C 
ATOM      3  C   UNL     1     -35.184  26.873   3.679  0.00  0.00    +0.145 C 
ATOM      4  C   UNL     1     -36.315  26.219   3.187  0.00  0.00    +0.051 C 
ATOM      5  C   UNL     1     -34.856  25.099   5.285  0.00  0.00    +0.041 C 
ATOM      6  C   UNL     1     -34.455  26.313   4.728  0.00  0.00    +0.027 C 
ENDROOT
BRANCH   1   9
ATOM      7  O   UNL     1     -38.988  24.612   3.736  0.00  0.00    -0.126 OA
ATOM      8  O   UNL     1     -37.735  23.535   2.290  0.00  0.00    -0.126 OA
ATOM      9  N   UNL     1     -37.870  24.352   3.232  0.00  0.00    +0.061 N 
ENDBRANCH   1   9
BRANCH   3  12
ATOM     10  O   UNL     1     -35.244  28.455   2.002  0.00  0.00    -0.126 OA
ATOM     11  O   UNL     1     -33.961  28.826   3.743  0.00  0.00    -0.126 OA
ATOM     12  N   UNL     1     -34.777  28.110   3.114  0.00  0.00    +0.058 N 
ENDBRANCH   3  12
BRANCH   2  13
ATOM     13  O   UNL     1     -36.358  23.260   5.356  0.00  0.00    -0.422 OA
BRANCH  13  15
ATOM     14  O   UNL     1     -35.434  21.740   3.834  0.00  0.00    -0.250 OA
ATOM     15  C   UNL     1     -35.561  22.170   4.973  0.00  0.00    +0.322 C 
ATOM     16  C   UNL     1     -34.874  21.592   6.174  0.00  0.00    +0.122 C 
ENDBRANCH  13  15
ENDBRANCH   2  13
TORSDOF 4
ENDMDL
MODEL 3
REMARK VINA RESULT:      -5.0      2.734      5.567
REMARK  Name = 20224
REMARK  4 active torsions:
REMARK  status: ('A' for Active; 'I' for Inactive)
REMARK    1  A    between atoms: C_1  and  N_9
REMARK    2  A    between atoms: C_2  and  O_13
REMARK    3  A    between atoms: C_3  and  N_12
REMARK    4  A    between atoms: O_13  and  C_15
REMARK                            x       y       z     vdW  Elec       q    Type
REMARK                         _______ _______ _______ _____ _____    ______ ____
ROOT
ATOM      1  C   UNL     1     -36.591  22.137   2.675  0.00  0.00    +0.179 C 
ATOM      2  C   UNL     1     -36.479  23.387   3.285  0.00  0.00    +0.171 C 
ATOM      3  C   UNL     1     -38.880  22.633   2.081  0.00  0.00    +0.145 C 
ATOM      4  C   UNL     1     -37.792  21.759   2.073  0.00  0.00    +0.051 C 
ATOM      5  C   UNL     1     -37.567  24.259   3.292  0.00  0.00    +0.041 C 
ATOM      6  C   UNL     1     -38.768  23.882   2.691  0.00  0.00    +0.027 C 
ENDROOT
BRANCH   1   9
ATOM      7  O   UNL     1     -35.274  20.526   3.669  0.00  0.00    -0.126 OA
ATOM      8  O   UNL     1     -34.774  21.174   1.632  0.00  0.00    -0.126 OA
ATOM      9  N   UNL     1     -35.492  21.234   2.658  0.00  0.00    +0.061 N 
ENDBRANCH   1   9
BRANCH   3  12
ATOM     10  O   UNL     1     -40.849  23.136   0.992  0.00  0.00    -0.126 OA
ATOM     11  O   UNL     1     -40.404  21.031   1.427  0.00  0.00    -0.126 OA
ATOM     12  N   UNL     1     -40.103  22.249   1.471  0.00  0.00    +0.058 N 
ENDBRANCH   3  12
BRANCH   2  13
ATOM     13  O   UNL     1     -35.317  23.777   3.880  0.00  0.00    -0.422 OA
BRANCH  13  15
ATOM     14  O   UNL     1     -35.832  22.999   6.027  0.00  0.00    -0.250 OA
ATOM     15  C   UNL     1     -35.391  23.861   5.279  0.00  0.00    +0.322 C 
ATOM     16  C   UNL     1     -34.846  25.180   5.742  0.00  0.00    +0.122 C 
ENDBRANCH  13  15
ENDBRANCH   2  13
TORSDOF 4
ENDMDL
MODEL 4
REMARK VINA RESULT:      -4.9      2.651      4.039
REMARK  Name = 20224
REMARK  4 active torsions:
REMARK  status: ('A' for Active; 'I' for Inactive)
REMARK    1  A    between atoms: C_1  and  N_9
REMARK    2  A    between atoms: C_2  and  O_13
REMARK    3  A    between atoms: C_3  and  N_12
REMARK    4  A    between atoms: O_13  and  C_15
REMARK                            x       y       z     vdW  Elec       q    Type
REMARK                         _______ _______ _______ _____ _____    ______ ____
ROOT
ATOM      1  C   UNL     1     -35.414  25.774   4.156  0.00  0.00    +0.179 C 
ATOM      2  C   UNL     1     -36.413  24.841   4.432  0.00  0.00    +0.171 C 
ATOM      3  C   UNL     1     -36.757  26.683   2.365  0.00  0.00    +0.145 C 
ATOM      4  C   UNL     1     -35.585  26.694   3.122  0.00  0.00    +0.051 C 
ATOM      5  C   UNL     1     -37.585  24.829   3.675  0.00  0.00    +0.041 C 
ATOM      6  C   UNL     1     -37.757  25.750   2.642  0.00  0.00    +0.027 C 
ENDROOT
BRANCH   1   9
ATOM      7  O   UNL     1     -34.170  26.492   5.960  0.00  0.00    -0.126 OA
ATOM      8  O   UNL     1     -33.230  25.128   4.521  0.00  0.00    -0.126 OA
ATOM      9  N   UNL     1     -34.212  25.799   4.917  0.00  0.00    +0.061 N 
ENDBRANCH   1   9
BRANCH   3  12
ATOM     10  O   UNL     1     -35.919  28.121   0.769  0.00  0.00    -0.126 OA
ATOM     11  O   UNL     1     -38.097  27.916   0.951  0.00  0.00    -0.126 OA
ATOM     12  N   UNL     1     -36.932  27.618   1.312  0.00  0.00    +0.058 N 
ENDBRANCH   3  12
BRANCH   2  13
ATOM     13  O   UNL     1     -36.268  23.930   5.436  0.00  0.00    -0.422 OA
BRANCH  13  15
ATOM     14  O   UNL     1     -35.581  22.321   3.880  0.00  0.00    -0.250 OA
ATOM     15  C   UNL     1     -35.675  22.723   5.032  0.00  0.00    +0.322 C 
ATOM     16  C   UNL     1     -35.165  21.978   6.230  0.00  0.00    +0.122 C 
ENDBRANCH  13  15
ENDBRANCH   2  13
TORSDOF 4
ENDMDL
MODEL 5
REMARK VINA RESULT:      -4.9      2.493      5.296
REMARK  Name = 20224
REMARK  4 active torsions:
REMARK  status: ('A' for Active; 'I' for Inactive)
REMARK    1  A    between atoms: C_1  and  N_9
REMARK    2  A    between atoms: C_2  and  O_13
REMARK    3  A    between atoms: C_3  and  N_12
REMARK    4  A    between atoms: O_13  and  C_15
REMARK                            x       y       z     vdW  Elec       q    Type
REMARK                         _______ _______ _______ _____ _____    ______ ____
ROOT
ATOM      1  C   UNL     1     -36.998  23.905   3.628  0.00  0.00    +0.179 C 
ATOM      2  C   UNL     1     -36.133  24.154   4.694  0.00  0.00    +0.171 C 
ATOM      3  C   UNL     1     -35.926  21.772   3.256  0.00  0.00    +0.145 C 
ATOM      4  C   UNL     1     -36.894  22.714   2.909  0.00  0.00    +0.051 C 
ATOM      5  C   UNL     1     -35.165  23.212   5.041  0.00  0.00    +0.041 C 
ATOM      6  C   UNL     1     -35.060  22.021   4.322  0.00  0.00    +0.027 C 
ENDROOT
BRANCH   1   9
ATOM      7  O   UNL     1     -39.138  24.756   3.757  0.00  0.00    -0.126 OA
ATOM      8  O   UNL     1     -37.689  25.763   2.450  0.00  0.00    -0.126 OA
ATOM      9  N   UNL     1     -37.991  24.854   3.261  0.00  0.00    +0.061 N 
ENDBRANCH   1   9
BRANCH   3  12
ATOM     10  O   UNL     1     -36.797  20.172   1.843  0.00  0.00    -0.126 OA
ATOM     11  O   UNL     1     -34.744  19.913   2.576  0.00  0.00    -0.126 OA
ATOM     12  N   UNL     1     -35.818  20.561   2.524  0.00  0.00    +0.058 N 
ENDBRANCH   3  12
BRANCH   2  13
ATOM     13  O   UNL     1     -36.214  25.310   5.411  0.00  0.00    -0.422 OA
BRANCH  13  15
ATOM     14  O   UNL     1     -35.229  27.033   4.170  0.00  0.00    -0.250 OA
ATOM     15  C   UNL     1     -35.212  26.244   5.105  0.00  0.00    +0.322 C 
ATOM     16  C   UNL     1     -34.095  26.141   6.101  0.00  0.00    +0.122 C 
ENDBRANCH  13  15
ENDBRANCH   2  13
TORSDOF 4
ENDMDL
MODEL 6
REMARK VINA RESULT:      -4.8      1.543      4.692
REMARK  Name = 20224
REMARK  4 active torsions:
REMARK  status: ('A' for Active; 'I' for Inactive)
REMARK    1  A    between atoms: C_1  and  N_9
REMARK    2  A    between atoms: C_2  and  O_13
REMARK    3  A    between atoms: C_3  and  N_12
REMARK    4  A    between atoms: O_13  and  C_15
REMARK                            x       y       z     vdW  Elec       q    Type
REMARK                         _______ _______ _______ _____ _____    ______ ____
ROOT
ATOM      1  C   UNL     1     -34.352  25.948   4.923  0.00  0.00    +0.179 C 
ATOM      2  C   UNL     1     -35.313  26.510   4.083  0.00  0.00    +0.171 C 
ATOM      3  C   UNL     1     -35.534  23.841   4.865  0.00  0.00    +0.145 C 
ATOM      4  C   UNL     1     -34.462  24.614   5.315  0.00  0.00    +0.051 C 
ATOM      5  C   UNL     1     -36.384  25.738   3.633  0.00  0.00    +0.041 C 
ATOM      6  C   UNL     1     -36.495  24.403   4.025  0.00  0.00    +0.027 C 
ENDROOT
BRANCH   1   9
ATOM      7  O   UNL     1     -32.338  27.022   4.589  0.00  0.00    -0.126 OA
ATOM      8  O   UNL     1     -33.233  27.078   6.593  0.00  0.00    -0.126 OA
ATOM      9  N   UNL     1     -33.253  26.721   5.391  0.00  0.00    +0.061 N 
ENDBRANCH   1   9
BRANCH   3  12
ATOM     10  O   UNL     1     -35.389  21.581   4.434  0.00  0.00    -0.126 OA
ATOM     11  O   UNL     1     -36.004  22.224   6.440  0.00  0.00    -0.126 OA
ATOM     12  N   UNL     1     -35.648  22.484   5.265  0.00  0.00    +0.058 N 
ENDBRANCH   3  12
BRANCH   2  13
ATOM     13  O   UNL     1     -35.227  27.812   3.687  0.00  0.00    -0.422 OA
BRANCH  13  15
ATOM     14  O   UNL     1     -34.008  27.474   1.717  0.00  0.00    -0.250 OA
ATOM     15  C   UNL     1     -34.946  27.978   2.322  0.00  0.00    +0.322 C 
ATOM     16  C   UNL     1     -35.970  28.875   1.694  0.00  0.00    +0.122 C 
ENDBRANCH  13  15
ENDBRANCH   2  13
TORSDOF 4
ENDMDL
MODEL 7
REMARK VINA RESULT:      -4.8      2.448      4.878
REMARK  Name = 20224
REMARK  4 active torsions:
REMARK  status: ('A' for Active; 'I' for Inactive)
REMARK    1  A    between atoms: C_1  and  N_9
REMARK    2  A    between atoms: C_2  and  O_13
REMARK    3  A    between atoms: C_3  and  N_12
REMARK    4  A    between atoms: O_13  and  C_15
REMARK                            x       y       z     vdW  Elec       q    Type
REMARK                         _______ _______ _______ _____ _____    ______ ____
ROOT
ATOM      1  C   UNL     1     -36.007  22.402   3.973  0.00  0.00    +0.179 C 
ATOM      2  C   UNL     1     -37.089  23.033   3.359  0.00  0.00    +0.171 C 
ATOM      3  C   UNL     1     -35.840  20.876   2.107  0.00  0.00    +0.145 C 
ATOM      4  C   UNL     1     -35.383  21.323   3.347  0.00  0.00    +0.051 C 
ATOM      5  C   UNL     1     -37.546  22.586   2.120  0.00  0.00    +0.041 C 
ATOM      6  C   UNL     1     -36.922  21.508   1.494  0.00  0.00    +0.027 C 
ENDROOT
BRANCH   1   9
ATOM      7  O   UNL     1     -35.994  22.323   6.278  0.00  0.00    -0.126 OA
ATOM      8  O   UNL     1     -34.653  23.742   5.273  0.00  0.00    -0.126 OA
ATOM      9  N   UNL     1     -35.528  22.844   5.237  0.00  0.00    +0.061 N 
ENDBRANCH   1   9
BRANCH   3  12
ATOM     10  O   UNL     1     -35.821  19.160   0.568  0.00  0.00    -0.126 OA
ATOM     11  O   UNL     1     -34.048  19.453   1.828  0.00  0.00    -0.126 OA
ATOM     12  N   UNL     1     -35.207  19.777   1.470  0.00  0.00    +0.058 N 
ENDBRANCH   3  12
BRANCH   2  13
ATOM     13  O   UNL     1     -37.716  24.089   3.952  0.00  0.00    -0.422 OA
BRANCH  13  15
ATOM     14  O   UNL     1     -36.353  25.841   3.209  0.00  0.00    -0.250 OA
ATOM     15  C   UNL     1     -37.455  25.326   3.341  0.00  0.00    +0.322 C 
ATOM     16  C   UNL     1     -38.737  25.942   2.866  0.00  0.00    +0.122 C 
ENDBRANCH  13  15
ENDBRANCH   2  13
TORSDOF 4
ENDMDL
MODEL 8
REMARK VINA RESULT:      -4.7      2.430      5.862
REMARK  Name = 20224
REMARK  4 active torsions:
REMARK  status: ('A' for Active; 'I' for Inactive)
REMARK    1  A    between atoms: C_1  and  N_9
REMARK    2  A    between atoms: C_2  and  O_13
REMARK    3  A    between atoms: C_3  and  N_12
REMARK    4  A    between atoms: O_13  and  C_15
REMARK                            x       y       z     vdW  Elec       q    Type
REMARK                         _______ _______ _______ _____ _____    ______ ____
ROOT
ATOM      1  C   UNL     1     -33.449  26.089   3.614  0.00  0.00    +0.179 C 
ATOM      2  C   UNL     1     -33.144  26.617   4.869  0.00  0.00    +0.171 C 
ATOM      3  C   UNL     1     -35.398  25.007   4.544  0.00  0.00    +0.145 C 
ATOM      4  C   UNL     1     -34.575  25.284   3.451  0.00  0.00    +0.051 C 
ATOM      5  C   UNL     1     -33.966  26.340   5.961  0.00  0.00    +0.041 C 
ATOM      6  C   UNL     1     -35.093  25.535   5.799  0.00  0.00    +0.027 C 
ENDROOT
BRANCH   1   9
ATOM      7  O   UNL     1     -31.539  25.739   2.369  0.00  0.00    -0.126 OA
ATOM      8  O   UNL     1     -32.997  27.216   1.653  0.00  0.00    -0.126 OA
ATOM      9  N   UNL     1     -32.620  26.361   2.490  0.00  0.00    +0.061 N 
ENDBRANCH   1   9
BRANCH   3  12
ATOM     10  O   UNL     1     -36.427  22.944   4.511  0.00  0.00    -0.126 OA
ATOM     11  O   UNL     1     -37.645  24.725   4.109  0.00  0.00    -0.126 OA
ATOM     12  N   UNL     1     -36.544  24.186   4.379  0.00  0.00    +0.058 N 
ENDBRANCH   3  12
BRANCH   2  13
ATOM     13  O   UNL     1     -32.047  27.406   5.053  0.00  0.00    -0.422 OA
BRANCH  13  15
ATOM     14  O   UNL     1     -33.002  29.454   4.441  0.00  0.00    -0.250 OA
ATOM     15  C   UNL     1     -32.343  28.769   5.212  0.00  0.00    +0.322 C 
ATOM     16  C   UNL     1     -31.728  29.282   6.481  0.00  0.00    +0.122 C 
ENDBRANCH  13  15
ENDBRANCH   2  13
TORSDOF 4
ENDMDL
MODEL 9
REMARK VINA RESULT:      -4.7      1.694      2.812
REMARK  Name = 20224
REMARK  4 active torsions:
REMARK  status: ('A' for Active; 'I' for Inactive)
REMARK    1  A    between atoms: C_1  and  N_9
REMARK    2  A    between atoms: C_2  and  O_13
REMARK    3  A    between atoms: C_3  and  N_12
REMARK    4  A    between atoms: O_13  and  C_15
REMARK                            x       y       z     vdW  Elec       q    Type
REMARK                         _______ _______ _______ _____ _____    ______ ____
ROOT
ATOM      1  C   UNL     1     -36.634  24.909   3.905  0.00  0.00    +0.179 C 
ATOM      2  C   UNL     1     -36.220  23.584   4.047  0.00  0.00    +0.171 C 
ATOM      3  C   UNL     1     -34.572  25.662   4.914  0.00  0.00    +0.145 C 
ATOM      4  C   UNL     1     -35.811  25.948   4.339  0.00  0.00    +0.051 C 
ATOM      5  C   UNL     1     -34.982  23.299   4.623  0.00  0.00    +0.041 C 
ATOM      6  C   UNL     1     -34.158  24.337   5.057  0.00  0.00    +0.027 C 
ENDROOT
BRANCH   1   9
ATOM      7  O   UNL     1     -38.935  24.766   3.851  0.00  0.00    -0.126 OA
ATOM      8  O   UNL     1     -37.924  25.935   2.292  0.00  0.00    -0.126 OA
ATOM      9  N   UNL     1     -37.893  25.218   3.321  0.00  0.00    +0.061 N 
ENDBRANCH   1   9
BRANCH   3  12
ATOM     10  O   UNL     1     -33.641  27.756   4.660  0.00  0.00    -0.126 OA
ATOM     11  O   UNL     1     -33.109  26.585   6.439  0.00  0.00    -0.126 OA
ATOM     12  N   UNL     1     -33.734  26.718   5.358  0.00  0.00    +0.058 N 
ENDBRANCH   3  12
BRANCH   2  13
ATOM     13  O   UNL     1     -37.008  22.553   3.632  0.00  0.00    -0.422 OA
BRANCH  13  15
ATOM     14  O   UNL     1     -36.878  22.592   1.295  0.00  0.00    -0.250 OA
ATOM     15  C   UNL     1     -36.666  22.044   2.369  0.00  0.00    +0.322 C 
ATOM     16  C   UNL     1     -35.995  20.712   2.518  0.00  0.00    +0.122 C 
ENDBRANCH  13  15
ENDBRANCH   2  13
TORSDOF 4
ENDMDL
