MODEL 1
REMARK VINA RESULT:      -6.0      0.000      0.000
REMARK  Name = 197489
REMARK  8 active torsions:
REMARK  status: ('A' for Active; 'I' for Inactive)
REMARK    1  A    between atoms: P_1  and  O_3
REMARK    2  A    between atoms: P_1  and  O_5
REMARK    3  A    between atoms: P_1  and  O_16
REMARK    4  A    between atoms: O_5  and  C_6
REMARK    5  A    between atoms: C_6  and  C_9
REMARK    6  A    between atoms: O_16  and  P_17
REMARK    7  A    between atoms: P_17  and  O_19
REMARK    8  A    between atoms: P_17  and  O_21
REMARK                            x       y       z     vdW  Elec       q    Type
REMARK                         _______ _______ _______ _____ _____    ______ ____
ROOT
ATOM      1  P   UNL     1     -35.796  22.665   4.463  0.00  0.00    +0.484 P 
ATOM      2  O   UNL     1     -35.893  22.678   5.961  0.00  0.00    -0.227 OA
ENDROOT
BRANCH   1   3
ATOM      3  O   UNL     1     -37.215  22.817   3.700  0.00  0.00    -0.302 OA
ATOM      4  H   UNL     1     -37.152  22.417   2.818  0.00  0.00    +0.222 HD
ENDBRANCH   1   3
BRANCH   1   5
ATOM      5  O   UNL     1     -34.874  23.835   3.844  0.00  0.00    -0.278 OA
BRANCH   5   6
ATOM      6  C   UNL     1     -35.206  25.202   4.091  0.00  0.00    +0.104 C 
ATOM      7  C   UNL     1     -35.723  25.818   2.792  0.00  0.00    +0.030 C 
ATOM      8  C   UNL     1     -36.292  25.224   5.166  0.00  0.00    +0.030 C 
BRANCH   6   9
ATOM      9  C   UNL     1     -33.953  25.927   4.579  0.00  0.00    +0.030 C 
ATOM     10  C   UNL     1     -33.797  27.286   3.891  0.00  0.00    +0.007 C 
ATOM     11  C   UNL     1     -33.987  26.105   6.105  0.00  0.00    +0.028 C 
ATOM     12  C   UNL     1     -32.512  27.989   4.340  0.00  0.00    +0.022 C 
ATOM     13  C   UNL     1     -32.258  27.902   5.824  0.00  0.00    -0.048 C 
ATOM     14  C   UNL     1     -32.943  27.057   6.613  0.00  0.00    -0.035 C 
ATOM     15  C   UNL     1     -31.197  28.812   6.369  0.00  0.00    +0.026 C 
ENDBRANCH   6   9
ENDBRANCH   5   6
ENDBRANCH   1   5
BRANCH   1  16
ATOM     16  O   UNL     1     -35.190  21.296   3.851  0.00  0.00    -0.186 OA
BRANCH  16  17
ATOM     17  P   UNL     1     -35.413  20.588   2.415  0.00  0.00    +0.481 P 
ATOM     18  O   UNL     1     -34.282  19.708   1.970  0.00  0.00    -0.227 OA
BRANCH  17  19
ATOM     19  O   UNL     1     -35.742  21.833   1.438  0.00  0.00    -0.302 OA
ATOM     20  H   UNL     1     -36.468  22.355   1.814  0.00  0.00    +0.222 HD
ENDBRANCH  17  19
BRANCH  17  21
ATOM     21  O   UNL     1     -36.840  19.849   2.580  0.00  0.00    -0.302 OA
ATOM     22  H   UNL     1     -36.813  18.988   2.134  0.00  0.00    +0.222 HD
ENDBRANCH  17  21
ENDBRANCH  16  17
ENDBRANCH   1  16
TORSDOF 8
ENDMDL
MODEL 2
REMARK VINA RESULT:      -5.9      5.782      7.163
REMARK  Name = 197489
REMARK  8 active torsions:
REMARK  status: ('A' for Active; 'I' for Inactive)
REMARK    1  A    between atoms: P_1  and  O_3
REMARK    2  A    between atoms: P_1  and  O_5
REMARK    3  A    between atoms: P_1  and  O_16
REMARK    4  A    between atoms: O_5  and  C_6
REMARK    5  A    between atoms: C_6  and  C_9
REMARK    6  A    between atoms: O_16  and  P_17
REMARK    7  A    between atoms: P_17  and  O_19
REMARK    8  A    between atoms: P_17  and  O_21
REMARK                            x       y       z     vdW  Elec       q    Type
REMARK                         _______ _______ _______ _____ _____    ______ ____
ROOT
ATOM      1  P   UNL     1     -35.756  20.780   2.430  0.00  0.00    +0.484 P 
ATOM      2  O   UNL     1     -36.192  21.981   1.643  0.00  0.00    -0.227 OA
ENDROOT
BRANCH   1   3
ATOM      3  O   UNL     1     -36.899  19.647   2.608  0.00  0.00    -0.302 OA
ATOM      4  H   UNL     1     -36.628  19.022   3.298  0.00  0.00    +0.222 HD
ENDBRANCH   1   3
BRANCH   1   5
ATOM      5  O   UNL     1     -34.497  19.992   1.802  0.00  0.00    -0.278 OA
BRANCH   5   6
ATOM      6  C   UNL     1     -34.092  20.262   0.459  0.00  0.00    +0.104 C 
ATOM      7  C   UNL     1     -35.232  19.869  -0.480  0.00  0.00    +0.030 C 
ATOM      8  C   UNL     1     -33.806  21.759   0.358  0.00  0.00    +0.030 C 
BRANCH   6   9
ATOM      9  C   UNL     1     -32.832  19.453   0.157  0.00  0.00    +0.030 C 
ATOM     10  C   UNL     1     -31.619  20.367  -0.032  0.00  0.00    +0.007 C 
ATOM     11  C   UNL     1     -32.561  18.433   1.274  0.00  0.00    +0.028 C 
ATOM     12  C   UNL     1     -30.367  19.560  -0.388  0.00  0.00    +0.022 C 
ATOM     13  C   UNL     1     -30.200  18.306   0.432  0.00  0.00    -0.048 C 
ATOM     14  C   UNL     1     -31.195  17.815   1.191  0.00  0.00    -0.035 C 
ATOM     15  C   UNL     1     -28.860  17.635   0.351  0.00  0.00    +0.026 C 
ENDBRANCH   6   9
ENDBRANCH   5   6
ENDBRANCH   1   5
BRANCH   1  16
ATOM     16  O   UNL     1     -35.320  21.108   3.952  0.00  0.00    -0.186 OA
BRANCH  16  17
ATOM     17  P   UNL     1     -35.592  22.405   4.877  0.00  0.00    +0.481 P 
ATOM     18  O   UNL     1     -34.452  23.378   4.943  0.00  0.00    -0.227 OA
BRANCH  17  19
ATOM     19  O   UNL     1     -36.030  21.760   6.293  0.00  0.00    -0.302 OA
ATOM     20  H   UNL     1     -36.441  20.895   6.140  0.00  0.00    +0.222 HD
ENDBRANCH  17  19
BRANCH  17  21
ATOM     21  O   UNL     1     -36.975  23.000   4.288  0.00  0.00    -0.302 OA
ATOM     22  H   UNL     1     -37.372  22.355   3.681  0.00  0.00    +0.222 HD
ENDBRANCH  17  21
ENDBRANCH  16  17
ENDBRANCH   1  16
TORSDOF 8
ENDMDL
MODEL 3
REMARK VINA RESULT:      -5.6      4.457      6.302
REMARK  Name = 197489
REMARK  8 active torsions:
REMARK  status: ('A' for Active; 'I' for Inactive)
REMARK    1  A    between atoms: P_1  and  O_3
REMARK    2  A    between atoms: P_1  and  O_5
REMARK    3  A    between atoms: P_1  and  O_16
REMARK    4  A    between atoms: O_5  and  C_6
REMARK    5  A    between atoms: C_6  and  C_9
REMARK    6  A    between atoms: O_16  and  P_17
REMARK    7  A    between atoms: P_17  and  O_19
REMARK    8  A    between atoms: P_17  and  O_21
REMARK                            x       y       z     vdW  Elec       q    Type
REMARK                         _______ _______ _______ _____ _____    ______ ____
ROOT
ATOM      1  P   UNL     1     -36.028  23.754   4.564  0.00  0.00    +0.484 P 
ATOM      2  O   UNL     1     -37.286  24.516   4.268  0.00  0.00    -0.227 OA
ENDROOT
BRANCH   1   3
ATOM      3  O   UNL     1     -36.236  22.467   5.523  0.00  0.00    -0.302 OA
ATOM      4  H   UNL     1     -35.885  22.662   6.406  0.00  0.00    +0.222 HD
ENDBRANCH   1   3
BRANCH   1   5
ATOM      5  O   UNL     1     -35.279  23.172   3.260  0.00  0.00    -0.278 OA
BRANCH   5   6
ATOM      6  C   UNL     1     -36.044  22.790   2.115  0.00  0.00    +0.104 C 
ATOM      7  C   UNL     1     -37.401  22.270   2.590  0.00  0.00    +0.030 C 
ATOM      8  C   UNL     1     -36.221  24.034   1.246  0.00  0.00    +0.030 C 
BRANCH   6   9
ATOM      9  C   UNL     1     -35.280  21.709   1.355  0.00  0.00    +0.030 C 
ATOM     10  C   UNL     1     -33.968  22.254   0.787  0.00  0.00    +0.007 C 
ATOM     11  C   UNL     1     -35.005  20.498   2.262  0.00  0.00    +0.028 C 
ATOM     12  C   UNL     1     -33.227  21.184  -0.022  0.00  0.00    +0.022 C 
ATOM     13  C   UNL     1     -33.216  19.826   0.635  0.00  0.00    -0.048 C 
ATOM     14  C   UNL     1     -34.014  19.534   1.676  0.00  0.00    -0.035 C 
ATOM     15  C   UNL     1     -32.265  18.820   0.058  0.00  0.00    +0.026 C 
ENDBRANCH   6   9
ENDBRANCH   5   6
ENDBRANCH   1   5
BRANCH   1  16
ATOM     16  O   UNL     1     -34.898  24.613   5.338  0.00  0.00    -0.186 OA
BRANCH  16  17
ATOM     17  P   UNL     1     -34.209  26.030   4.974  0.00  0.00    +0.481 P 
ATOM     18  O   UNL     1     -33.127  25.951   3.939  0.00  0.00    -0.227 OA
BRANCH  17  19
ATOM     19  O   UNL     1     -33.743  26.592   6.417  0.00  0.00    -0.302 OA
ATOM     20  H   UNL     1     -34.049  27.506   6.521  0.00  0.00    +0.222 HD
ENDBRANCH  17  19
BRANCH  17  21
ATOM     21  O   UNL     1     -35.467  26.969   4.591  0.00  0.00    -0.302 OA
ATOM     22  H   UNL     1     -36.257  26.419   4.470  0.00  0.00    +0.222 HD
ENDBRANCH  17  21
ENDBRANCH  16  17
ENDBRANCH   1  16
TORSDOF 8
ENDMDL
MODEL 4
REMARK VINA RESULT:      -5.6      4.547      6.411
REMARK  Name = 197489
REMARK  8 active torsions:
REMARK  status: ('A' for Active; 'I' for Inactive)
REMARK    1  A    between atoms: P_1  and  O_3
REMARK    2  A    between atoms: P_1  and  O_5
REMARK    3  A    between atoms: P_1  and  O_16
REMARK    4  A    between atoms: O_5  and  C_6
REMARK    5  A    between atoms: C_6  and  C_9
REMARK    6  A    between atoms: O_16  and  P_17
REMARK    7  A    between atoms: P_17  and  O_19
REMARK    8  A    between atoms: P_17  and  O_21
REMARK                            x       y       z     vdW  Elec       q    Type
REMARK                         _______ _______ _______ _____ _____    ______ ____
ROOT
ATOM      1  P   UNL     1     -39.736  25.634   2.577  0.00  0.00    +0.484 P 
ATOM      2  O   UNL     1     -39.672  24.484   1.615  0.00  0.00    -0.227 OA
ENDROOT
BRANCH   1   3
ATOM      3  O   UNL     1     -40.091  25.214   4.099  0.00  0.00    -0.302 OA
ATOM      4  H   UNL     1     -39.322  25.377   4.667  0.00  0.00    +0.222 HD
ENDBRANCH   1   3
BRANCH   1   5
ATOM      5  O   UNL     1     -38.369  26.480   2.697  0.00  0.00    -0.278 OA
BRANCH   5   6
ATOM      6  C   UNL     1     -37.120  25.851   2.404  0.00  0.00    +0.104 C 
ATOM      7  C   UNL     1     -37.178  25.295   0.982  0.00  0.00    +0.030 C 
ATOM      8  C   UNL     1     -36.031  26.917   2.519  0.00  0.00    +0.030 C 
BRANCH   6   9
ATOM      9  C   UNL     1     -36.887  24.734   3.419  0.00  0.00    +0.030 C 
ATOM     10  C   UNL     1     -36.075  23.590   2.806  0.00  0.00    +0.007 C 
ATOM     11  C   UNL     1     -36.181  25.276   4.672  0.00  0.00    +0.028 C 
ATOM     12  C   UNL     1     -35.888  22.446   3.807  0.00  0.00    +0.022 C 
ATOM     13  C   UNL     1     -35.540  22.907   5.200  0.00  0.00    -0.048 C 
ATOM     14  C   UNL     1     -35.662  24.193   5.573  0.00  0.00    -0.035 C 
ATOM     15  C   UNL     1     -35.051  21.850   6.145  0.00  0.00    +0.026 C 
ENDBRANCH   6   9
ENDBRANCH   5   6
ENDBRANCH   1   5
BRANCH   1  16
ATOM     16  O   UNL     1     -40.869  26.732   2.223  0.00  0.00    -0.186 OA
BRANCH  16  17
ATOM     17  P   UNL     1     -42.053  27.363   3.125  0.00  0.00    +0.481 P 
ATOM     18  O   UNL     1     -43.282  26.510   3.231  0.00  0.00    -0.227 OA
BRANCH  17  19
ATOM     19  O   UNL     1     -42.281  28.820   2.464  0.00  0.00    -0.302 OA
ATOM     20  H   UNL     1     -42.279  28.740   1.497  0.00  0.00    +0.222 HD
ENDBRANCH  17  19
BRANCH  17  21
ATOM     21  O   UNL     1     -41.319  27.694   4.526  0.00  0.00    -0.302 OA
ATOM     22  H   UNL     1     -41.599  28.568   4.840  0.00  0.00    +0.222 HD
ENDBRANCH  17  21
ENDBRANCH  16  17
ENDBRANCH   1  16
TORSDOF 8
ENDMDL
MODEL 5
REMARK VINA RESULT:      -5.6      5.414      6.859
REMARK  Name = 197489
REMARK  8 active torsions:
REMARK  status: ('A' for Active; 'I' for Inactive)
REMARK    1  A    between atoms: P_1  and  O_3
REMARK    2  A    between atoms: P_1  and  O_5
REMARK    3  A    between atoms: P_1  and  O_16
REMARK    4  A    between atoms: O_5  and  C_6
REMARK    5  A    between atoms: C_6  and  C_9
REMARK    6  A    between atoms: O_16  and  P_17
REMARK    7  A    between atoms: P_17  and  O_19
REMARK    8  A    between atoms: P_17  and  O_21
REMARK                            x       y       z     vdW  Elec       q    Type
REMARK                         _______ _______ _______ _____ _____    ______ ____
ROOT
ATOM      1  P   UNL     1     -36.991  22.829   2.828  0.00  0.00    +0.484 P 
ATOM      2  O   UNL     1     -38.182  22.063   2.331  0.00  0.00    -0.227 OA
ENDROOT
BRANCH   1   3
ATOM      3  O   UNL     1     -36.771  22.757   4.430  0.00  0.00    -0.302 OA
ATOM      4  H   UNL     1     -36.130  23.433   4.699  0.00  0.00    +0.222 HD
ENDBRANCH   1   3
BRANCH   1   5
ATOM      5  O   UNL     1     -35.583  22.353   2.202  0.00  0.00    -0.278 OA
BRANCH   5   6
ATOM      6  C   UNL     1     -35.532  21.183   1.384  0.00  0.00    +0.104 C 
ATOM      7  C   UNL     1     -36.440  20.120   2.001  0.00  0.00    +0.030 C 
ATOM      8  C   UNL     1     -36.032  21.574  -0.006  0.00  0.00    +0.030 C 
BRANCH   6   9
ATOM      9  C   UNL     1     -34.086  20.697   1.318  0.00  0.00    +0.030 C 
ATOM     10  C   UNL     1     -34.019  19.169   1.248  0.00  0.00    +0.007 C 
ATOM     11  C   UNL     1     -33.358  21.317   0.115  0.00  0.00    +0.028 C 
ATOM     12  C   UNL     1     -32.567  18.679   1.237  0.00  0.00    +0.022 C 
ATOM     13  C   UNL     1     -31.663  19.480   0.334  0.00  0.00    -0.048 C 
ATOM     14  C   UNL     1     -32.039  20.664  -0.179  0.00  0.00    -0.035 C 
ATOM     15  C   UNL     1     -30.319  18.880   0.043  0.00  0.00    +0.026 C 
ENDBRANCH   6   9
ENDBRANCH   5   6
ENDBRANCH   1   5
BRANCH   1  16
ATOM     16  O   UNL     1     -37.056  24.418   2.536  0.00  0.00    -0.186 OA
BRANCH  16  17
ATOM     17  P   UNL     1     -37.958  25.583   3.201  0.00  0.00    +0.481 P 
ATOM     18  O   UNL     1     -38.332  26.695   2.267  0.00  0.00    -0.227 OA
BRANCH  17  19
ATOM     19  O   UNL     1     -37.089  26.029   4.490  0.00  0.00    -0.302 OA
ATOM     20  H   UNL     1     -36.165  25.765   4.362  0.00  0.00    +0.222 HD
ENDBRANCH  17  19
BRANCH  17  21
ATOM     21  O   UNL     1     -39.199  24.772   3.843  0.00  0.00    -0.302 OA
ATOM     22  H   UNL     1     -39.968  25.360   3.914  0.00  0.00    +0.222 HD
ENDBRANCH  17  21
ENDBRANCH  16  17
ENDBRANCH   1  16
TORSDOF 8
ENDMDL
MODEL 6
REMARK VINA RESULT:      -5.5      3.002      4.005
REMARK  Name = 197489
REMARK  8 active torsions:
REMARK  status: ('A' for Active; 'I' for Inactive)
REMARK    1  A    between atoms: P_1  and  O_3
REMARK    2  A    between atoms: P_1  and  O_5
REMARK    3  A    between atoms: P_1  and  O_16
REMARK    4  A    between atoms: O_5  and  C_6
REMARK    5  A    between atoms: C_6  and  C_9
REMARK    6  A    between atoms: O_16  and  P_17
REMARK    7  A    between atoms: P_17  and  O_19
REMARK    8  A    between atoms: P_17  and  O_21
REMARK                            x       y       z     vdW  Elec       q    Type
REMARK                         _______ _______ _______ _____ _____    ______ ____
ROOT
ATOM      1  P   UNL     1     -37.506  25.293   3.279  0.00  0.00    +0.484 P 
ATOM      2  O   UNL     1     -37.814  23.848   3.545  0.00  0.00    -0.227 OA
ENDROOT
BRANCH   1   3
ATOM      3  O   UNL     1     -38.691  26.315   3.690  0.00  0.00    -0.302 OA
ATOM      4  H   UNL     1     -39.421  25.819   4.093  0.00  0.00    +0.222 HD
ENDBRANCH   1   3
BRANCH   1   5
ATOM      5  O   UNL     1     -36.203  25.850   4.049  0.00  0.00    -0.278 OA
BRANCH   5   6
ATOM      6  C   UNL     1     -35.099  24.977   4.293  0.00  0.00    +0.104 C 
ATOM      7  C   UNL     1     -35.492  23.995   5.395  0.00  0.00    +0.030 C 
ATOM      8  C   UNL     1     -34.805  24.234   2.991  0.00  0.00    +0.030 C 
BRANCH   6   9
ATOM      9  C   UNL     1     -33.896  25.819   4.714  0.00  0.00    +0.030 C 
ATOM     10  C   UNL     1     -33.873  27.160   3.976  0.00  0.00    +0.007 C 
ATOM     11  C   UNL     1     -33.898  26.048   6.234  0.00  0.00    +0.028 C 
ATOM     12  C   UNL     1     -32.638  27.981   4.358  0.00  0.00    +0.022 C 
ATOM     13  C   UNL     1     -32.333  27.969   5.835  0.00  0.00    -0.048 C 
ATOM     14  C   UNL     1     -32.921  27.099   6.674  0.00  0.00    -0.035 C 
ATOM     15  C   UNL     1     -31.334  28.981   6.313  0.00  0.00    +0.026 C 
ENDBRANCH   6   9
ENDBRANCH   5   6
ENDBRANCH   1   5
BRANCH   1  16
ATOM     16  O   UNL     1     -37.243  25.638   1.721  0.00  0.00    -0.186 OA
BRANCH  16  17
ATOM     17  P   UNL     1     -37.284  27.045   0.926  0.00  0.00    +0.481 P 
ATOM     18  O   UNL     1     -36.572  27.037  -0.394  0.00  0.00    -0.227 OA
BRANCH  17  19
ATOM     19  O   UNL     1     -36.712  28.097   2.011  0.00  0.00    -0.302 OA
ATOM     20  H   UNL     1     -36.429  27.619   2.806  0.00  0.00    +0.222 HD
ENDBRANCH  17  19
BRANCH  17  21
ATOM     21  O   UNL     1     -38.861  27.390   0.858  0.00  0.00    -0.302 OA
ATOM     22  H   UNL     1     -39.361  26.582   0.661  0.00  0.00    +0.222 HD
ENDBRANCH  17  21
ENDBRANCH  16  17
ENDBRANCH   1  16
TORSDOF 8
ENDMDL
MODEL 7
REMARK VINA RESULT:      -5.5      4.809      6.480
REMARK  Name = 197489
REMARK  8 active torsions:
REMARK  status: ('A' for Active; 'I' for Inactive)
REMARK    1  A    between atoms: P_1  and  O_3
REMARK    2  A    between atoms: P_1  and  O_5
REMARK    3  A    between atoms: P_1  and  O_16
REMARK    4  A    between atoms: O_5  and  C_6
REMARK    5  A    between atoms: C_6  and  C_9
REMARK    6  A    between atoms: O_16  and  P_17
REMARK    7  A    between atoms: P_17  and  O_19
REMARK    8  A    between atoms: P_17  and  O_21
REMARK                            x       y       z     vdW  Elec       q    Type
REMARK                         _______ _______ _______ _____ _____    ______ ____
ROOT
ATOM      1  P   UNL     1     -32.999  27.612   3.497  0.00  0.00    +0.484 P 
ATOM      2  O   UNL     1     -32.299  26.295   3.332  0.00  0.00    -0.227 OA
ENDROOT
BRANCH   1   3
ATOM      3  O   UNL     1     -32.356  28.823   2.636  0.00  0.00    -0.302 OA
ATOM      4  H   UNL     1     -33.064  29.398   2.308  0.00  0.00    +0.222 HD
ENDBRANCH   1   3
BRANCH   1   5
ATOM      5  O   UNL     1     -34.556  27.598   3.079  0.00  0.00    -0.278 OA
BRANCH   5   6
ATOM      6  C   UNL     1     -35.135  26.403   2.551  0.00  0.00    +0.104 C 
ATOM      7  C   UNL     1     -36.630  26.640   2.344  0.00  0.00    +0.030 C 
ATOM      8  C   UNL     1     -34.448  26.110   1.219  0.00  0.00    +0.030 C 
BRANCH   6   9
ATOM      9  C   UNL     1     -34.894  25.266   3.541  0.00  0.00    +0.030 C 
ATOM     10  C   UNL     1     -35.721  25.456   4.816  0.00  0.00    +0.007 C 
ATOM     11  C   UNL     1     -35.213  23.907   2.898  0.00  0.00    +0.028 C 
ATOM     12  C   UNL     1     -35.438  24.345   5.831  0.00  0.00    +0.022 C 
ATOM     13  C   UNL     1     -35.366  22.968   5.220  0.00  0.00    -0.048 C 
ATOM     14  C   UNL     1     -35.281  22.784   3.891  0.00  0.00    -0.035 C 
ATOM     15  C   UNL     1     -35.395  21.815   6.180  0.00  0.00    +0.026 C 
ENDBRANCH   6   9
ENDBRANCH   5   6
ENDBRANCH   1   5
BRANCH   1  16
ATOM     16  O   UNL     1     -32.984  28.185   5.009  0.00  0.00    -0.186 OA
BRANCH  16  17
ATOM     17  P   UNL     1     -31.768  28.385   6.056  0.00  0.00    +0.481 P 
ATOM     18  O   UNL     1     -31.752  29.714   6.750  0.00  0.00    -0.227 OA
BRANCH  17  19
ATOM     19  O   UNL     1     -30.459  28.057   5.165  0.00  0.00    -0.302 OA
ATOM     20  H   UNL     1     -30.432  27.107   4.969  0.00  0.00    +0.222 HD
ENDBRANCH  17  19
BRANCH  17  21
ATOM     21  O   UNL     1     -31.896  27.099   7.026  0.00  0.00    -0.302 OA
ATOM     22  H   UNL     1     -31.022  26.870   7.378  0.00  0.00    +0.222 HD
ENDBRANCH  17  21
ENDBRANCH  16  17
ENDBRANCH   1  16
TORSDOF 8
ENDMDL
MODEL 8
REMARK VINA RESULT:      -5.4      2.722      4.349
REMARK  Name = 197489
REMARK  8 active torsions:
REMARK  status: ('A' for Active; 'I' for Inactive)
REMARK    1  A    between atoms: P_1  and  O_3
REMARK    2  A    between atoms: P_1  and  O_5
REMARK    3  A    between atoms: P_1  and  O_16
REMARK    4  A    between atoms: O_5  and  C_6
REMARK    5  A    between atoms: C_6  and  C_9
REMARK    6  A    between atoms: O_16  and  P_17
REMARK    7  A    between atoms: P_17  and  O_19
REMARK    8  A    between atoms: P_17  and  O_21
REMARK                            x       y       z     vdW  Elec       q    Type
REMARK                         _______ _______ _______ _____ _____    ______ ____
ROOT
ATOM      1  P   UNL     1     -37.925  23.377   2.604  0.00  0.00    +0.484 P 
ATOM      2  O   UNL     1     -37.081  23.935   1.496  0.00  0.00    -0.227 OA
ENDROOT
BRANCH   1   3
ATOM      3  O   UNL     1     -38.277  21.805   2.449  0.00  0.00    -0.302 OA
ATOM      4  H   UNL     1     -38.904  21.684   1.719  0.00  0.00    +0.222 HD
ENDBRANCH   1   3
BRANCH   1   5
ATOM      5  O   UNL     1     -37.268  23.503   4.071  0.00  0.00    -0.278 OA
BRANCH   5   6
ATOM      6  C   UNL     1     -35.854  23.368   4.228  0.00  0.00    +0.104 C 
ATOM      7  C   UNL     1     -35.581  22.601   5.521  0.00  0.00    +0.030 C 
ATOM      8  C   UNL     1     -35.333  22.589   3.021  0.00  0.00    +0.030 C 
BRANCH   6   9
ATOM      9  C   UNL     1     -35.233  24.762   4.277  0.00  0.00    +0.030 C 
ATOM     10  C   UNL     1     -34.529  25.007   5.613  0.00  0.00    +0.007 C 
ATOM     11  C   UNL     1     -34.250  24.960   3.113  0.00  0.00    +0.028 C 
ATOM     12  C   UNL     1     -33.953  26.425   5.684  0.00  0.00    +0.022 C 
ATOM     13  C   UNL     1     -33.263  26.864   4.417  0.00  0.00    -0.048 C 
ATOM     14  C   UNL     1     -33.393  26.184   3.265  0.00  0.00    -0.035 C 
ATOM     15  C   UNL     1     -32.423  28.103   4.516  0.00  0.00    +0.026 C 
ENDBRANCH   6   9
ENDBRANCH   5   6
ENDBRANCH   1   5
BRANCH   1  16
ATOM     16  O   UNL     1     -39.379  24.069   2.743  0.00  0.00    -0.186 OA
BRANCH  16  17
ATOM     17  P   UNL     1     -39.808  25.625   2.839  0.00  0.00    +0.481 P 
ATOM     18  O   UNL     1     -40.425  26.182   1.591  0.00  0.00    -0.227 OA
BRANCH  17  19
ATOM     19  O   UNL     1     -38.446  26.352   3.319  0.00  0.00    -0.302 OA
ATOM     20  H   UNL     1     -38.583  27.312   3.340  0.00  0.00    +0.222 HD
ENDBRANCH  17  19
BRANCH  17  21
ATOM     21  O   UNL     1     -40.746  25.672   4.154  0.00  0.00    -0.302 OA
ATOM     22  H   UNL     1     -41.619  25.305   3.943  0.00  0.00    +0.222 HD
ENDBRANCH  17  21
ENDBRANCH  16  17
ENDBRANCH   1  16
TORSDOF 8
ENDMDL
MODEL 9
REMARK VINA RESULT:      -5.4      4.449      6.922
REMARK  Name = 197489
REMARK  8 active torsions:
REMARK  status: ('A' for Active; 'I' for Inactive)
REMARK    1  A    between atoms: P_1  and  O_3
REMARK    2  A    between atoms: P_1  and  O_5
REMARK    3  A    between atoms: P_1  and  O_16
REMARK    4  A    between atoms: O_5  and  C_6
REMARK    5  A    between atoms: C_6  and  C_9
REMARK    6  A    between atoms: O_16  and  P_17
REMARK    7  A    between atoms: P_17  and  O_19
REMARK    8  A    between atoms: P_17  and  O_21
REMARK                            x       y       z     vdW  Elec       q    Type
REMARK                         _______ _______ _______ _____ _____    ______ ____
ROOT
ATOM      1  P   UNL     1     -32.947  27.268   3.935  0.00  0.00    +0.484 P 
ATOM      2  O   UNL     1     -32.571  26.780   2.566  0.00  0.00    -0.227 OA
ENDROOT
BRANCH   1   3
ATOM      3  O   UNL     1     -33.916  28.565   3.938  0.00  0.00    -0.302 OA
ATOM      4  H   UNL     1     -33.570  29.225   4.559  0.00  0.00    +0.222 HD
ENDBRANCH   1   3
BRANCH   1   5
ATOM      5  O   UNL     1     -33.719  26.182   4.842  0.00  0.00    -0.278 OA
BRANCH   5   6
ATOM      6  C   UNL     1     -34.981  25.668   4.410  0.00  0.00    +0.104 C 
ATOM      7  C   UNL     1     -35.955  25.722   5.586  0.00  0.00    +0.030 C 
ATOM      8  C   UNL     1     -35.470  26.556   3.267  0.00  0.00    +0.030 C 
BRANCH   6   9
ATOM      9  C   UNL     1     -34.784  24.233   3.929  0.00  0.00    +0.030 C 
ATOM     10  C   UNL     1     -35.739  23.273   4.643  0.00  0.00    +0.007 C 
ATOM     11  C   UNL     1     -34.975  24.138   2.407  0.00  0.00    +0.028 C 
ATOM     12  C   UNL     1     -35.504  21.826   4.200  0.00  0.00    +0.022 C 
ATOM     13  C   UNL     1     -35.309  21.670   2.713  0.00  0.00    -0.048 C 
ATOM     14  C   UNL     1     -35.086  22.725   1.911  0.00  0.00    -0.035 C 
ATOM     15  C   UNL     1     -35.377  20.269   2.179  0.00  0.00    +0.026 C 
ENDBRANCH   6   9
ENDBRANCH   5   6
ENDBRANCH   1   5
BRANCH   1  16
ATOM     16  O   UNL     1     -31.692  27.742   4.838  0.00  0.00    -0.186 OA
BRANCH  16  17
ATOM     17  P   UNL     1     -31.639  28.485   6.272  0.00  0.00    +0.481 P 
ATOM     18  O   UNL     1     -32.130  29.902   6.261  0.00  0.00    -0.227 OA
BRANCH  17  19
ATOM     19  O   UNL     1     -30.100  28.293   6.728  0.00  0.00    -0.302 OA
ATOM     20  H   UNL     1     -29.911  28.873   7.482  0.00  0.00    +0.222 HD
ENDBRANCH  17  19
BRANCH  17  21
ATOM     21  O   UNL     1     -32.449  27.480   7.244  0.00  0.00    -0.302 OA
ATOM     22  H   UNL     1     -32.756  27.964   8.027  0.00  0.00    +0.222 HD
ENDBRANCH  17  21
ENDBRANCH  16  17
ENDBRANCH   1  16
TORSDOF 8
ENDMDL
