MODEL 1
REMARK VINA RESULT:      -6.6      0.000      0.000
REMARK  Name = 193349
REMARK  3 active torsions:
REMARK  status: ('A' for Active; 'I' for Inactive)
REMARK    1  A    between atoms: C_3  and  C_13
REMARK    2  A    between atoms: C_5  and  O_23
REMARK    3  A    between atoms: C_6  and  N_20
REMARK                            x       y       z     vdW  Elec       q    Type
REMARK                         _______ _______ _______ _____ _____    ______ ____
ROOT
ATOM      1  O   UNL     1     -34.094  26.569   5.732  0.00  0.00    -0.268 OA
ATOM      2  N   UNL     1     -35.217  24.583   5.473  0.00  0.00    -0.251 N 
ATOM      3  C   UNL     1     -36.744  24.215   3.694  0.00  0.00    +0.055 C 
ATOM      4  C   UNL     1     -36.445  25.577   3.258  0.00  0.00    +0.023 C 
ATOM      5  C   UNL     1     -36.104  23.773   4.802  0.00  0.00    +0.193 C 
ATOM      6  C   UNL     1     -35.585  26.396   3.885  0.00  0.00    +0.096 C 
ATOM      7  C   UNL     1     -34.894  25.875   5.108  0.00  0.00    +0.265 C 
ATOM      8  H   UNL     1     -34.779  24.213   6.273  0.00  0.00    +0.158 HD
ENDROOT
BRANCH   3  13
ATOM      9  O   UNL     1     -39.545  24.714   3.596  0.00  0.00    -0.270 OA
ATOM     10  O   UNL     1     -40.409  21.012   0.984  0.00  0.00    -0.268 OA
ATOM     11  N   UNL     1     -39.975  22.874   2.297  0.00  0.00    -0.247 N 
ATOM     12  N   UNL     1     -37.806  20.350   0.945  0.00  0.00    -0.294 NA
ATOM     13  C   UNL     1     -37.679  23.369   2.984  0.00  0.00    +0.060 C 
ATOM     14  C   UNL     1     -37.251  22.285   2.325  0.00  0.00    +0.028 C 
ATOM     15  C   UNL     1     -39.131  23.723   2.996  0.00  0.00    +0.252 C 
ATOM     16  C   UNL     1     -38.175  21.404   1.593  0.00  0.00    +0.126 C 
ATOM     17  C   UNL     1     -39.634  21.737   1.589  0.00  0.00    +0.269 C 
ATOM     18  H   UNL     1     -40.931  23.110   2.304  0.00  0.00    +0.158 HD
ATOM     19  H   UNL     1     -36.856  20.094   0.922  0.00  0.00    +0.187 HD
ENDBRANCH   3  13
BRANCH   6  20
ATOM     20  N   UNL     1     -35.284  27.669   3.506  0.00  0.00    -0.353 N 
ATOM     21  H   UNL     1     -34.928  27.842   2.604  0.00  0.00    +0.142 HD
ATOM     22  H   UNL     1     -35.420  28.416   4.132  0.00  0.00    +0.142 HD
ENDBRANCH   6  20
BRANCH   5  23
ATOM     23  O   UNL     1     -36.285  22.517   5.330  0.00  0.00    -0.495 OA
ATOM     24  H   UNL     1     -35.842  22.272   6.119  0.00  0.00    +0.293 HD
ENDBRANCH   5  23
TORSDOF 3
ENDMDL
MODEL 2
REMARK VINA RESULT:      -6.5      0.182      6.049
REMARK  Name = 193349
REMARK  3 active torsions:
REMARK  status: ('A' for Active; 'I' for Inactive)
REMARK    1  A    between atoms: C_3  and  C_13
REMARK    2  A    between atoms: C_5  and  O_23
REMARK    3  A    between atoms: C_6  and  N_20
REMARK                            x       y       z     vdW  Elec       q    Type
REMARK                         _______ _______ _______ _____ _____    ______ ____
ROOT
ATOM      1  O   UNL     1     -40.409  21.113   1.200  0.00  0.00    -0.268 OA
ATOM      2  N   UNL     1     -39.909  22.969   2.457  0.00  0.00    -0.251 N 
ATOM      3  C   UNL     1     -37.683  23.526   3.060  0.00  0.00    +0.055 C 
ATOM      4  C   UNL     1     -37.267  22.329   2.332  0.00  0.00    +0.023 C 
ATOM      5  C   UNL     1     -39.008  23.795   3.089  0.00  0.00    +0.193 C 
ATOM      6  C   UNL     1     -38.115  21.500   1.703  0.00  0.00    +0.096 C 
ATOM      7  C   UNL     1     -39.576  21.827   1.754  0.00  0.00    +0.265 C 
ATOM      8  H   UNL     1     -40.862  23.210   2.509  0.00  0.00    +0.158 HD
ENDROOT
BRANCH   3  13
ATOM      9  O   UNL     1     -36.247  22.772   5.400  0.00  0.00    -0.270 OA
ATOM     10  O   UNL     1     -34.001  26.792   5.673  0.00  0.00    -0.268 OA
ATOM     11  N   UNL     1     -35.129  24.770   5.535  0.00  0.00    -0.247 N 
ATOM     12  N   UNL     1     -35.245  27.711   3.477  0.00  0.00    -0.294 NA
ATOM     13  C   UNL     1     -36.730  24.391   3.724  0.00  0.00    +0.060 C 
ATOM     14  C   UNL     1     -36.479  25.618   3.249  0.00  0.00    +0.028 C 
ATOM     15  C   UNL     1     -36.030  23.895   4.947  0.00  0.00    +0.252 C 
ATOM     16  C   UNL     1     -35.517  26.522   3.899  0.00  0.00    +0.126 C 
ATOM     17  C   UNL     1     -34.802  26.048   5.126  0.00  0.00    +0.269 C 
ATOM     18  H   UNL     1     -34.667  24.440   6.340  0.00  0.00    +0.158 HD
ATOM     19  H   UNL     1     -35.693  28.063   2.674  0.00  0.00    +0.187 HD
ENDBRANCH   3  13
BRANCH   6  20
ATOM     20  N   UNL     1     -37.761  20.378   1.016  0.00  0.00    -0.353 N 
ATOM     21  H   UNL     1     -36.925  19.908   1.239  0.00  0.00    +0.142 HD
ATOM     22  H   UNL     1     -38.340  20.037   0.296  0.00  0.00    +0.142 HD
ENDBRANCH   6  20
BRANCH   5  23
ATOM     23  O   UNL     1     -39.547  24.884   3.734  0.00  0.00    -0.495 OA
ATOM     24  H   UNL     1     -39.344  25.750   3.440  0.00  0.00    +0.293 HD
ENDBRANCH   5  23
TORSDOF 3
ENDMDL
MODEL 3
REMARK VINA RESULT:      -6.3      1.416      5.806
REMARK  Name = 193349
REMARK  3 active torsions:
REMARK  status: ('A' for Active; 'I' for Inactive)
REMARK    1  A    between atoms: C_3  and  C_13
REMARK    2  A    between atoms: C_5  and  O_23
REMARK    3  A    between atoms: C_6  and  N_20
REMARK                            x       y       z     vdW  Elec       q    Type
REMARK                         _______ _______ _______ _____ _____    ______ ____
ROOT
ATOM      1  O   UNL     1     -40.312  20.998   1.388  0.00  0.00    -0.268 OA
ATOM      2  N   UNL     1     -38.187  21.154   2.244  0.00  0.00    -0.251 N 
ATOM      3  C   UNL     1     -37.265  23.214   2.976  0.00  0.00    +0.055 C 
ATOM      4  C   UNL     1     -38.533  23.831   2.591  0.00  0.00    +0.023 C 
ATOM      5  C   UNL     1     -37.149  21.880   2.781  0.00  0.00    +0.193 C 
ATOM      6  C   UNL     1     -39.567  23.155   2.066  0.00  0.00    +0.096 C 
ATOM      7  C   UNL     1     -39.406  21.680   1.864  0.00  0.00    +0.265 C 
ATOM      8  H   UNL     1     -38.050  20.187   2.123  0.00  0.00    +0.158 HD
ENDROOT
BRANCH   3  13
ATOM      9  O   UNL     1     -36.282  22.836   5.621  0.00  0.00    -0.270 OA
ATOM     10  O   UNL     1     -33.086  26.137   5.220  0.00  0.00    -0.268 OA
ATOM     11  N   UNL     1     -34.692  24.476   5.421  0.00  0.00    -0.247 N 
ATOM     12  N   UNL     1     -33.853  26.665   2.700  0.00  0.00    -0.294 NA
ATOM     13  C   UNL     1     -36.177  23.985   3.539  0.00  0.00    +0.060 C 
ATOM     14  C   UNL     1     -35.572  24.937   2.817  0.00  0.00    +0.028 C 
ATOM     15  C   UNL     1     -35.738  23.704   4.940  0.00  0.00    +0.252 C 
ATOM     16  C   UNL     1     -34.464  25.739   3.359  0.00  0.00    +0.126 C 
ATOM     17  C   UNL     1     -34.005  25.476   4.760  0.00  0.00    +0.269 C 
ATOM     18  H   UNL     1     -34.403  24.288   6.343  0.00  0.00    +0.158 HD
ATOM     19  H   UNL     1     -34.122  26.871   1.776  0.00  0.00    +0.187 HD
ENDBRANCH   3  13
BRANCH   6  20
ATOM     20  N   UNL     1     -40.762  23.698   1.697  0.00  0.00    -0.353 N 
ATOM     21  H   UNL     1     -41.583  23.456   2.183  0.00  0.00    +0.142 HD
ATOM     22  H   UNL     1     -40.805  24.330   0.944  0.00  0.00    +0.142 HD
ENDBRANCH   6  20
BRANCH   5  23
ATOM     23  O   UNL     1     -36.018  21.165   3.094  0.00  0.00    -0.495 OA
ATOM     24  H   UNL     1     -35.771  20.427   2.573  0.00  0.00    +0.293 HD
ENDBRANCH   5  23
TORSDOF 3
ENDMDL
MODEL 4
REMARK VINA RESULT:      -6.2      2.009      2.422
REMARK  Name = 193349
REMARK  3 active torsions:
REMARK  status: ('A' for Active; 'I' for Inactive)
REMARK    1  A    between atoms: C_3  and  C_13
REMARK    2  A    between atoms: C_5  and  O_23
REMARK    3  A    between atoms: C_6  and  N_20
REMARK                            x       y       z     vdW  Elec       q    Type
REMARK                         _______ _______ _______ _____ _____    ______ ____
ROOT
ATOM      1  O   UNL     1     -35.630  26.256   5.925  0.00  0.00    -0.268 OA
ATOM      2  N   UNL     1     -35.815  23.987   5.622  0.00  0.00    -0.251 N 
ATOM      3  C   UNL     1     -36.119  23.018   3.477  0.00  0.00    +0.055 C 
ATOM      4  C   UNL     1     -36.089  24.377   2.943  0.00  0.00    +0.023 C 
ATOM      5  C   UNL     1     -35.978  22.884   4.816  0.00  0.00    +0.193 C 
ATOM      6  C   UNL     1     -35.932  25.477   3.696  0.00  0.00    +0.096 C 
ATOM      7  C   UNL     1     -35.778  25.293   5.175  0.00  0.00    +0.265 C 
ATOM      8  H   UNL     1     -35.717  23.834   6.589  0.00  0.00    +0.158 HD
ENDROOT
BRANCH   3  13
ATOM      9  O   UNL     1     -38.618  22.269   2.338  0.00  0.00    -0.270 OA
ATOM     10  O   UNL     1     -36.866  18.585   0.186  0.00  0.00    -0.268 OA
ATOM     11  N   UNL     1     -37.746  20.438   1.267  0.00  0.00    -0.247 N 
ATOM     12  N   UNL     1     -34.414  19.103   1.155  0.00  0.00    -0.294 NA
ATOM     13  C   UNL     1     -36.291  21.861   2.624  0.00  0.00    +0.060 C 
ATOM     14  C   UNL     1     -35.249  21.073   2.329  0.00  0.00    +0.028 C 
ATOM     15  C   UNL     1     -37.648  21.559   2.077  0.00  0.00    +0.252 C 
ATOM     16  C   UNL     1     -35.390  19.890   1.465  0.00  0.00    +0.126 C 
ATOM     17  C   UNL     1     -36.739  19.565   0.904  0.00  0.00    +0.269 C 
ATOM     18  H   UNL     1     -38.641  20.242   0.906  0.00  0.00    +0.158 HD
ATOM     19  H   UNL     1     -33.510  19.279   1.502  0.00  0.00    +0.187 HD
ENDBRANCH   3  13
BRANCH   6  20
ATOM     20  N   UNL     1     -35.900  26.758   3.231  0.00  0.00    -0.353 N 
ATOM     21  H   UNL     1     -36.616  27.388   3.475  0.00  0.00    +0.142 HD
ATOM     22  H   UNL     1     -35.162  27.053   2.650  0.00  0.00    +0.142 HD
ENDBRANCH   6  20
BRANCH   5  23
ATOM     23  O   UNL     1     -35.985  21.669   5.461  0.00  0.00    -0.495 OA
ATOM     24  H   UNL     1     -36.772  21.161   5.493  0.00  0.00    +0.293 HD
ENDBRANCH   5  23
TORSDOF 3
ENDMDL
MODEL 5
REMARK VINA RESULT:      -6.2      2.928      6.211
REMARK  Name = 193349
REMARK  3 active torsions:
REMARK  status: ('A' for Active; 'I' for Inactive)
REMARK    1  A    between atoms: C_3  and  C_13
REMARK    2  A    between atoms: C_5  and  O_23
REMARK    3  A    between atoms: C_6  and  N_20
REMARK                            x       y       z     vdW  Elec       q    Type
REMARK                         _______ _______ _______ _____ _____    ______ ____
ROOT
ATOM      1  O   UNL     1     -35.270  17.787  -0.130  0.00  0.00    -0.268 OA
ATOM      2  N   UNL     1     -36.555  19.242   1.097  0.00  0.00    -0.251 N 
ATOM      3  C   UNL     1     -35.612  21.051   2.308  0.00  0.00    +0.055 C 
ATOM      4  C   UNL     1     -34.310  20.600   1.819  0.00  0.00    +0.023 C 
ATOM      5  C   UNL     1     -36.693  20.338   1.917  0.00  0.00    +0.193 C 
ATOM      6  C   UNL     1     -34.136  19.538   1.017  0.00  0.00    +0.096 C 
ATOM      7  C   UNL     1     -35.354  18.770   0.603  0.00  0.00    +0.265 C 
ATOM      8  H   UNL     1     -37.373  18.758   0.842  0.00  0.00    +0.158 HD
ENDROOT
BRANCH   3  13
ATOM      9  O   UNL     1     -35.235  20.952   5.128  0.00  0.00    -0.270 OA
ATOM     10  O   UNL     1     -36.123  25.441   5.700  0.00  0.00    -0.268 OA
ATOM     11  N   UNL     1     -35.675  23.184   5.412  0.00  0.00    -0.247 N 
ATOM     12  N   UNL     1     -36.527  25.764   3.064  0.00  0.00    -0.294 NA
ATOM     13  C   UNL     1     -35.749  22.205   3.172  0.00  0.00    +0.060 C 
ATOM     14  C   UNL     1     -36.070  23.401   2.662  0.00  0.00    +0.028 C 
ATOM     15  C   UNL     1     -35.529  22.042   4.640  0.00  0.00    +0.252 C 
ATOM     16  C   UNL     1     -36.219  24.593   3.511  0.00  0.00    +0.126 C 
ATOM     17  C   UNL     1     -36.002  24.457   4.986  0.00  0.00    +0.269 C 
ATOM     18  H   UNL     1     -35.527  23.075   6.380  0.00  0.00    +0.158 HD
ATOM     19  H   UNL     1     -36.678  25.899   2.101  0.00  0.00    +0.187 HD
ENDBRANCH   3  13
BRANCH   6  20
ATOM     20  N   UNL     1     -32.939  19.091   0.544  0.00  0.00    -0.353 N 
ATOM     21  H   UNL     1     -32.179  18.975   1.159  0.00  0.00    +0.142 HD
ATOM     22  H   UNL     1     -32.833  18.885  -0.413  0.00  0.00    +0.142 HD
ENDBRANCH   6  20
BRANCH   5  23
ATOM     23  O   UNL     1     -37.979  20.642   2.297  0.00  0.00    -0.495 OA
ATOM     24  H   UNL     1     -38.187  21.504   2.599  0.00  0.00    +0.293 HD
ENDBRANCH   5  23
TORSDOF 3
ENDMDL
MODEL 6
REMARK VINA RESULT:      -6.1      1.294      2.039
REMARK  Name = 193349
REMARK  3 active torsions:
REMARK  status: ('A' for Active; 'I' for Inactive)
REMARK    1  A    between atoms: C_3  and  C_13
REMARK    2  A    between atoms: C_5  and  O_23
REMARK    3  A    between atoms: C_6  and  N_20
REMARK                            x       y       z     vdW  Elec       q    Type
REMARK                         _______ _______ _______ _____ _____    ______ ____
ROOT
ATOM      1  O   UNL     1     -34.285  26.342   6.151  0.00  0.00    -0.268 OA
ATOM      2  N   UNL     1     -35.211  24.295   5.677  0.00  0.00    -0.251 N 
ATOM      3  C   UNL     1     -36.415  23.884   3.674  0.00  0.00    +0.055 C 
ATOM      4  C   UNL     1     -36.149  25.277   3.318  0.00  0.00    +0.023 C 
ATOM      5  C   UNL     1     -35.925  23.451   4.858  0.00  0.00    +0.193 C 
ATOM      6  C   UNL     1     -35.456  26.130   4.090  0.00  0.00    +0.096 C 
ATOM      7  C   UNL     1     -34.927  25.617   5.394  0.00  0.00    +0.265 C 
ATOM      8  H   UNL     1     -34.878  23.930   6.527  0.00  0.00    +0.158 HD
ENDROOT
BRANCH   3  13
ATOM      9  O   UNL     1     -35.270  21.641   2.347  0.00  0.00    -0.270 OA
ATOM     10  O   UNL     1     -39.238  20.441   0.325  0.00  0.00    -0.268 OA
ATOM     11  N   UNL     1     -37.244  21.043   1.343  0.00  0.00    -0.247 N 
ATOM     12  N   UNL     1     -40.523  22.502   1.474  0.00  0.00    -0.294 NA
ATOM     13  C   UNL     1     -37.168  23.002   2.808  0.00  0.00    +0.060 C 
ATOM     14  C   UNL     1     -38.472  23.213   2.589  0.00  0.00    +0.028 C 
ATOM     15  C   UNL     1     -36.468  21.851   2.160  0.00  0.00    +0.252 C 
ATOM     16  C   UNL     1     -39.265  22.336   1.713  0.00  0.00    +0.126 C 
ATOM     17  C   UNL     1     -38.588  21.176   1.054  0.00  0.00    +0.269 C 
ATOM     18  H   UNL     1     -36.781  20.284   0.919  0.00  0.00    +0.158 HD
ATOM     19  H   UNL     1     -41.008  23.252   1.887  0.00  0.00    +0.187 HD
ENDBRANCH   3  13
BRANCH   6  20
ATOM     20  N   UNL     1     -35.190  27.432   3.789  0.00  0.00    -0.353 N 
ATOM     21  H   UNL     1     -35.505  27.814   2.938  0.00  0.00    +0.142 HD
ATOM     22  H   UNL     1     -34.683  27.990   4.421  0.00  0.00    +0.142 HD
ENDBRANCH   6  20
BRANCH   5  23
ATOM     23  O   UNL     1     -36.096  22.169   5.325  0.00  0.00    -0.495 OA
ATOM     24  H   UNL     1     -35.365  21.694   5.668  0.00  0.00    +0.293 HD
ENDBRANCH   5  23
TORSDOF 3
ENDMDL
MODEL 7
REMARK VINA RESULT:      -6.1      2.811      6.972
REMARK  Name = 193349
REMARK  3 active torsions:
REMARK  status: ('A' for Active; 'I' for Inactive)
REMARK    1  A    between atoms: C_3  and  C_13
REMARK    2  A    between atoms: C_5  and  O_23
REMARK    3  A    between atoms: C_6  and  N_20
REMARK                            x       y       z     vdW  Elec       q    Type
REMARK                         _______ _______ _______ _____ _____    ______ ____
ROOT
ATOM      1  O   UNL     1     -37.583  22.654   3.324  0.00  0.00    -0.268 OA
ATOM      2  N   UNL     1     -37.074  24.639   4.361  0.00  0.00    -0.251 N 
ATOM      3  C   UNL     1     -34.954  25.681   4.128  0.00  0.00    +0.055 C 
ATOM      4  C   UNL     1     -34.583  24.559   3.268  0.00  0.00    +0.023 C 
ATOM      5  C   UNL     1     -36.205  25.668   4.644  0.00  0.00    +0.193 C 
ATOM      6  C   UNL     1     -35.402  23.538   2.969  0.00  0.00    +0.096 C 
ATOM      7  C   UNL     1     -36.780  23.555   3.556  0.00  0.00    +0.265 C 
ATOM      8  H   UNL     1     -37.971  24.678   4.762  0.00  0.00    +0.158 HD
ENDROOT
BRANCH   3  13
ATOM      9  O   UNL     1     -34.701  28.007   2.508  0.00  0.00    -0.270 OA
ATOM     10  O   UNL     1     -31.444  29.875   5.187  0.00  0.00    -0.268 OA
ATOM     11  N   UNL     1     -33.083  28.937   3.841  0.00  0.00    -0.247 N 
ATOM     12  N   UNL     1     -31.516  27.771   6.854  0.00  0.00    -0.294 NA
ATOM     13  C   UNL     1     -34.035  26.760   4.422  0.00  0.00    +0.060 C 
ATOM     14  C   UNL     1     -33.243  26.704   5.500  0.00  0.00    +0.028 C 
ATOM     15  C   UNL     1     -33.983  27.938   3.504  0.00  0.00    +0.252 C 
ATOM     16  C   UNL     1     -32.298  27.783   5.827  0.00  0.00    +0.126 C 
ATOM     17  C   UNL     1     -32.226  28.974   4.924  0.00  0.00    +0.269 C 
ATOM     18  H   UNL     1     -33.051  29.713   3.236  0.00  0.00    +0.158 HD
ATOM     19  H   UNL     1     -31.530  27.006   7.475  0.00  0.00    +0.187 HD
ENDBRANCH   3  13
BRANCH   6  20
ATOM     20  N   UNL     1     -35.088  22.478   2.172  0.00  0.00    -0.353 N 
ATOM     21  H   UNL     1     -34.148  22.203   2.067  0.00  0.00    +0.142 HD
ATOM     22  H   UNL     1     -35.799  21.989   1.700  0.00  0.00    +0.142 HD
ENDBRANCH   6  20
BRANCH   5  23
ATOM     23  O   UNL     1     -36.695  26.653   5.468  0.00  0.00    -0.495 OA
ATOM     24  H   UNL     1     -36.128  27.073   6.085  0.00  0.00    +0.293 HD
ENDBRANCH   5  23
TORSDOF 3
ENDMDL
MODEL 8
REMARK VINA RESULT:      -6.1      1.973      6.193
REMARK  Name = 193349
REMARK  3 active torsions:
REMARK  status: ('A' for Active; 'I' for Inactive)
REMARK    1  A    between atoms: C_3  and  C_13
REMARK    2  A    between atoms: C_5  and  O_23
REMARK    3  A    between atoms: C_6  and  N_20
REMARK                            x       y       z     vdW  Elec       q    Type
REMARK                         _______ _______ _______ _____ _____    ______ ____
ROOT
ATOM      1  O   UNL     1     -37.155  19.040   0.768  0.00  0.00    -0.268 OA
ATOM      2  N   UNL     1     -37.544  20.999   1.900  0.00  0.00    -0.251 N 
ATOM      3  C   UNL     1     -35.802  22.220   2.953  0.00  0.00    +0.055 C 
ATOM      4  C   UNL     1     -34.891  21.181   2.478  0.00  0.00    +0.023 C 
ATOM      5  C   UNL     1     -37.110  22.078   2.636  0.00  0.00    +0.193 C 
ATOM      6  C   UNL     1     -35.276  20.115   1.758  0.00  0.00    +0.096 C 
ATOM      7  C   UNL     1     -36.731  19.989   1.424  0.00  0.00    +0.265 C 
ATOM      8  H   UNL     1     -38.505  20.944   1.698  0.00  0.00    +0.158 HD
ENDROOT
BRANCH   3  13
ATOM      9  O   UNL     1     -36.018  22.373   5.788  0.00  0.00    -0.270 OA
ATOM     10  O   UNL     1     -34.046  26.537   6.006  0.00  0.00    -0.268 OA
ATOM     11  N   UNL     1     -35.036  24.442   5.896  0.00  0.00    -0.247 N 
ATOM     12  N   UNL     1     -33.744  26.606   3.338  0.00  0.00    -0.294 NA
ATOM     13  C   UNL     1     -35.339  23.351   3.727  0.00  0.00    +0.060 C 
ATOM     14  C   UNL     1     -34.774  24.404   3.122  0.00  0.00    +0.028 C 
ATOM     15  C   UNL     1     -35.500  23.329   5.213  0.00  0.00    +0.252 C 
ATOM     16  C   UNL     1     -34.293  25.571   3.879  0.00  0.00    +0.126 C 
ATOM     17  C   UNL     1     -34.443  25.572   5.368  0.00  0.00    +0.269 C 
ATOM     18  H   UNL     1     -35.142  24.425   6.875  0.00  0.00    +0.158 HD
ATOM     19  H   UNL     1     -33.626  26.647   2.361  0.00  0.00    +0.187 HD
ENDBRANCH   3  13
BRANCH   6  20
ATOM     20  N   UNL     1     -34.454  19.130   1.299  0.00  0.00    -0.353 N 
ATOM     21  H   UNL     1     -33.482  19.281   1.257  0.00  0.00    +0.142 HD
ATOM     22  H   UNL     1     -34.831  18.268   1.010  0.00  0.00    +0.142 HD
ENDBRANCH   6  20
BRANCH   5  23
ATOM     23  O   UNL     1     -38.082  22.974   3.013  0.00  0.00    -0.495 OA
ATOM     24  H   UNL     1     -38.025  23.406   3.843  0.00  0.00    +0.293 HD
ENDBRANCH   5  23
TORSDOF 3
ENDMDL
MODEL 9
REMARK VINA RESULT:      -6.0      3.242      6.606
REMARK  Name = 193349
REMARK  3 active torsions:
REMARK  status: ('A' for Active; 'I' for Inactive)
REMARK    1  A    between atoms: C_3  and  C_13
REMARK    2  A    between atoms: C_5  and  O_23
REMARK    3  A    between atoms: C_6  and  N_20
REMARK                            x       y       z     vdW  Elec       q    Type
REMARK                         _______ _______ _______ _____ _____    ______ ____
ROOT
ATOM      1  O   UNL     1     -35.835  17.505  -0.641  0.00  0.00    -0.268 OA
ATOM      2  N   UNL     1     -36.778  19.077   0.743  0.00  0.00    -0.251 N 
ATOM      3  C   UNL     1     -35.467  20.545   2.069  0.00  0.00    +0.055 C 
ATOM      4  C   UNL     1     -34.293  19.885   1.502  0.00  0.00    +0.023 C 
ATOM      5  C   UNL     1     -36.677  20.102   1.655  0.00  0.00    +0.193 C 
ATOM      6  C   UNL     1     -34.351  18.884   0.610  0.00  0.00    +0.096 C 
ATOM      7  C   UNL     1     -35.706  18.417   0.173  0.00  0.00    +0.265 C 
ATOM      8  H   UNL     1     -37.681  18.792   0.476  0.00  0.00    +0.158 HD
ENDROOT
BRANCH   3  13
ATOM      9  O   UNL     1     -35.154  23.276   1.329  0.00  0.00    -0.270 OA
ATOM     10  O   UNL     1     -35.022  24.749   5.698  0.00  0.00    -0.268 OA
ATOM     11  N   UNL     1     -35.090  24.008   3.501  0.00  0.00    -0.247 N 
ATOM     12  N   UNL     1     -35.309  22.242   6.620  0.00  0.00    -0.294 NA
ATOM     13  C   UNL     1     -35.354  21.622   3.029  0.00  0.00    +0.060 C 
ATOM     14  C   UNL     1     -35.392  21.369   4.343  0.00  0.00    +0.028 C 
ATOM     15  C   UNL     1     -35.193  23.022   2.532  0.00  0.00    +0.252 C 
ATOM     16  C   UNL     1     -35.278  22.440   5.345  0.00  0.00    +0.126 C 
ATOM     17  C   UNL     1     -35.117  23.851   4.873  0.00  0.00    +0.269 C 
ATOM     18  H   UNL     1     -34.986  24.930   3.172  0.00  0.00    +0.158 HD
ATOM     19  H   UNL     1     -35.414  21.330   6.975  0.00  0.00    +0.187 HD
ENDBRANCH   3  13
BRANCH   6  20
ATOM     20  N   UNL     1     -33.278  18.248   0.062  0.00  0.00    -0.353 N 
ATOM     21  H   UNL     1     -33.076  17.318   0.314  0.00  0.00    +0.142 HD
ATOM     22  H   UNL     1     -32.703  18.717  -0.585  0.00  0.00    +0.142 HD
ENDBRANCH   6  20
BRANCH   5  23
ATOM     23  O   UNL     1     -37.868  20.625   2.101  0.00  0.00    -0.495 OA
ATOM     24  H   UNL     1     -38.252  21.357   1.660  0.00  0.00    +0.293 HD
ENDBRANCH   5  23
TORSDOF 3
ENDMDL
