MODEL 1
REMARK VINA RESULT:      -5.8      0.000      0.000
REMARK  Name = 197020
REMARK  6 active torsions:
REMARK  status: ('A' for Active; 'I' for Inactive)
REMARK    1  A    between atoms: C2*_2  and  O2*_17
REMARK    2  A    between atoms: C3*_3  and  O3*_19
REMARK    3  A    between atoms: C1*_4  and  N_7
REMARK    4  A    between atoms: C4*_5  and  C5*_21
REMARK    5  A    between atoms: N_9  and  O_15
REMARK    6  A    between atoms: C5*_21  and  O5*_22
REMARK                            x       y       z     vdW  Elec       q    Type
REMARK                         _______ _______ _______ _____ _____    ______ ____
ROOT
ATOM      1  O4* UNL     1     -35.253  23.294   3.883  0.00  0.00    -0.332 OA
ATOM      2  C2* UNL     1     -36.242  25.091   5.069  0.00  0.00    +0.188 C 
ATOM      3  C3* UNL     1     -34.974  24.677   5.785  0.00  0.00    +0.171 C 
ATOM      4  C1* UNL     1     -36.040  24.481   3.693  0.00  0.00    +0.236 C 
ATOM      5  C4* UNL     1     -34.737  23.279   5.231  0.00  0.00    +0.175 C 
ENDROOT
BRANCH   4   7
ATOM      6  O   UNL     1     -37.962  26.303   2.735  0.00  0.00    -0.193 OA
ATOM      7  N   UNL     1     -37.279  24.124   3.064  0.00  0.00    -0.178 N 
ATOM      8  N   UNL     1     -39.375  24.682   2.007  0.00  0.00    -0.301 NA
ATOM      9  N   UNL     1     -40.820  23.018   1.267  0.00  0.00    -0.240 N 
ATOM     10  C   UNL     1     -37.581  22.780   2.903  0.00  0.00    +0.084 C 
ATOM     11  C   UNL     1     -38.199  25.101   2.606  0.00  0.00    +0.276 C 
ATOM     12  C   UNL     1     -38.707  22.358   2.332  0.00  0.00    +0.070 C 
ATOM     13  C   UNL     1     -39.645  23.412   1.864  0.00  0.00    +0.226 C 
ATOM     14  H   UNL     1     -41.057  22.075   1.114  0.00  0.00    +0.197 HD
BRANCH   9  15
ATOM     15  O   UNL     1     -41.625  24.060   0.908  0.00  0.00    -0.287 OA
ATOM     16  H   UNL     1     -41.334  24.412   0.052  0.00  0.00    +0.244 HD
ENDBRANCH   9  15
ENDBRANCH   4   7
BRANCH   2  17
ATOM     17  O2* UNL     1     -36.398  26.495   5.024  0.00  0.00    -0.378 OA
ATOM     18  H2* UNL     1     -36.670  26.762   4.131  0.00  0.00    +0.211 HD
ENDBRANCH   2  17
BRANCH   3  19
ATOM     19  O3* UNL     1     -33.883  25.502   5.377  0.00  0.00    -0.379 OA
ATOM     20  H3* UNL     1     -33.903  26.335   5.875  0.00  0.00    +0.211 HD
ENDBRANCH   3  19
BRANCH   5  21
ATOM     21  C5* UNL     1     -35.469  22.191   6.007  0.00  0.00    +0.169 C 
BRANCH  21  22
ATOM     22  O5* UNL     1     -35.116  20.932   5.464  0.00  0.00    -0.379 OA
ATOM     23  H5* UNL     1     -35.269  20.939   4.506  0.00  0.00    +0.211 HD
ENDBRANCH  21  22
ENDBRANCH   5  21
TORSDOF 6
ENDMDL
MODEL 2
REMARK VINA RESULT:      -5.7      2.731      4.661
REMARK  Name = 197020
REMARK  6 active torsions:
REMARK  status: ('A' for Active; 'I' for Inactive)
REMARK    1  A    between atoms: C2*_2  and  O2*_17
REMARK    2  A    between atoms: C3*_3  and  O3*_19
REMARK    3  A    between atoms: C1*_4  and  N_7
REMARK    4  A    between atoms: C4*_5  and  C5*_21
REMARK    5  A    between atoms: N_9  and  O_15
REMARK    6  A    between atoms: C5*_21  and  O5*_22
REMARK                            x       y       z     vdW  Elec       q    Type
REMARK                         _______ _______ _______ _____ _____    ______ ____
ROOT
ATOM      1  O4* UNL     1     -36.820  24.089   4.431  0.00  0.00    -0.332 OA
ATOM      2  C2* UNL     1     -34.715  25.002   3.843  0.00  0.00    +0.188 C 
ATOM      3  C3* UNL     1     -35.541  26.080   4.512  0.00  0.00    +0.171 C 
ATOM      4  C1* UNL     1     -35.436  23.738   4.277  0.00  0.00    +0.236 C 
ATOM      5  C4* UNL     1     -36.953  25.526   4.384  0.00  0.00    +0.175 C 
ENDROOT
BRANCH   4   7
ATOM      6  O   UNL     1     -35.254  20.992   4.874  0.00  0.00    -0.193 OA
ATOM      7  N   UNL     1     -35.327  22.685   3.308  0.00  0.00    -0.178 N 
ATOM      8  N   UNL     1     -35.137  20.358   2.698  0.00  0.00    -0.301 NA
ATOM      9  N   UNL     1     -35.014  19.715   0.466  0.00  0.00    -0.240 N 
ATOM     10  C   UNL     1     -35.305  23.017   1.963  0.00  0.00    +0.084 C 
ATOM     11  C   UNL     1     -35.239  21.321   3.687  0.00  0.00    +0.276 C 
ATOM     12  C   UNL     1     -35.205  22.106   0.997  0.00  0.00    +0.070 C 
ATOM     13  C   UNL     1     -35.117  20.689   1.433  0.00  0.00    +0.226 C 
ATOM     14  H   UNL     1     -35.020  19.911  -0.498  0.00  0.00    +0.197 HD
BRANCH   9  15
ATOM     15  O   UNL     1     -34.902  18.453   0.973  0.00  0.00    -0.287 OA
ATOM     16  H   UNL     1     -34.276  17.944   0.436  0.00  0.00    +0.244 HD
ENDBRANCH   9  15
ENDBRANCH   4   7
BRANCH   2  17
ATOM     17  O2* UNL     1     -33.364  25.027   4.256  0.00  0.00    -0.378 OA
ATOM     18  H2* UNL     1     -33.039  24.118   4.355  0.00  0.00    +0.211 HD
ENDBRANCH   2  17
BRANCH   3  19
ATOM     19  O3* UNL     1     -35.222  26.156   5.902  0.00  0.00    -0.379 OA
ATOM     20  H3* UNL     1     -35.797  25.553   6.399  0.00  0.00    +0.211 HD
ENDBRANCH   3  19
BRANCH   5  21
ATOM     21  C5* UNL     1     -37.629  25.897   3.070  0.00  0.00    +0.169 C 
BRANCH  21  22
ATOM     22  O5* UNL     1     -38.921  26.402   3.353  0.00  0.00    -0.379 OA
ATOM     23  H5* UNL     1     -39.565  25.994   2.753  0.00  0.00    +0.211 HD
ENDBRANCH  21  22
ENDBRANCH   5  21
TORSDOF 6
ENDMDL
MODEL 3
REMARK VINA RESULT:      -5.6      2.658      5.928
REMARK  Name = 197020
REMARK  6 active torsions:
REMARK  status: ('A' for Active; 'I' for Inactive)
REMARK    1  A    between atoms: C2*_2  and  O2*_17
REMARK    2  A    between atoms: C3*_3  and  O3*_19
REMARK    3  A    between atoms: C1*_4  and  N_7
REMARK    4  A    between atoms: C4*_5  and  C5*_21
REMARK    5  A    between atoms: N_9  and  O_15
REMARK    6  A    between atoms: C5*_21  and  O5*_22
REMARK                            x       y       z     vdW  Elec       q    Type
REMARK                         _______ _______ _______ _____ _____    ______ ____
ROOT
ATOM      1  O4* UNL     1     -37.119  24.938   2.146  0.00  0.00    -0.332 OA
ATOM      2  C2* UNL     1     -36.977  22.944   3.417  0.00  0.00    +0.188 C 
ATOM      3  C3* UNL     1     -38.182  22.852   2.504  0.00  0.00    +0.171 C 
ATOM      4  C1* UNL     1     -36.172  24.053   2.765  0.00  0.00    +0.236 C 
ATOM      5  C4* UNL     1     -38.420  24.312   2.143  0.00  0.00    +0.175 C 
ENDROOT
BRANCH   4   7
ATOM      6  O   UNL     1     -33.587  25.073   2.303  0.00  0.00    -0.193 OA
ATOM      7  N   UNL     1     -35.391  24.795   3.714  0.00  0.00    -0.178 N 
ATOM      8  N   UNL     1     -33.399  25.986   4.372  0.00  0.00    -0.301 NA
ATOM      9  N   UNL     1     -33.211  26.917   6.495  0.00  0.00    -0.240 N 
ATOM     10  C   UNL     1     -35.928  25.043   4.968  0.00  0.00    +0.084 C 
ATOM     11  C   UNL     1     -34.093  25.277   3.407  0.00  0.00    +0.276 C 
ATOM     12  C   UNL     1     -35.275  25.720   5.910  0.00  0.00    +0.070 C 
ATOM     13  C   UNL     1     -33.919  26.210   5.550  0.00  0.00    +0.226 C 
ATOM     14  H   UNL     1     -33.568  27.133   7.386  0.00  0.00    +0.197 HD
BRANCH   9  15
ATOM     15  O   UNL     1     -31.966  27.289   6.077  0.00  0.00    -0.287 OA
ATOM     16  H   UNL     1     -32.026  28.119   5.580  0.00  0.00    +0.244 HD
ENDBRANCH   9  15
ENDBRANCH   4   7
BRANCH   2  17
ATOM     17  O2* UNL     1     -36.265  21.725   3.490  0.00  0.00    -0.378 OA
ATOM     18  H2* UNL     1     -35.863  21.638   4.369  0.00  0.00    +0.211 HD
ENDBRANCH   2  17
BRANCH   3  19
ATOM     19  O3* UNL     1     -37.843  22.152   1.307  0.00  0.00    -0.379 OA
ATOM     20  H3* UNL     1     -38.414  22.454   0.583  0.00  0.00    +0.211 HD
ENDBRANCH   3  19
BRANCH   5  21
ATOM     21  C5* UNL     1     -39.301  25.044   3.147  0.00  0.00    +0.169 C 
BRANCH  21  22
ATOM     22  O5* UNL     1     -38.789  26.352   3.329  0.00  0.00    -0.379 OA
ATOM     23  H5* UNL     1     -39.401  26.995   2.937  0.00  0.00    +0.211 HD
ENDBRANCH  21  22
ENDBRANCH   5  21
TORSDOF 6
ENDMDL
MODEL 4
REMARK VINA RESULT:      -5.5      3.196      5.623
REMARK  Name = 197020
REMARK  6 active torsions:
REMARK  status: ('A' for Active; 'I' for Inactive)
REMARK    1  A    between atoms: C2*_2  and  O2*_17
REMARK    2  A    between atoms: C3*_3  and  O3*_19
REMARK    3  A    between atoms: C1*_4  and  N_7
REMARK    4  A    between atoms: C4*_5  and  C5*_21
REMARK    5  A    between atoms: N_9  and  O_15
REMARK    6  A    between atoms: C5*_21  and  O5*_22
REMARK                            x       y       z     vdW  Elec       q    Type
REMARK                         _______ _______ _______ _____ _____    ______ ____
ROOT
ATOM      1  O4* UNL     1     -36.252  24.050   5.339  0.00  0.00    -0.332 OA
ATOM      2  C2* UNL     1     -35.242  23.677   3.229  0.00  0.00    +0.188 C 
ATOM      3  C3* UNL     1     -36.015  22.436   3.622  0.00  0.00    +0.171 C 
ATOM      4  C1* UNL     1     -35.852  24.729   4.138  0.00  0.00    +0.236 C 
ATOM      5  C4* UNL     1     -36.178  22.624   5.124  0.00  0.00    +0.175 C 
ENDROOT
BRANCH   4   7
ATOM      6  O   UNL     1     -35.239  26.957   2.526  0.00  0.00    -0.193 OA
ATOM      7  N   UNL     1     -34.920  25.767   4.477  0.00  0.00    -0.178 N 
ATOM      8  N   UNL     1     -33.752  27.825   4.006  0.00  0.00    -0.301 NA
ATOM      9  N   UNL     1     -32.228  28.708   5.524  0.00  0.00    -0.240 N 
ATOM     10  C   UNL     1     -34.253  25.691   5.690  0.00  0.00    +0.084 C 
ATOM     11  C   UNL     1     -34.664  26.860   3.611  0.00  0.00    +0.276 C 
ATOM     12  C   UNL     1     -33.371  26.607   6.085  0.00  0.00    +0.070 C 
ATOM     13  C   UNL     1     -33.131  27.738   5.152  0.00  0.00    +0.226 C 
ATOM     14  H   UNL     1     -31.754  28.700   6.386  0.00  0.00    +0.197 HD
BRANCH   9  15
ATOM     15  O   UNL     1     -32.054  29.680   4.582  0.00  0.00    -0.287 OA
ATOM     16  H   UNL     1     -32.868  29.775   4.063  0.00  0.00    +0.244 HD
ENDBRANCH   9  15
ENDBRANCH   4   7
BRANCH   2  17
ATOM     17  O2* UNL     1     -35.391  23.990   1.859  0.00  0.00    -0.378 OA
ATOM     18  H2* UNL     1     -35.351  24.952   1.740  0.00  0.00    +0.211 HD
ENDBRANCH   2  17
BRANCH   3  19
ATOM     19  O3* UNL     1     -37.316  22.456   3.033  0.00  0.00    -0.379 OA
ATOM     20  H3* UNL     1     -37.337  21.851   2.275  0.00  0.00    +0.211 HD
ENDBRANCH   3  19
BRANCH   5  21
ATOM     21  C5* UNL     1     -35.003  22.084   5.929  0.00  0.00    +0.169 C 
BRANCH  21  22
ATOM     22  O5* UNL     1     -35.041  20.669   5.892  0.00  0.00    -0.379 OA
ATOM     23  H5* UNL     1     -35.754  20.350   6.468  0.00  0.00    +0.211 HD
ENDBRANCH  21  22
ENDBRANCH   5  21
TORSDOF 6
ENDMDL
MODEL 5
REMARK VINA RESULT:      -5.5      2.541      3.086
REMARK  Name = 197020
REMARK  6 active torsions:
REMARK  status: ('A' for Active; 'I' for Inactive)
REMARK    1  A    between atoms: C2*_2  and  O2*_17
REMARK    2  A    between atoms: C3*_3  and  O3*_19
REMARK    3  A    between atoms: C1*_4  and  N_7
REMARK    4  A    between atoms: C4*_5  and  C5*_21
REMARK    5  A    between atoms: N_9  and  O_15
REMARK    6  A    between atoms: C5*_21  and  O5*_22
REMARK                            x       y       z     vdW  Elec       q    Type
REMARK                         _______ _______ _______ _____ _____    ______ ____
ROOT
ATOM      1  O4* UNL     1     -35.596  26.262   1.708  0.00  0.00    -0.332 OA
ATOM      2  C2* UNL     1     -35.714  26.167   4.072  0.00  0.00    +0.188 C 
ATOM      3  C3* UNL     1     -34.630  27.148   3.680  0.00  0.00    +0.171 C 
ATOM      4  C1* UNL     1     -36.519  26.059   2.790  0.00  0.00    +0.236 C 
ATOM      5  C4* UNL     1     -34.345  26.750   2.238  0.00  0.00    +0.175 C 
ENDROOT
BRANCH   4   7
ATOM      6  O   UNL     1     -39.295  25.595   2.668  0.00  0.00    -0.193 OA
ATOM      7  N   UNL     1     -37.139  24.773   2.638  0.00  0.00    -0.178 N 
ATOM      8  N   UNL     1     -39.076  23.348   2.437  0.00  0.00    -0.301 NA
ATOM      9  N   UNL     1     -38.845  21.046   2.203  0.00  0.00    -0.240 N 
ATOM     10  C   UNL     1     -36.330  23.651   2.544  0.00  0.00    +0.084 C 
ATOM     11  C   UNL     1     -38.548  24.619   2.585  0.00  0.00    +0.276 C 
ATOM     12  C   UNL     1     -36.819  22.421   2.403  0.00  0.00    +0.070 C 
ATOM     13  C   UNL     1     -38.299  22.300   2.350  0.00  0.00    +0.226 C 
ATOM     14  H   UNL     1     -38.302  20.230   2.109  0.00  0.00    +0.197 HD
BRANCH   9  15
ATOM     15  O   UNL     1     -40.209  21.042   2.203  0.00  0.00    -0.287 OA
ATOM     16  H   UNL     1     -40.530  20.128   2.154  0.00  0.00    +0.244 HD
ENDBRANCH   9  15
ENDBRANCH   4   7
BRANCH   2  17
ATOM     17  O2* UNL     1     -36.486  26.628   5.162  0.00  0.00    -0.378 OA
ATOM     18  H2* UNL     1     -37.273  27.088   4.830  0.00  0.00    +0.211 HD
ENDBRANCH   2  17
BRANCH   3  19
ATOM     19  O3* UNL     1     -35.146  28.480   3.675  0.00  0.00    -0.379 OA
ATOM     20  H3* UNL     1     -34.415  29.110   3.766  0.00  0.00    +0.211 HD
ENDBRANCH   3  19
BRANCH   5  21
ATOM     21  C5* UNL     1     -33.312  25.638   2.114  0.00  0.00    +0.169 C 
BRANCH  21  22
ATOM     22  O5* UNL     1     -32.258  25.895   3.025  0.00  0.00    -0.379 OA
ATOM     23  H5* UNL     1     -32.272  26.832   3.278  0.00  0.00    +0.211 HD
ENDBRANCH  21  22
ENDBRANCH   5  21
TORSDOF 6
ENDMDL
MODEL 6
REMARK VINA RESULT:      -5.4      2.904      3.755
REMARK  Name = 197020
REMARK  6 active torsions:
REMARK  status: ('A' for Active; 'I' for Inactive)
REMARK    1  A    between atoms: C2*_2  and  O2*_17
REMARK    2  A    between atoms: C3*_3  and  O3*_19
REMARK    3  A    between atoms: C1*_4  and  N_7
REMARK    4  A    between atoms: C4*_5  and  C5*_21
REMARK    5  A    between atoms: N_9  and  O_15
REMARK    6  A    between atoms: C5*_21  and  O5*_22
REMARK                            x       y       z     vdW  Elec       q    Type
REMARK                         _______ _______ _______ _____ _____    ______ ____
ROOT
ATOM      1  O4* UNL     1     -36.322  24.768   2.881  0.00  0.00    -0.332 OA
ATOM      2  C2* UNL     1     -35.568  23.685   4.848  0.00  0.00    +0.188 C 
ATOM      3  C3* UNL     1     -35.230  25.157   4.946  0.00  0.00    +0.171 C 
ATOM      4  C1* UNL     1     -36.630  23.677   3.763  0.00  0.00    +0.236 C 
ATOM      5  C4* UNL     1     -35.313  25.601   3.492  0.00  0.00    +0.175 C 
ENDROOT
BRANCH   4   7
ATOM      6  O   UNL     1     -38.791  22.719   2.231  0.00  0.00    -0.193 OA
ATOM      7  N   UNL     1     -36.635  22.455   3.009  0.00  0.00    -0.178 N 
ATOM      8  N   UNL     1     -37.697  20.848   1.556  0.00  0.00    -0.301 NA
ATOM      9  N   UNL     1     -36.572  18.931   0.871  0.00  0.00    -0.240 N 
ATOM     10  C   UNL     1     -35.498  21.662   3.020  0.00  0.00    +0.084 C 
ATOM     11  C   UNL     1     -37.765  22.038   2.260  0.00  0.00    +0.276 C 
ATOM     12  C   UNL     1     -35.415  20.513   2.352  0.00  0.00    +0.070 C 
ATOM     13  C   UNL     1     -36.618  20.111   1.578  0.00  0.00    +0.226 C 
ATOM     14  H   UNL     1     -35.775  18.355   0.836  0.00  0.00    +0.197 HD
BRANCH   9  15
ATOM     15  O   UNL     1     -37.739  18.638   0.226  0.00  0.00    -0.287 OA
ATOM     16  H   UNL     1     -38.427  18.438   0.880  0.00  0.00    +0.244 HD
ENDBRANCH   9  15
ENDBRANCH   4   7
BRANCH   2  17
ATOM     17  O2* UNL     1     -36.039  23.159   6.073  0.00  0.00    -0.378 OA
ATOM     18  H2* UNL     1     -36.419  23.875   6.607  0.00  0.00    +0.211 HD
ENDBRANCH   2  17
BRANCH   3  19
ATOM     19  O3* UNL     1     -36.243  25.850   5.676  0.00  0.00    -0.379 OA
ATOM     20  H3* UNL     1     -35.831  26.400   6.360  0.00  0.00    +0.211 HD
ENDBRANCH   3  19
BRANCH   5  21
ATOM     21  C5* UNL     1     -34.010  25.405   2.728  0.00  0.00    +0.169 C 
BRANCH  21  22
ATOM     22  O5* UNL     1     -32.928  25.659   3.606  0.00  0.00    -0.379 OA
ATOM     23  H5* UNL     1     -33.059  25.165   4.431  0.00  0.00    +0.211 HD
ENDBRANCH  21  22
ENDBRANCH   5  21
TORSDOF 6
ENDMDL
MODEL 7
REMARK VINA RESULT:      -5.4      2.564      5.536
REMARK  Name = 197020
REMARK  6 active torsions:
REMARK  status: ('A' for Active; 'I' for Inactive)
REMARK    1  A    between atoms: C2*_2  and  O2*_17
REMARK    2  A    between atoms: C3*_3  and  O3*_19
REMARK    3  A    between atoms: C1*_4  and  N_7
REMARK    4  A    between atoms: C4*_5  and  C5*_21
REMARK    5  A    between atoms: N_9  and  O_15
REMARK    6  A    between atoms: C5*_21  and  O5*_22
REMARK                            x       y       z     vdW  Elec       q    Type
REMARK                         _______ _______ _______ _____ _____    ______ ____
ROOT
ATOM      1  O4* UNL     1     -35.980  21.786   2.834  0.00  0.00    -0.332 OA
ATOM      2  C2* UNL     1     -37.836  23.206   2.445  0.00  0.00    +0.188 C 
ATOM      3  C3* UNL     1     -37.995  21.959   1.601  0.00  0.00    +0.171 C 
ATOM      4  C1* UNL     1     -36.818  22.760   3.478  0.00  0.00    +0.236 C 
ATOM      5  C4* UNL     1     -36.575  21.410   1.574  0.00  0.00    +0.175 C 
ENDROOT
BRANCH   4   7
ATOM      6  O   UNL     1     -35.802  23.021   6.093  0.00  0.00    -0.193 OA
ATOM      7  N   UNL     1     -36.000  23.843   3.946  0.00  0.00    -0.178 N 
ATOM      8  N   UNL     1     -34.740  24.980   5.661  0.00  0.00    -0.301 NA
ATOM      9  N   UNL     1     -33.655  26.987   5.213  0.00  0.00    -0.240 N 
ATOM     10  C   UNL     1     -35.669  24.856   3.060  0.00  0.00    +0.084 C 
ATOM     11  C   UNL     1     -35.525  23.905   5.281  0.00  0.00    +0.276 C 
ATOM     12  C   UNL     1     -34.917  25.899   3.408  0.00  0.00    +0.070 C 
ATOM     13  C   UNL     1     -34.437  25.928   4.814  0.00  0.00    +0.226 C 
ATOM     14  H   UNL     1     -33.380  27.712   4.607  0.00  0.00    +0.197 HD
BRANCH   9  15
ATOM     15  O   UNL     1     -33.300  26.936   6.530  0.00  0.00    -0.287 OA
ATOM     16  H   UNL     1     -33.047  27.823   6.830  0.00  0.00    +0.244 HD
ENDBRANCH   9  15
ENDBRANCH   4   7
BRANCH   2  17
ATOM     17  O2* UNL     1     -39.056  23.619   3.027  0.00  0.00    -0.378 OA
ATOM     18  H2* UNL     1     -39.128  24.586   2.977  0.00  0.00    +0.211 HD
ENDBRANCH   2  17
BRANCH   3  19
ATOM     19  O3* UNL     1     -38.821  21.009   2.274  0.00  0.00    -0.379 OA
ATOM     20  H3* UNL     1     -39.140  21.389   3.107  0.00  0.00    +0.211 HD
ENDBRANCH   3  19
BRANCH   5  21
ATOM     21  C5* UNL     1     -35.725  21.997   0.454  0.00  0.00    +0.169 C 
BRANCH  21  22
ATOM     22  O5* UNL     1     -34.417  22.222   0.950  0.00  0.00    -0.379 OA
ATOM     23  H5* UNL     1     -34.443  22.267   1.919  0.00  0.00    +0.211 HD
ENDBRANCH  21  22
ENDBRANCH   5  21
TORSDOF 6
ENDMDL
MODEL 8
REMARK VINA RESULT:      -5.4      3.338      5.613
REMARK  Name = 197020
REMARK  6 active torsions:
REMARK  status: ('A' for Active; 'I' for Inactive)
REMARK    1  A    between atoms: C2*_2  and  O2*_17
REMARK    2  A    between atoms: C3*_3  and  O3*_19
REMARK    3  A    between atoms: C1*_4  and  N_7
REMARK    4  A    between atoms: C4*_5  and  C5*_21
REMARK    5  A    between atoms: N_9  and  O_15
REMARK    6  A    between atoms: C5*_21  and  O5*_22
REMARK                            x       y       z     vdW  Elec       q    Type
REMARK                         _______ _______ _______ _____ _____    ______ ____
ROOT
ATOM      1  O4* UNL     1     -34.716  28.234   3.629  0.00  0.00    -0.332 OA
ATOM      2  C2* UNL     1     -32.879  27.173   2.575  0.00  0.00    +0.188 C 
ATOM      3  C3* UNL     1     -32.979  28.593   2.059  0.00  0.00    +0.171 C 
ATOM      4  C1* UNL     1     -33.700  27.242   3.850  0.00  0.00    +0.236 C 
ATOM      5  C4* UNL     1     -34.412  28.963   2.420  0.00  0.00    +0.175 C 
ENDROOT
BRANCH   4   7
ATOM      6  O   UNL     1     -33.947  26.149   6.434  0.00  0.00    -0.193 OA
ATOM      7  N   UNL     1     -34.331  25.992   4.164  0.00  0.00    -0.178 N 
ATOM      8  N   UNL     1     -35.040  24.291   5.723  0.00  0.00    -0.301 NA
ATOM      9  N   UNL     1     -36.156  22.388   4.987  0.00  0.00    -0.240 N 
ATOM     10  C   UNL     1     -34.869  25.239   3.132  0.00  0.00    +0.084 C 
ATOM     11  C   UNL     1     -34.416  25.506   5.494  0.00  0.00    +0.276 C 
ATOM     12  C   UNL     1     -35.469  24.068   3.331  0.00  0.00    +0.070 C 
ATOM     13  C   UNL     1     -35.541  23.594   4.738  0.00  0.00    +0.226 C 
ATOM     14  H   UNL     1     -36.570  21.839   4.283  0.00  0.00    +0.197 HD
BRANCH   9  15
ATOM     15  O   UNL     1     -36.135  22.029   6.304  0.00  0.00    -0.287 OA
ATOM     16  H   UNL     1     -35.215  21.940   6.599  0.00  0.00    +0.244 HD
ENDBRANCH   9  15
ENDBRANCH   4   7
BRANCH   2  17
ATOM     17  O2* UNL     1     -31.541  26.782   2.811  0.00  0.00    -0.378 OA
ATOM     18  H2* UNL     1     -31.006  26.969   2.023  0.00  0.00    +0.211 HD
ENDBRANCH   2  17
BRANCH   3  19
ATOM     19  O3* UNL     1     -32.105  29.450   2.795  0.00  0.00    -0.379 OA
ATOM     20  H3* UNL     1     -31.886  29.037   3.644  0.00  0.00    +0.211 HD
ENDBRANCH   3  19
BRANCH   5  21
ATOM     21  C5* UNL     1     -35.424  28.559   1.356  0.00  0.00    +0.169 C 
BRANCH  21  22
ATOM     22  O5* UNL     1     -36.621  28.158   1.998  0.00  0.00    -0.379 OA
ATOM     23  H5* UNL     1     -37.248  27.829   1.336  0.00  0.00    +0.211 HD
ENDBRANCH  21  22
ENDBRANCH   5  21
TORSDOF 6
ENDMDL
MODEL 9
REMARK VINA RESULT:      -5.3      2.599      5.351
REMARK  Name = 197020
REMARK  6 active torsions:
REMARK  status: ('A' for Active; 'I' for Inactive)
REMARK    1  A    between atoms: C2*_2  and  O2*_17
REMARK    2  A    between atoms: C3*_3  and  O3*_19
REMARK    3  A    between atoms: C1*_4  and  N_7
REMARK    4  A    between atoms: C4*_5  and  C5*_21
REMARK    5  A    between atoms: N_9  and  O_15
REMARK    6  A    between atoms: C5*_21  and  O5*_22
REMARK                            x       y       z     vdW  Elec       q    Type
REMARK                         _______ _______ _______ _____ _____    ______ ____
ROOT
ATOM      1  O4* UNL     1     -37.437  23.181   3.469  0.00  0.00    -0.332 OA
ATOM      2  C2* UNL     1     -36.453  24.085   1.513  0.00  0.00    +0.188 C 
ATOM      3  C3* UNL     1     -37.263  22.864   1.128  0.00  0.00    +0.171 C 
ATOM      4  C1* UNL     1     -37.023  24.424   2.878  0.00  0.00    +0.236 C 
ATOM      5  C4* UNL     1     -37.410  22.146   2.463  0.00  0.00    +0.175 C 
ENDROOT
BRANCH   4   7
ATOM      6  O   UNL     1     -36.091  27.070   2.624  0.00  0.00    -0.193 OA
ATOM      7  N   UNL     1     -36.057  25.048   3.736  0.00  0.00    -0.178 N 
ATOM      8  N   UNL     1     -34.700  26.926   4.412  0.00  0.00    -0.301 NA
ATOM      9  N   UNL     1     -33.275  26.772   6.243  0.00  0.00    -0.240 N 
ATOM     10  C   UNL     1     -35.521  24.312   4.782  0.00  0.00    +0.084 C 
ATOM     11  C   UNL     1     -35.636  26.389   3.545  0.00  0.00    +0.276 C 
ATOM     12  C   UNL     1     -34.619  24.810   5.625  0.00  0.00    +0.070 C 
ATOM     13  C   UNL     1     -34.204  26.218   5.393  0.00  0.00    +0.226 C 
ATOM     14  H   UNL     1     -32.891  26.289   7.010  0.00  0.00    +0.197 HD
BRANCH   9  15
ATOM     15  O   UNL     1     -32.937  28.054   5.921  0.00  0.00    -0.287 OA
ATOM     16  H   UNL     1     -32.849  28.132   4.958  0.00  0.00    +0.244 HD
ENDBRANCH   9  15
ENDBRANCH   4   7
BRANCH   2  17
ATOM     17  O2* UNL     1     -36.601  25.140   0.585  0.00  0.00    -0.378 OA
ATOM     18  H2* UNL     1     -35.794  25.217   0.051  0.00  0.00    +0.211 HD
ENDBRANCH   2  17
BRANCH   3  19
ATOM     19  O3* UNL     1     -38.566  23.252   0.692  0.00  0.00    -0.379 OA
ATOM     20  H3* UNL     1     -39.087  23.548   1.454  0.00  0.00    +0.211 HD
ENDBRANCH   3  19
BRANCH   5  21
ATOM     21  C5* UNL     1     -36.247  21.213   2.775  0.00  0.00    +0.169 C 
BRANCH  21  22
ATOM     22  O5* UNL     1     -36.687  19.875   2.625  0.00  0.00    -0.379 OA
ATOM     23  H5* UNL     1     -37.646  19.833   2.772  0.00  0.00    +0.211 HD
ENDBRANCH  21  22
ENDBRANCH   5  21
TORSDOF 6
ENDMDL
