MODEL 1
REMARK VINA RESULT:      -6.2      0.000      0.000
REMARK  Name = 189917
REMARK  5 active torsions:
REMARK  status: ('A' for Active; 'I' for Inactive)
REMARK    1  A    between atoms: C_2  and  N_7
REMARK    2  A    between atoms: C_3  and  C_23
REMARK    3  A    between atoms: C_5  and  O_19
REMARK    4  A    between atoms: C_6  and  O_21
REMARK    5  A    between atoms: C_23  and  O_24
REMARK                            x       y       z     vdW  Elec       q    Type
REMARK                         _______ _______ _______ _____ _____    ______ ____
ROOT
ATOM      1  F   UNL     1     -33.688  24.000   4.875  0.00  0.00    -0.235 F 
ATOM      2  C   UNL     1     -36.034  24.037   4.523  0.00  0.00    +0.138 C 
ATOM      3  C   UNL     1     -34.918  25.837   5.654  0.00  0.00    +0.093 C 
ATOM      4  C   UNL     1     -34.863  24.322   5.482  0.00  0.00    +0.186 C 
ATOM      5  C   UNL     1     -36.025  25.271   3.572  0.00  0.00    +0.158 C 
ATOM      6  C   UNL     1     -35.072  26.300   4.204  0.00  0.00    +0.144 C 
ENDROOT
BRANCH   2   7
ATOM      7  N   UNL     1     -36.046  22.740   3.846  0.00  0.00    -0.268 N 
ATOM      8  N   UNL     1     -35.486  20.636   3.360  0.00  0.00    -0.242 NA
ATOM      9  N   UNL     1     -37.787  23.098   2.192  0.00  0.00    -0.228 NA
ATOM     10  N   UNL     1     -38.127  21.112   0.815  0.00  0.00    -0.229 NA
ATOM     11  C   UNL     1     -36.849  22.364   2.806  0.00  0.00    +0.151 C 
ATOM     12  C   UNL     1     -35.244  21.667   4.142  0.00  0.00    +0.221 C 
ATOM     13  C   UNL     1     -36.486  21.056   2.520  0.00  0.00    +0.140 C 
ATOM     14  C   UNL     1     -37.165  20.428   1.482  0.00  0.00    +0.143 C 
ATOM     15  C   UNL     1     -38.375  22.385   1.206  0.00  0.00    +0.253 C 
ATOM     16  N   UNL     1     -36.863  19.103   1.125  0.00  0.00    -0.342 N 
ATOM     17  H   UNL     1     -37.351  18.668   0.388  0.00  0.00    +0.144 HD
ATOM     18  H   UNL     1     -36.165  18.609   1.612  0.00  0.00    +0.144 HD
ENDBRANCH   2   7
BRANCH   5  19
ATOM     19  O   UNL     1     -37.347  25.791   3.460  0.00  0.00    -0.380 OA
ATOM     20  H   UNL     1     -37.929  25.331   4.084  0.00  0.00    +0.211 HD
ENDBRANCH   5  19
BRANCH   6  21
ATOM     21  O   UNL     1     -35.562  27.623   4.106  0.00  0.00    -0.382 OA
ATOM     22  H   UNL     1     -35.902  27.776   3.211  0.00  0.00    +0.210 HD
ENDBRANCH   6  21
BRANCH   3  23
ATOM     23  C   UNL     1     -33.688  26.408   6.343  0.00  0.00    +0.142 C 
BRANCH  23  24
ATOM     24  O   UNL     1     -33.104  27.383   5.497  0.00  0.00    -0.382 OA
ATOM     25  H   UNL     1     -32.983  28.209   5.991  0.00  0.00    +0.210 HD
ENDBRANCH  23  24
ENDBRANCH   3  23
TORSDOF 5
ENDMDL
MODEL 2
REMARK VINA RESULT:      -6.2      3.968      6.392
REMARK  Name = 189917
REMARK  5 active torsions:
REMARK  status: ('A' for Active; 'I' for Inactive)
REMARK    1  A    between atoms: C_2  and  N_7
REMARK    2  A    between atoms: C_3  and  C_23
REMARK    3  A    between atoms: C_5  and  O_19
REMARK    4  A    between atoms: C_6  and  O_21
REMARK    5  A    between atoms: C_23  and  O_24
REMARK                            x       y       z     vdW  Elec       q    Type
REMARK                         _______ _______ _______ _____ _____    ______ ____
ROOT
ATOM      1  F   UNL     1     -35.946  24.714   5.526  0.00  0.00    -0.235 F 
ATOM      2  C   UNL     1     -34.547  24.568   3.614  0.00  0.00    +0.138 C 
ATOM      3  C   UNL     1     -34.939  22.659   5.015  0.00  0.00    +0.093 C 
ATOM      4  C   UNL     1     -34.775  24.174   5.084  0.00  0.00    +0.186 C 
ATOM      5  C   UNL     1     -35.461  23.578   2.832  0.00  0.00    +0.158 C 
ATOM      6  C   UNL     1     -35.916  22.514   3.847  0.00  0.00    +0.144 C 
ENDROOT
BRANCH   2   7
ATOM      7  N   UNL     1     -34.727  25.977   3.261  0.00  0.00    -0.268 N 
ATOM      8  N   UNL     1     -35.624  27.796   2.331  0.00  0.00    -0.242 NA
ATOM      9  N   UNL     1     -32.862  26.991   4.440  0.00  0.00    -0.228 NA
ATOM     10  N   UNL     1     -32.803  29.407   4.100  0.00  0.00    -0.229 NA
ATOM     11  C   UNL     1     -33.948  27.028   3.655  0.00  0.00    +0.151 C 
ATOM     12  C   UNL     1     -35.721  26.490   2.467  0.00  0.00    +0.221 C 
ATOM     13  C   UNL     1     -34.521  28.146   3.068  0.00  0.00    +0.140 C 
ATOM     14  C   UNL     1     -33.907  29.370   3.315  0.00  0.00    +0.143 C 
ATOM     15  C   UNL     1     -32.356  28.232   4.607  0.00  0.00    +0.253 C 
ATOM     16  N   UNL     1     -34.421  30.555   2.762  0.00  0.00    -0.342 N 
ATOM     17  H   UNL     1     -33.978  31.416   2.943  0.00  0.00    +0.144 HD
ATOM     18  H   UNL     1     -35.224  30.525   2.193  0.00  0.00    +0.144 HD
ENDBRANCH   2   7
BRANCH   5  19
ATOM     19  O   UNL     1     -34.720  22.991   1.766  0.00  0.00    -0.380 OA
ATOM     20  H   UNL     1     -34.898  23.474   0.944  0.00  0.00    +0.211 HD
ENDBRANCH   5  19
BRANCH   6  21
ATOM     21  O   UNL     1     -35.917  21.210   3.299  0.00  0.00    -0.382 OA
ATOM     22  H   UNL     1     -36.726  20.748   3.566  0.00  0.00    +0.210 HD
ENDBRANCH   6  21
BRANCH   3  23
ATOM     23  C   UNL     1     -35.452  22.051   6.312  0.00  0.00    +0.142 C 
BRANCH  23  24
ATOM     24  O   UNL     1     -35.618  20.656   6.126  0.00  0.00    -0.382 OA
ATOM     25  H   UNL     1     -36.347  20.339   6.682  0.00  0.00    +0.210 HD
ENDBRANCH  23  24
ENDBRANCH   3  23
TORSDOF 5
ENDMDL
MODEL 3
REMARK VINA RESULT:      -6.2      3.619      6.008
REMARK  Name = 189917
REMARK  5 active torsions:
REMARK  status: ('A' for Active; 'I' for Inactive)
REMARK    1  A    between atoms: C_2  and  N_7
REMARK    2  A    between atoms: C_3  and  C_23
REMARK    3  A    between atoms: C_5  and  O_19
REMARK    4  A    between atoms: C_6  and  O_21
REMARK    5  A    between atoms: C_23  and  O_24
REMARK                            x       y       z     vdW  Elec       q    Type
REMARK                         _______ _______ _______ _____ _____    ______ ____
ROOT
ATOM      1  F   UNL     1     -34.605  23.357   2.215  0.00  0.00    -0.235 F 
ATOM      2  C   UNL     1     -35.797  24.105   4.126  0.00  0.00    +0.138 C 
ATOM      3  C   UNL     1     -36.089  21.881   3.271  0.00  0.00    +0.093 C 
ATOM      4  C   UNL     1     -35.830  23.311   2.807  0.00  0.00    +0.186 C 
ATOM      5  C   UNL     1     -35.123  23.115   5.122  0.00  0.00    +0.158 C 
ATOM      6  C   UNL     1     -35.083  21.749   4.415  0.00  0.00    +0.144 C 
ENDROOT
BRANCH   2   7
ATOM      7  N   UNL     1     -35.198  25.441   4.089  0.00  0.00    -0.268 N 
ATOM      8  N   UNL     1     -33.861  27.142   4.630  0.00  0.00    -0.242 NA
ATOM      9  N   UNL     1     -36.467  26.466   2.290  0.00  0.00    -0.228 NA
ATOM     10  N   UNL     1     -35.754  28.768   1.900  0.00  0.00    -0.229 NA
ATOM     11  C   UNL     1     -35.530  26.467   3.249  0.00  0.00    +0.151 C 
ATOM     12  C   UNL     1     -34.191  25.897   4.900  0.00  0.00    +0.221 C 
ATOM     13  C   UNL     1     -34.690  27.511   3.601  0.00  0.00    +0.140 C 
ATOM     14  C   UNL     1     -34.826  28.696   2.885  0.00  0.00    +0.143 C 
ATOM     15  C   UNL     1     -36.506  27.665   1.667  0.00  0.00    +0.253 C 
ATOM     16  N   UNL     1     -34.014  29.806   3.173  0.00  0.00    -0.342 N 
ATOM     17  H   UNL     1     -34.119  30.640   2.659  0.00  0.00    +0.144 HD
ATOM     18  H   UNL     1     -33.340  29.750   3.888  0.00  0.00    +0.144 HD
ENDBRANCH   2   7
BRANCH   5  19
ATOM     19  O   UNL     1     -35.892  23.055   6.321  0.00  0.00    -0.380 OA
ATOM     20  H   UNL     1     -35.532  22.366   6.900  0.00  0.00    +0.211 HD
ENDBRANCH   5  19
BRANCH   6  21
ATOM     21  O   UNL     1     -35.391  20.680   5.288  0.00  0.00    -0.382 OA
ATOM     22  H   UNL     1     -34.607  20.123   5.407  0.00  0.00    +0.210 HD
ENDBRANCH   6  21
BRANCH   3  23
ATOM     23  C   UNL     1     -35.893  20.848   2.171  0.00  0.00    +0.142 C 
BRANCH  23  24
ATOM     24  O   UNL     1     -36.604  19.673   2.518  0.00  0.00    -0.382 OA
ATOM     25  H   UNL     1     -35.992  18.922   2.550  0.00  0.00    +0.210 HD
ENDBRANCH  23  24
ENDBRANCH   3  23
TORSDOF 5
ENDMDL
MODEL 4
REMARK VINA RESULT:      -6.0      3.500      6.374
REMARK  Name = 189917
REMARK  5 active torsions:
REMARK  status: ('A' for Active; 'I' for Inactive)
REMARK    1  A    between atoms: C_2  and  N_7
REMARK    2  A    between atoms: C_3  and  C_23
REMARK    3  A    between atoms: C_5  and  O_19
REMARK    4  A    between atoms: C_6  and  O_21
REMARK    5  A    between atoms: C_23  and  O_24
REMARK                            x       y       z     vdW  Elec       q    Type
REMARK                         _______ _______ _______ _____ _____    ______ ____
ROOT
ATOM      1  F   UNL     1     -37.091  23.649   1.108  0.00  0.00    -0.235 F 
ATOM      2  C   UNL     1     -36.103  23.197   3.218  0.00  0.00    +0.138 C 
ATOM      3  C   UNL     1     -38.029  21.981   2.462  0.00  0.00    +0.093 C 
ATOM      4  C   UNL     1     -37.399  23.369   2.405  0.00  0.00    +0.186 C 
ATOM      5  C   UNL     1     -35.649  21.749   2.867  0.00  0.00    +0.158 C 
ATOM      6  C   UNL     1     -36.830  21.091   2.131  0.00  0.00    +0.144 C 
ENDROOT
BRANCH   2   7
ATOM      7  N   UNL     1     -35.069  24.221   3.056  0.00  0.00    -0.268 N 
ATOM      8  N   UNL     1     -33.523  25.484   2.060  0.00  0.00    -0.242 NA
ATOM      9  N   UNL     1     -34.965  25.133   5.304  0.00  0.00    -0.228 NA
ATOM     10  N   UNL     1     -33.311  26.921   5.462  0.00  0.00    -0.229 NA
ATOM     11  C   UNL     1     -34.591  25.065   4.019  0.00  0.00    +0.151 C 
ATOM     12  C   UNL     1     -34.395  24.511   1.897  0.00  0.00    +0.221 C 
ATOM     13  C   UNL     1     -33.634  25.840   3.381  0.00  0.00    +0.140 C 
ATOM     14  C   UNL     1     -32.983  26.797   4.153  0.00  0.00    +0.143 C 
ATOM     15  C   UNL     1     -34.267  26.094   5.949  0.00  0.00    +0.253 C 
ATOM     16  N   UNL     1     -32.000  27.627   3.588  0.00  0.00    -0.342 N 
ATOM     17  H   UNL     1     -31.546  28.301   4.144  0.00  0.00    +0.144 HD
ATOM     18  H   UNL     1     -31.766  27.535   2.636  0.00  0.00    +0.144 HD
ENDBRANCH   2   7
BRANCH   5  19
ATOM     19  O   UNL     1     -35.332  21.049   4.067  0.00  0.00    -0.380 OA
ATOM     20  H   UNL     1     -36.085  20.495   4.326  0.00  0.00    +0.211 HD
ENDBRANCH   5  19
BRANCH   6  21
ATOM     21  O   UNL     1     -37.027  19.746   2.522  0.00  0.00    -0.382 OA
ATOM     22  H   UNL     1     -37.123  19.700   3.485  0.00  0.00    +0.210 HD
ENDBRANCH   6  21
BRANCH   3  23
ATOM     23  C   UNL     1     -39.193  21.810   1.497  0.00  0.00    +0.142 C 
BRANCH  23  24
ATOM     24  O   UNL     1     -40.112  20.886   2.052  0.00  0.00    -0.382 OA
ATOM     25  H   UNL     1     -40.492  20.341   1.344  0.00  0.00    +0.210 HD
ENDBRANCH  23  24
ENDBRANCH   3  23
TORSDOF 5
ENDMDL
MODEL 5
REMARK VINA RESULT:      -5.9      3.804      5.870
REMARK  Name = 189917
REMARK  5 active torsions:
REMARK  status: ('A' for Active; 'I' for Inactive)
REMARK    1  A    between atoms: C_2  and  N_7
REMARK    2  A    between atoms: C_3  and  C_23
REMARK    3  A    between atoms: C_5  and  O_19
REMARK    4  A    between atoms: C_6  and  O_21
REMARK    5  A    between atoms: C_23  and  O_24
REMARK                            x       y       z     vdW  Elec       q    Type
REMARK                         _______ _______ _______ _____ _____    ______ ____
ROOT
ATOM      1  F   UNL     1     -35.080  24.940   5.971  0.00  0.00    -0.235 F 
ATOM      2  C   UNL     1     -34.634  24.890   3.641  0.00  0.00    +0.138 C 
ATOM      3  C   UNL     1     -35.049  22.871   4.871  0.00  0.00    +0.093 C 
ATOM      4  C   UNL     1     -34.401  24.244   5.019  0.00  0.00    +0.186 C 
ATOM      5  C   UNL     1     -36.039  24.357   3.229  0.00  0.00    +0.158 C 
ATOM      6  C   UNL     1     -36.387  23.236   4.226  0.00  0.00    +0.144 C 
ENDROOT
BRANCH   2   7
ATOM      7  N   UNL     1     -34.478  26.342   3.546  0.00  0.00    -0.268 N 
ATOM      8  N   UNL     1     -33.654  28.381   3.926  0.00  0.00    -0.242 NA
ATOM      9  N   UNL     1     -36.237  26.894   1.966  0.00  0.00    -0.228 NA
ATOM     10  N   UNL     1     -36.314  29.293   1.524  0.00  0.00    -0.229 NA
ATOM     11  C   UNL     1     -35.219  27.200   2.782  0.00  0.00    +0.151 C 
ATOM     12  C   UNL     1     -33.551  27.100   4.216  0.00  0.00    +0.221 C 
ATOM     13  C   UNL     1     -34.692  28.458   3.032  0.00  0.00    +0.140 C 
ATOM     14  C   UNL     1     -35.278  29.529   2.366  0.00  0.00    +0.143 C 
ATOM     15  C   UNL     1     -36.723  28.010   1.378  0.00  0.00    +0.253 C 
ATOM     16  N   UNL     1     -34.807  30.838   2.558  0.00  0.00    -0.342 N 
ATOM     17  H   UNL     1     -35.230  31.589   2.081  0.00  0.00    +0.144 HD
ATOM     18  H   UNL     1     -34.054  31.006   3.169  0.00  0.00    +0.144 HD
ENDBRANCH   2   7
BRANCH   5  19
ATOM     19  O   UNL     1     -35.983  23.861   1.894  0.00  0.00    -0.380 OA
ATOM     20  H   UNL     1     -36.421  24.489   1.298  0.00  0.00    +0.211 HD
ENDBRANCH   5  19
BRANCH   6  21
ATOM     21  O   UNL     1     -37.008  22.131   3.601  0.00  0.00    -0.382 OA
ATOM     22  H   UNL     1     -37.948  22.323   3.464  0.00  0.00    +0.210 HD
ENDBRANCH   6  21
BRANCH   3  23
ATOM     23  C   UNL     1     -35.197  22.131   6.192  0.00  0.00    +0.142 C 
BRANCH  23  24
ATOM     24  O   UNL     1     -35.483  20.770   5.923  0.00  0.00    -0.382 OA
ATOM     25  H   UNL     1     -35.220  20.558   5.013  0.00  0.00    +0.210 HD
ENDBRANCH  23  24
ENDBRANCH   3  23
TORSDOF 5
ENDMDL
MODEL 6
REMARK VINA RESULT:      -5.8      3.730      6.570
REMARK  Name = 189917
REMARK  5 active torsions:
REMARK  status: ('A' for Active; 'I' for Inactive)
REMARK    1  A    between atoms: C_2  and  N_7
REMARK    2  A    between atoms: C_3  and  C_23
REMARK    3  A    between atoms: C_5  and  O_19
REMARK    4  A    between atoms: C_6  and  O_21
REMARK    5  A    between atoms: C_23  and  O_24
REMARK                            x       y       z     vdW  Elec       q    Type
REMARK                         _______ _______ _______ _____ _____    ______ ____
ROOT
ATOM      1  F   UNL     1     -34.395  23.464   4.036  0.00  0.00    -0.235 F 
ATOM      2  C   UNL     1     -35.251  25.648   3.677  0.00  0.00    +0.138 C 
ATOM      3  C   UNL     1     -36.168  23.750   2.529  0.00  0.00    +0.093 C 
ATOM      4  C   UNL     1     -34.846  24.298   3.058  0.00  0.00    +0.186 C 
ATOM      5  C   UNL     1     -36.660  25.359   4.276  0.00  0.00    +0.158 C 
ATOM      6  C   UNL     1     -37.093  23.989   3.723  0.00  0.00    +0.144 C 
ENDROOT
BRANCH   2   7
ATOM      7  N   UNL     1     -34.306  26.270   4.606  0.00  0.00    -0.268 N 
ATOM      8  N   UNL     1     -33.269  26.737   6.526  0.00  0.00    -0.242 NA
ATOM      9  N   UNL     1     -33.072  27.725   3.104  0.00  0.00    -0.228 NA
ATOM     10  N   UNL     1     -31.349  28.977   4.296  0.00  0.00    -0.229 NA
ATOM     11  C   UNL     1     -33.347  27.196   4.304  0.00  0.00    +0.151 C 
ATOM     12  C   UNL     1     -34.220  26.028   5.953  0.00  0.00    +0.221 C 
ATOM     13  C   UNL     1     -32.715  27.471   5.508  0.00  0.00    +0.140 C 
ATOM     14  C   UNL     1     -31.680  28.401   5.477  0.00  0.00    +0.143 C 
ATOM     15  C   UNL     1     -32.054  28.609   3.199  0.00  0.00    +0.253 C 
ATOM     16  N   UNL     1     -30.985  28.739   6.649  0.00  0.00    -0.342 N 
ATOM     17  H   UNL     1     -30.254  29.398   6.615  0.00  0.00    +0.144 HD
ATOM     18  H   UNL     1     -31.228  28.317   7.505  0.00  0.00    +0.144 HD
ENDBRANCH   2   7
BRANCH   5  19
ATOM     19  O   UNL     1     -37.563  26.387   3.877  0.00  0.00    -0.380 OA
ATOM     20  H   UNL     1     -38.456  26.168   4.183  0.00  0.00    +0.211 HD
ENDBRANCH   5  19
BRANCH   6  21
ATOM     21  O   UNL     1     -38.461  23.961   3.364  0.00  0.00    -0.382 OA
ATOM     22  H   UNL     1     -38.671  24.742   2.830  0.00  0.00    +0.210 HD
ENDBRANCH   6  21
BRANCH   3  23
ATOM     23  C   UNL     1     -36.088  22.289   2.110  0.00  0.00    +0.142 C 
BRANCH  23  24
ATOM     24  O   UNL     1     -36.763  21.502   3.075  0.00  0.00    -0.382 OA
ATOM     25  H   UNL     1     -37.653  21.860   3.219  0.00  0.00    +0.210 HD
ENDBRANCH  23  24
ENDBRANCH   3  23
TORSDOF 5
ENDMDL
MODEL 7
REMARK VINA RESULT:      -5.7      3.741      6.663
REMARK  Name = 189917
REMARK  5 active torsions:
REMARK  status: ('A' for Active; 'I' for Inactive)
REMARK    1  A    between atoms: C_2  and  N_7
REMARK    2  A    between atoms: C_3  and  C_23
REMARK    3  A    between atoms: C_5  and  O_19
REMARK    4  A    between atoms: C_6  and  O_21
REMARK    5  A    between atoms: C_23  and  O_24
REMARK                            x       y       z     vdW  Elec       q    Type
REMARK                         _______ _______ _______ _____ _____    ______ ____
ROOT
ATOM      1  F   UNL     1     -35.351  23.945   1.773  0.00  0.00    -0.235 F 
ATOM      2  C   UNL     1     -35.565  24.669   4.023  0.00  0.00    +0.138 C 
ATOM      3  C   UNL     1     -36.728  22.726   3.227  0.00  0.00    +0.093 C 
ATOM      4  C   UNL     1     -36.263  24.106   2.772  0.00  0.00    +0.186 C 
ATOM      5  C   UNL     1     -34.889  23.414   4.651  0.00  0.00    +0.158 C 
ATOM      6  C   UNL     1     -35.468  22.194   3.912  0.00  0.00    +0.144 C 
ENDROOT
BRANCH   2   7
ATOM      7  N   UNL     1     -34.675  25.816   3.836  0.00  0.00    -0.268 N 
ATOM      8  N   UNL     1     -33.586  27.463   2.797  0.00  0.00    -0.242 NA
ATOM      9  N   UNL     1     -33.856  26.139   6.099  0.00  0.00    -0.228 NA
ATOM     10  N   UNL     1     -32.297  28.014   6.220  0.00  0.00    -0.229 NA
ATOM     11  C   UNL     1     -33.929  26.442   4.795  0.00  0.00    +0.151 C 
ATOM     12  C   UNL     1     -34.434  26.466   2.653  0.00  0.00    +0.221 C 
ATOM     13  C   UNL     1     -33.262  27.460   4.131  0.00  0.00    +0.140 C 
ATOM     14  C   UNL     1     -32.420  28.263   4.893  0.00  0.00    +0.143 C 
ATOM     15  C   UNL     1     -33.012  26.983   6.733  0.00  0.00    +0.253 C 
ATOM     16  N   UNL     1     -31.706  29.318   4.302  0.00  0.00    -0.342 N 
ATOM     17  H   UNL     1     -31.113  29.880   4.852  0.00  0.00    +0.144 HD
ATOM     18  H   UNL     1     -31.799  29.497   3.339  0.00  0.00    +0.144 HD
ENDBRANCH   2   7
BRANCH   5  19
ATOM     19  O   UNL     1     -35.188  23.364   6.044  0.00  0.00    -0.380 OA
ATOM     20  H   UNL     1     -36.025  22.894   6.178  0.00  0.00    +0.211 HD
ENDBRANCH   5  19
BRANCH   6  21
ATOM     21  O   UNL     1     -35.739  21.113   4.784  0.00  0.00    -0.382 OA
ATOM     22  H   UNL     1     -36.400  21.385   5.439  0.00  0.00    +0.210 HD
ENDBRANCH   6  21
BRANCH   3  23
ATOM     23  C   UNL     1     -37.209  21.847   2.082  0.00  0.00    +0.142 C 
BRANCH  23  24
ATOM     24  O   UNL     1     -37.237  20.500   2.523  0.00  0.00    -0.382 OA
ATOM     25  H   UNL     1     -38.132  20.143   2.415  0.00  0.00    +0.210 HD
ENDBRANCH  23  24
ENDBRANCH   3  23
TORSDOF 5
ENDMDL
MODEL 8
REMARK VINA RESULT:      -5.7      3.742      6.687
REMARK  Name = 189917
REMARK  5 active torsions:
REMARK  status: ('A' for Active; 'I' for Inactive)
REMARK    1  A    between atoms: C_2  and  N_7
REMARK    2  A    between atoms: C_3  and  C_23
REMARK    3  A    between atoms: C_5  and  O_19
REMARK    4  A    between atoms: C_6  and  O_21
REMARK    5  A    between atoms: C_23  and  O_24
REMARK                            x       y       z     vdW  Elec       q    Type
REMARK                         _______ _______ _______ _____ _____    ______ ____
ROOT
ATOM      1  F   UNL     1     -38.143  22.568  -0.144  0.00  0.00    -0.235 F 
ATOM      2  C   UNL     1     -38.056  21.711   2.067  0.00  0.00    +0.138 C 
ATOM      3  C   UNL     1     -38.438  20.267   0.188  0.00  0.00    +0.093 C 
ATOM      4  C   UNL     1     -38.743  21.675   0.690  0.00  0.00    +0.186 C 
ATOM      5  C   UNL     1     -36.771  20.858   1.848  0.00  0.00    +0.158 C 
ATOM      6  C   UNL     1     -36.942  20.157   0.488  0.00  0.00    +0.144 C 
ENDROOT
BRANCH   2   7
ATOM      7  N   UNL     1     -37.824  23.026   2.666  0.00  0.00    -0.268 N 
ATOM      8  N   UNL     1     -38.016  25.221   3.018  0.00  0.00    -0.242 NA
ATOM      9  N   UNL     1     -36.179  22.476   4.366  0.00  0.00    -0.228 NA
ATOM     10  N   UNL     1     -35.509  24.455   5.627  0.00  0.00    -0.229 NA
ATOM     11  C   UNL     1     -36.973  23.321   3.694  0.00  0.00    +0.151 C 
ATOM     12  C   UNL     1     -38.426  24.201   2.293  0.00  0.00    +0.221 C 
ATOM     13  C   UNL     1     -37.108  24.686   3.897  0.00  0.00    +0.140 C 
ATOM     14  C   UNL     1     -36.336  25.251   4.907  0.00  0.00    +0.143 C 
ATOM     15  C   UNL     1     -35.482  23.136   5.317  0.00  0.00    +0.253 C 
ATOM     16  N   UNL     1     -36.410  26.627   5.183  0.00  0.00    -0.342 N 
ATOM     17  H   UNL     1     -35.859  27.015   5.900  0.00  0.00    +0.144 HD
ATOM     18  H   UNL     1     -37.012  27.202   4.659  0.00  0.00    +0.144 HD
ENDBRANCH   2   7
BRANCH   5  19
ATOM     19  O   UNL     1     -36.648  19.910   2.905  0.00  0.00    -0.380 OA
ATOM     20  H   UNL     1     -36.527  19.023   2.531  0.00  0.00    +0.211 HD
ENDBRANCH   5  19
BRANCH   6  21
ATOM     21  O   UNL     1     -36.490  18.818   0.509  0.00  0.00    -0.382 OA
ATOM     22  H   UNL     1     -36.613  18.449   1.398  0.00  0.00    +0.210 HD
ENDBRANCH   6  21
BRANCH   3  23
ATOM     23  C   UNL     1     -38.776  20.067  -1.282  0.00  0.00    +0.142 C 
BRANCH  23  24
ATOM     24  O   UNL     1     -37.568  19.968  -2.017  0.00  0.00    -0.382 OA
ATOM     25  H   UNL     1     -37.578  20.610  -2.744  0.00  0.00    +0.210 HD
ENDBRANCH  23  24
ENDBRANCH   3  23
TORSDOF 5
ENDMDL
MODEL 9
REMARK VINA RESULT:      -5.5      3.581      6.356
REMARK  Name = 189917
REMARK  5 active torsions:
REMARK  status: ('A' for Active; 'I' for Inactive)
REMARK    1  A    between atoms: C_2  and  N_7
REMARK    2  A    between atoms: C_3  and  C_23
REMARK    3  A    between atoms: C_5  and  O_19
REMARK    4  A    between atoms: C_6  and  O_21
REMARK    5  A    between atoms: C_23  and  O_24
REMARK                            x       y       z     vdW  Elec       q    Type
REMARK                         _______ _______ _______ _____ _____    ______ ____
ROOT
ATOM      1  F   UNL     1     -35.949  23.400   1.187  0.00  0.00    -0.235 F 
ATOM      2  C   UNL     1     -36.670  24.306   3.258  0.00  0.00    +0.138 C 
ATOM      3  C   UNL     1     -36.931  21.972   2.764  0.00  0.00    +0.093 C 
ATOM      4  C   UNL     1     -36.962  23.342   2.094  0.00  0.00    +0.186 C 
ATOM      5  C   UNL     1     -35.653  23.513   4.133  0.00  0.00    +0.158 C 
ATOM      6  C   UNL     1     -35.651  22.071   3.595  0.00  0.00    +0.144 C 
ENDROOT
BRANCH   2   7
ATOM      7  N   UNL     1     -36.253  25.666   2.914  0.00  0.00    -0.268 N 
ATOM      8  N   UNL     1     -36.245  27.650   1.892  0.00  0.00    -0.242 NA
ATOM      9  N   UNL     1     -34.358  25.960   4.404  0.00  0.00    -0.228 NA
ATOM     10  N   UNL     1     -33.349  28.165   4.134  0.00  0.00    -0.229 NA
ATOM     11  C   UNL     1     -35.211  26.367   3.454  0.00  0.00    +0.151 C 
ATOM     12  C   UNL     1     -36.842  26.480   1.980  0.00  0.00    +0.221 C 
ATOM     13  C   UNL     1     -35.224  27.594   2.807  0.00  0.00    +0.140 C 
ATOM     14  C   UNL     1     -34.246  28.511   3.179  0.00  0.00    +0.143 C 
ATOM     15  C   UNL     1     -33.459  26.930   4.680  0.00  0.00    +0.253 C 
ATOM     16  N   UNL     1     -34.185  29.778   2.577  0.00  0.00    -0.342 N 
ATOM     17  H   UNL     1     -33.489  30.419   2.848  0.00  0.00    +0.144 HD
ATOM     18  H   UNL     1     -34.839  30.026   1.884  0.00  0.00    +0.144 HD
ENDBRANCH   2   7
BRANCH   5  19
ATOM     19  O   UNL     1     -36.068  23.556   5.496  0.00  0.00    -0.380 OA
ATOM     20  H   UNL     1     -36.764  22.897   5.642  0.00  0.00    +0.211 HD
ENDBRANCH   5  19
BRANCH   6  21
ATOM     21  O   UNL     1     -35.600  21.109   4.630  0.00  0.00    -0.382 OA
ATOM     22  H   UNL     1     -35.914  21.506   5.457  0.00  0.00    +0.210 HD
ENDBRANCH   6  21
BRANCH   3  23
ATOM     23  C   UNL     1     -36.920  20.818   1.772  0.00  0.00    +0.142 C 
BRANCH  23  24
ATOM     24  O   UNL     1     -36.871  19.599   2.492  0.00  0.00    -0.382 OA
ATOM     25  H   UNL     1     -37.378  18.922   2.017  0.00  0.00    +0.210 HD
ENDBRANCH  23  24
ENDBRANCH   3  23
TORSDOF 5
ENDMDL
