MODEL 1
REMARK VINA RESULT:      -5.8      0.000      0.000
REMARK  Name = 196362
REMARK  5 active torsions:
REMARK  status: ('A' for Active; 'I' for Inactive)
REMARK    1  A    between atoms: C_1  and  N_5
REMARK    2  A    between atoms: C_1  and  C_15
REMARK    3  A    between atoms: N_14  and  CA_17
REMARK    4  A    between atoms: CA_17  and  C_20
REMARK    5  A    between atoms: C_20  and  O_21
REMARK                            x       y       z     vdW  Elec       q    Type
REMARK                         _______ _______ _______ _____ _____    ______ ____
ROOT
ATOM      1  C   UNL     1     -35.579  25.299   4.365  0.00  0.00    +0.157 C 
ATOM      2  C   UNL     1     -36.294  26.191   3.358  0.00  0.00    +0.032 C 
ENDROOT
BRANCH   1   5
ATOM      3  O   UNL     1     -35.925  23.035   6.061  0.00  0.00    -0.252 OA
ATOM      4  O   UNL     1     -35.674  20.120   2.514  0.00  0.00    -0.270 OA
ATOM      5  N   UNL     1     -35.610  23.910   3.922  0.00  0.00    -0.235 N 
ATOM      6  N   UNL     1     -35.798  21.592   4.283  0.00  0.00    -0.236 N 
ATOM      7  C   UNL     1     -35.461  23.662   2.572  0.00  0.00    +0.070 C 
ATOM      8  C   UNL     1     -35.788  22.873   4.847  0.00  0.00    +0.314 C 
ATOM      9  C   UNL     1     -35.471  22.435   2.036  0.00  0.00    +0.047 C 
ATOM     10  C   UNL     1     -35.655  21.271   2.943  0.00  0.00    +0.250 C 
ATOM     11  C   UNL     1     -35.308  22.171   0.575  0.00  0.00    +0.037 C 
ATOM     12  H   UNL     1     -35.921  20.840   4.906  0.00  0.00    +0.159 HD
ENDBRANCH   1   5
BRANCH   1  15
ATOM     13  O   UNL     1     -33.195  24.924   4.626  0.00  0.00    -0.273 OA
ATOM     14  N   UNL     1     -33.975  27.104   4.465  0.00  0.00    -0.295 N 
ATOM     15  C   ACE A   0     -34.122  25.723   4.505  0.00  0.00    +0.241 C 
ATOM     16  H   UNL     1     -34.781  27.660   4.364  0.00  0.00    +0.150 HD
BRANCH  14  17
ATOM     17  CA  UNL     1     -32.691  27.758   4.563  0.00  0.00    +0.171 C 
ATOM     18  CB  UNL     1     -32.671  29.027   3.726  0.00  0.00    +0.033 C 
BRANCH  17  20
ATOM     19  OXT UNL     1     -32.222  29.214   6.435  0.00  0.00    -0.248 OA
ATOM     20  C   UNL     1     -32.328  28.070   6.005  0.00  0.00    +0.332 C 
BRANCH  20  21
ATOM     21  O   UNL     1     -32.118  26.981   6.785  0.00  0.00    -0.479 OA
ATOM     22  H   UNL     1     -31.952  27.086   7.701  0.00  0.00    +0.295 HD
ENDBRANCH  20  21
ENDBRANCH  17  20
ENDBRANCH  14  17
ENDBRANCH   1  15
TORSDOF 5
ENDMDL
MODEL 2
REMARK VINA RESULT:      -5.8      1.716      2.156
REMARK  Name = 196362
REMARK  5 active torsions:
REMARK  status: ('A' for Active; 'I' for Inactive)
REMARK    1  A    between atoms: C_1  and  N_5
REMARK    2  A    between atoms: C_1  and  C_15
REMARK    3  A    between atoms: N_14  and  CA_17
REMARK    4  A    between atoms: CA_17  and  C_20
REMARK    5  A    between atoms: C_20  and  O_21
REMARK                            x       y       z     vdW  Elec       q    Type
REMARK                         _______ _______ _______ _____ _____    ______ ____
ROOT
ATOM      1  C   UNL     1     -34.547  26.318   3.170  0.00  0.00    +0.157 C 
ATOM      2  C   UNL     1     -34.572  25.966   1.687  0.00  0.00    +0.032 C 
ENDROOT
BRANCH   1   5
ATOM      3  O   UNL     1     -34.902  26.307   5.998  0.00  0.00    -0.252 OA
ATOM      4  O   UNL     1     -35.855  21.809   6.037  0.00  0.00    -0.270 OA
ATOM      5  N   UNL     1     -34.893  25.150   3.972  0.00  0.00    -0.235 N 
ATOM      6  N   UNL     1     -35.375  24.063   6.003  0.00  0.00    -0.236 N 
ATOM      7  C   UNL     1     -35.064  23.947   3.317  0.00  0.00    +0.070 C 
ATOM      8  C   UNL     1     -35.043  25.261   5.361  0.00  0.00    +0.314 C 
ATOM      9  C   UNL     1     -35.382  22.803   3.934  0.00  0.00    +0.047 C 
ATOM     10  C   UNL     1     -35.562  22.824   5.411  0.00  0.00    +0.250 C 
ATOM     11  C   UNL     1     -35.566  21.503   3.222  0.00  0.00    +0.037 C 
ATOM     12  H   UNL     1     -35.488  24.105   6.980  0.00  0.00    +0.159 HD
ENDBRANCH   1   5
BRANCH   1  15
ATOM     13  O   UNL     1     -32.123  26.216   3.226  0.00  0.00    -0.273 OA
ATOM     14  N   UNL     1     -33.200  27.921   4.375  0.00  0.00    -0.295 N 
ATOM     15  C   ACE A   0     -33.156  26.784   3.579  0.00  0.00    +0.241 C 
ATOM     16  H   UNL     1     -34.079  28.302   4.603  0.00  0.00    +0.150 HD
BRANCH  14  17
ATOM     17  CA  UNL     1     -32.013  28.568   4.883  0.00  0.00    +0.171 C 
ATOM     18  CB  UNL     1     -31.986  30.033   4.476  0.00  0.00    +0.033 C 
BRANCH  17  20
ATOM     19  OXT UNL     1     -31.678  29.390   7.132  0.00  0.00    -0.248 OA
ATOM     20  C   UNL     1     -31.904  28.437   6.393  0.00  0.00    +0.332 C 
BRANCH  20  21
ATOM     21  O   UNL     1     -32.064  27.177   6.865  0.00  0.00    -0.479 OA
ATOM     22  H   UNL     1     -32.728  26.622   6.506  0.00  0.00    +0.295 HD
ENDBRANCH  20  21
ENDBRANCH  17  20
ENDBRANCH  14  17
ENDBRANCH   1  15
TORSDOF 5
ENDMDL
MODEL 3
REMARK VINA RESULT:      -5.6      3.292      6.638
REMARK  Name = 196362
REMARK  5 active torsions:
REMARK  status: ('A' for Active; 'I' for Inactive)
REMARK    1  A    between atoms: C_1  and  N_5
REMARK    2  A    between atoms: C_1  and  C_15
REMARK    3  A    between atoms: N_14  and  CA_17
REMARK    4  A    between atoms: CA_17  and  C_20
REMARK    5  A    between atoms: C_20  and  O_21
REMARK                            x       y       z     vdW  Elec       q    Type
REMARK                         _______ _______ _______ _____ _____    ______ ____
ROOT
ATOM      1  C   UNL     1     -35.362  22.603   1.244  0.00  0.00    +0.157 C 
ATOM      2  C   UNL     1     -34.399  23.694   0.792  0.00  0.00    +0.032 C 
ENDROOT
BRANCH   1   5
ATOM      3  O   UNL     1     -35.748  20.188   2.709  0.00  0.00    -0.252 OA
ATOM      4  O   UNL     1     -35.267  22.351   6.739  0.00  0.00    -0.270 OA
ATOM      5  N   UNL     1     -35.346  22.486   2.698  0.00  0.00    -0.235 N 
ATOM      6  N   UNL     1     -35.506  21.280   4.712  0.00  0.00    -0.236 N 
ATOM      7  C   UNL     1     -35.127  23.634   3.433  0.00  0.00    +0.070 C 
ATOM      8  C   UNL     1     -35.547  21.244   3.313  0.00  0.00    +0.314 C 
ATOM      9  C   UNL     1     -35.088  23.665   4.770  0.00  0.00    +0.047 C 
ATOM     10  C   UNL     1     -35.292  22.391   5.511  0.00  0.00    +0.250 C 
ATOM     11  C   UNL     1     -34.851  24.909   5.562  0.00  0.00    +0.037 C 
ATOM     12  H   UNL     1     -35.645  20.423   5.177  0.00  0.00    +0.159 HD
ENDBRANCH   1   5
BRANCH   1  15
ATOM     13  O   UNL     1     -37.159  24.081   0.555  0.00  0.00    -0.273 OA
ATOM     14  N   UNL     1     -37.581  21.805   0.718  0.00  0.00    -0.295 N 
ATOM     15  C   ACE A   0     -36.783  22.938   0.807  0.00  0.00    +0.241 C 
ATOM     16  H   UNL     1     -37.186  20.931   0.942  0.00  0.00    +0.150 HD
BRANCH  14  17
ATOM     17  CA  UNL     1     -38.966  21.853   0.311  0.00  0.00    +0.171 C 
ATOM     18  CB  UNL     1     -39.350  20.584  -0.432  0.00  0.00    +0.033 C 
BRANCH  17  20
ATOM     19  OXT UNL     1     -40.355  23.172   1.787  0.00  0.00    -0.248 OA
ATOM     20  C   UNL     1     -39.893  22.074   1.495  0.00  0.00    +0.332 C 
BRANCH  20  21
ATOM     21  O   UNL     1     -40.164  20.960   2.217  0.00  0.00    -0.479 OA
ATOM     22  H   UNL     1     -39.820  20.131   1.948  0.00  0.00    +0.295 HD
ENDBRANCH  20  21
ENDBRANCH  17  20
ENDBRANCH  14  17
ENDBRANCH   1  15
TORSDOF 5
ENDMDL
MODEL 4
REMARK VINA RESULT:      -5.5      2.772      6.816
REMARK  Name = 196362
REMARK  5 active torsions:
REMARK  status: ('A' for Active; 'I' for Inactive)
REMARK    1  A    between atoms: C_1  and  N_5
REMARK    2  A    between atoms: C_1  and  C_15
REMARK    3  A    between atoms: N_14  and  CA_17
REMARK    4  A    between atoms: CA_17  and  C_20
REMARK    5  A    between atoms: C_20  and  O_21
REMARK                            x       y       z     vdW  Elec       q    Type
REMARK                         _______ _______ _______ _____ _____    ______ ____
ROOT
ATOM      1  C   UNL     1     -36.096  22.197   3.327  0.00  0.00    +0.157 C 
ATOM      2  C   UNL     1     -35.173  21.644   2.248  0.00  0.00    +0.032 C 
ENDROOT
BRANCH   1   5
ATOM      3  O   UNL     1     -36.014  22.689   6.134  0.00  0.00    -0.252 OA
ATOM      4  O   UNL     1     -33.759  26.655   5.548  0.00  0.00    -0.270 OA
ATOM      5  N   UNL     1     -35.490  23.362   3.962  0.00  0.00    -0.235 N 
ATOM      6  N   UNL     1     -34.889  24.665   5.827  0.00  0.00    -0.236 N 
ATOM      7  C   UNL     1     -34.906  24.309   3.145  0.00  0.00    +0.070 C 
ATOM      8  C   UNL     1     -35.507  23.501   5.356  0.00  0.00    +0.314 C 
ATOM      9  C   UNL     1     -34.316  25.421   3.599  0.00  0.00    +0.047 C 
ATOM     10  C   UNL     1     -34.285  25.654   5.068  0.00  0.00    +0.250 C 
ATOM     11  C   UNL     1     -33.685  26.444   2.711  0.00  0.00    +0.037 C 
ATOM     12  H   UNL     1     -34.884  24.795   6.803  0.00  0.00    +0.159 HD
ENDBRANCH   1   5
BRANCH   1  15
ATOM     13  O   UNL     1     -38.176  23.445   3.242  0.00  0.00    -0.273 OA
ATOM     14  N   UNL     1     -37.673  21.986   1.509  0.00  0.00    -0.295 N 
ATOM     15  C   ACE A   0     -37.426  22.623   2.718  0.00  0.00    +0.241 C 
ATOM     16  H   UNL     1     -37.009  21.341   1.172  0.00  0.00    +0.150 HD
BRANCH  14  17
ATOM     17  CA  UNL     1     -38.861  22.227   0.725  0.00  0.00    +0.171 C 
ATOM     18  CB  UNL     1     -38.562  22.083  -0.759  0.00  0.00    +0.033 C 
BRANCH  17  20
ATOM     19  OXT UNL     1     -40.826  20.874   0.329  0.00  0.00    -0.248 OA
ATOM     20  C   UNL     1     -39.998  21.303   1.128  0.00  0.00    +0.332 C 
BRANCH  20  21
ATOM     21  O   UNL     1     -40.037  20.995   2.446  0.00  0.00    -0.479 OA
ATOM     22  H   UNL     1     -39.467  20.336   2.791  0.00  0.00    +0.295 HD
ENDBRANCH  20  21
ENDBRANCH  17  20
ENDBRANCH  14  17
ENDBRANCH   1  15
TORSDOF 5
ENDMDL
MODEL 5
REMARK VINA RESULT:      -5.4      2.090      2.726
REMARK  Name = 196362
REMARK  5 active torsions:
REMARK  status: ('A' for Active; 'I' for Inactive)
REMARK    1  A    between atoms: C_1  and  N_5
REMARK    2  A    between atoms: C_1  and  C_15
REMARK    3  A    between atoms: N_14  and  CA_17
REMARK    4  A    between atoms: CA_17  and  C_20
REMARK    5  A    between atoms: C_20  and  O_21
REMARK                            x       y       z     vdW  Elec       q    Type
REMARK                         _______ _______ _______ _____ _____    ______ ____
ROOT
ATOM      1  C   UNL     1     -36.921  26.016   3.070  0.00  0.00    +0.157 C 
ATOM      2  C   UNL     1     -37.811  25.435   1.979  0.00  0.00    +0.032 C 
ENDROOT
BRANCH   1   5
ATOM      3  O   UNL     1     -35.907  26.290   5.719  0.00  0.00    -0.252 OA
ATOM      4  O   UNL     1     -34.698  21.856   5.900  0.00  0.00    -0.270 OA
ATOM      5  N   UNL     1     -36.324  24.946   3.859  0.00  0.00    -0.235 N 
ATOM      6  N   UNL     1     -35.309  24.076   5.796  0.00  0.00    -0.236 N 
ATOM      7  C   UNL     1     -36.238  23.694   3.284  0.00  0.00    +0.070 C 
ATOM      8  C   UNL     1     -35.857  25.194   5.156  0.00  0.00    +0.314 C 
ATOM      9  C   UNL     1     -35.713  22.627   3.899  0.00  0.00    +0.047 C 
ATOM     10  C   UNL     1     -35.191  22.795   5.281  0.00  0.00    +0.250 C 
ATOM     11  C   UNL     1     -35.622  21.273   3.272  0.00  0.00    +0.037 C 
ATOM     12  H   UNL     1     -34.970  24.216   6.710  0.00  0.00    +0.159 HD
ENDBRANCH   1   5
BRANCH   1  15
ATOM     13  O   UNL     1     -35.216  26.517   1.418  0.00  0.00    -0.273 OA
ATOM     14  N   UNL     1     -35.528  27.987   3.186  0.00  0.00    -0.295 N 
ATOM     15  C   ACE A   0     -35.798  26.839   2.452  0.00  0.00    +0.241 C 
ATOM     16  H   UNL     1     -36.051  28.157   4.002  0.00  0.00    +0.150 HD
BRANCH  14  17
ATOM     17  CA  UNL     1     -34.515  28.942   2.801  0.00  0.00    +0.171 C 
ATOM     18  CB  UNL     1     -35.034  30.363   2.951  0.00  0.00    +0.033 C 
BRANCH  17  20
ATOM     19  OXT UNL     1     -32.171  29.277   3.288  0.00  0.00    -0.248 OA
ATOM     20  C   UNL     1     -33.237  28.759   3.603  0.00  0.00    +0.332 C 
BRANCH  20  21
ATOM     21  O   UNL     1     -33.362  27.965   4.694  0.00  0.00    -0.479 OA
ATOM     22  H   UNL     1     -33.659  28.327   5.506  0.00  0.00    +0.295 HD
ENDBRANCH  20  21
ENDBRANCH  17  20
ENDBRANCH  14  17
ENDBRANCH   1  15
TORSDOF 5
ENDMDL
MODEL 6
REMARK VINA RESULT:      -5.4      3.835      5.510
REMARK  Name = 196362
REMARK  5 active torsions:
REMARK  status: ('A' for Active; 'I' for Inactive)
REMARK    1  A    between atoms: C_1  and  N_5
REMARK    2  A    between atoms: C_1  and  C_15
REMARK    3  A    between atoms: N_14  and  CA_17
REMARK    4  A    between atoms: CA_17  and  C_20
REMARK    5  A    between atoms: C_20  and  O_21
REMARK                            x       y       z     vdW  Elec       q    Type
REMARK                         _______ _______ _______ _____ _____    ______ ____
ROOT
ATOM      1  C   UNL     1     -34.728  21.890   0.160  0.00  0.00    +0.157 C 
ATOM      2  C   UNL     1     -34.145  22.549  -1.084  0.00  0.00    +0.032 C 
ENDROOT
BRANCH   1   5
ATOM      3  O   UNL     1     -35.650  19.710   1.747  0.00  0.00    -0.252 OA
ATOM      4  O   UNL     1     -31.593  17.563   1.468  0.00  0.00    -0.270 OA
ATOM      5  N   UNL     1     -33.936  20.724   0.533  0.00  0.00    -0.235 N 
ATOM      6  N   UNL     1     -33.621  18.650   1.600  0.00  0.00    -0.236 N 
ATOM      7  C   UNL     1     -32.632  20.662   0.085  0.00  0.00    +0.070 C 
ATOM      8  C   UNL     1     -34.494  19.708   1.319  0.00  0.00    +0.314 C 
ATOM      9  C   UNL     1     -31.800  19.649   0.355  0.00  0.00    +0.047 C 
ATOM     10  C   UNL     1     -32.306  18.523   1.185  0.00  0.00    +0.250 C 
ATOM     11  C   UNL     1     -30.389  19.586  -0.131  0.00  0.00    +0.037 C 
ATOM     12  H   UNL     1     -33.982  17.919   2.152  0.00  0.00    +0.159 HD
ENDBRANCH   1   5
BRANCH   1  15
ATOM     13  O   UNL     1     -33.968  23.841   1.388  0.00  0.00    -0.273 OA
ATOM     14  N   UNL     1     -35.657  22.534   2.295  0.00  0.00    -0.295 N 
ATOM     15  C   ACE A   0     -34.718  22.868   1.329  0.00  0.00    +0.241 C 
ATOM     16  H   UNL     1     -36.212  21.733   2.156  0.00  0.00    +0.150 HD
BRANCH  14  17
ATOM     17  CA  UNL     1     -35.855  23.312   3.496  0.00  0.00    +0.171 C 
ATOM     18  CB  UNL     1     -37.180  24.057   3.440  0.00  0.00    +0.033 C 
BRANCH  17  20
ATOM     19  OXT UNL     1     -35.919  22.897   5.878  0.00  0.00    -0.248 OA
ATOM     20  C   UNL     1     -35.788  22.447   4.744  0.00  0.00    +0.332 C 
BRANCH  20  21
ATOM     21  O   UNL     1     -35.560  21.132   4.510  0.00  0.00    -0.479 OA
ATOM     22  H   UNL     1     -36.245  20.591   4.168  0.00  0.00    +0.295 HD
ENDBRANCH  20  21
ENDBRANCH  17  20
ENDBRANCH  14  17
ENDBRANCH   1  15
TORSDOF 5
ENDMDL
MODEL 7
REMARK VINA RESULT:      -5.3      2.400      3.215
REMARK  Name = 196362
REMARK  5 active torsions:
REMARK  status: ('A' for Active; 'I' for Inactive)
REMARK    1  A    between atoms: C_1  and  N_5
REMARK    2  A    between atoms: C_1  and  C_15
REMARK    3  A    between atoms: N_14  and  CA_17
REMARK    4  A    between atoms: CA_17  and  C_20
REMARK    5  A    between atoms: C_20  and  O_21
REMARK                            x       y       z     vdW  Elec       q    Type
REMARK                         _______ _______ _______ _____ _____    ______ ____
ROOT
ATOM      1  C   UNL     1     -35.306  22.816   3.845  0.00  0.00    +0.157 C 
ATOM      2  C   UNL     1     -35.560  23.152   5.309  0.00  0.00    +0.032 C 
ENDROOT
BRANCH   1   5
ATOM      3  O   UNL     1     -35.820  20.253   2.708  0.00  0.00    -0.252 OA
ATOM      4  O   UNL     1     -40.064  21.478   1.430  0.00  0.00    -0.270 OA
ATOM      5  N   UNL     1     -36.549  22.415   3.195  0.00  0.00    -0.235 N 
ATOM      6  N   UNL     1     -37.935  20.877   2.076  0.00  0.00    -0.236 N 
ATOM      7  C   UNL     1     -37.565  23.347   3.120  0.00  0.00    +0.070 C 
ATOM      8  C   UNL     1     -36.692  21.124   2.670  0.00  0.00    +0.314 C 
ATOM      9  C   UNL     1     -38.753  23.107   2.551  0.00  0.00    +0.047 C 
ATOM     10  C   UNL     1     -38.996  21.761   1.966  0.00  0.00    +0.250 C 
ATOM     11  C   UNL     1     -39.850  24.118   2.471  0.00  0.00    +0.037 C 
ATOM     12  H   UNL     1     -38.069  19.979   1.696  0.00  0.00    +0.159 HD
ENDBRANCH   1   5
BRANCH   1  15
ATOM     13  O   UNL     1     -34.488  24.033   1.911  0.00  0.00    -0.273 OA
ATOM     14  N   UNL     1     -34.606  25.126   3.955  0.00  0.00    -0.295 N 
ATOM     15  C   ACE A   0     -34.754  24.032   3.112  0.00  0.00    +0.241 C 
ATOM     16  H   UNL     1     -34.848  25.025   4.904  0.00  0.00    +0.150 HD
BRANCH  14  17
ATOM     17  CA  UNL     1     -34.113  26.405   3.499  0.00  0.00    +0.171 C 
ATOM     18  CB  UNL     1     -35.254  27.264   2.979  0.00  0.00    +0.033 C 
BRANCH  17  20
ATOM     19  OXT UNL     1     -32.946  26.584   5.609  0.00  0.00    -0.248 OA
ATOM     20  C   UNL     1     -33.355  27.137   4.594  0.00  0.00    +0.332 C 
BRANCH  20  21
ATOM     21  O   UNL     1     -33.173  28.461   4.367  0.00  0.00    -0.479 OA
ATOM     22  H   UNL     1     -33.565  28.867   3.620  0.00  0.00    +0.295 HD
ENDBRANCH  20  21
ENDBRANCH  17  20
ENDBRANCH  14  17
ENDBRANCH   1  15
TORSDOF 5
ENDMDL
MODEL 8
REMARK VINA RESULT:      -5.3      2.728      4.333
REMARK  Name = 196362
REMARK  5 active torsions:
REMARK  status: ('A' for Active; 'I' for Inactive)
REMARK    1  A    between atoms: C_1  and  N_5
REMARK    2  A    between atoms: C_1  and  C_15
REMARK    3  A    between atoms: N_14  and  CA_17
REMARK    4  A    between atoms: CA_17  and  C_20
REMARK    5  A    between atoms: C_20  and  O_21
REMARK                            x       y       z     vdW  Elec       q    Type
REMARK                         _______ _______ _______ _____ _____    ______ ____
ROOT
ATOM      1  C   UNL     1     -36.205  23.378   1.378  0.00  0.00    +0.157 C 
ATOM      2  C   UNL     1     -34.848  24.055   1.226  0.00  0.00    +0.032 C 
ENDROOT
BRANCH   1   5
ATOM      3  O   UNL     1     -38.123  22.036  -0.247  0.00  0.00    -0.252 OA
ATOM      4  O   UNL     1     -35.738  18.106  -0.122  0.00  0.00    -0.270 OA
ATOM      5  N   UNL     1     -36.125  21.985   0.956  0.00  0.00    -0.235 N 
ATOM      6  N   UNL     1     -36.923  20.082  -0.177  0.00  0.00    -0.236 N 
ATOM      7  C   UNL     1     -35.035  21.248   1.373  0.00  0.00    +0.070 C 
ATOM      8  C   UNL     1     -37.129  21.427   0.153  0.00  0.00    +0.314 C 
ATOM      9  C   UNL     1     -34.841  19.962   1.055  0.00  0.00    +0.047 C 
ATOM     10  C   UNL     1     -35.857  19.284   0.205  0.00  0.00    +0.250 C 
ATOM     11  C   UNL     1     -33.660  19.167   1.509  0.00  0.00    +0.037 C 
ATOM     12  H   UNL     1     -37.611  19.659  -0.740  0.00  0.00    +0.159 HD
ENDBRANCH   1   5
BRANCH   1  15
ATOM     13  O   UNL     1     -37.674  22.862   3.240  0.00  0.00    -0.273 OA
ATOM     14  N   UNL     1     -35.762  24.116   3.636  0.00  0.00    -0.295 N 
ATOM     15  C   ACE A   0     -36.650  23.411   2.835  0.00  0.00    +0.241 C 
ATOM     16  H   UNL     1     -34.968  24.521   3.216  0.00  0.00    +0.150 HD
BRANCH  14  17
ATOM     17  CA  UNL     1     -35.951  24.282   5.058  0.00  0.00    +0.171 C 
ATOM     18  CB  UNL     1     -35.158  23.238   5.829  0.00  0.00    +0.033 C 
BRANCH  17  20
ATOM     19  OXT UNL     1     -34.484  25.945   6.022  0.00  0.00    -0.248 OA
ATOM     20  C   UNL     1     -35.571  25.679   5.517  0.00  0.00    +0.332 C 
BRANCH  20  21
ATOM     21  O   UNL     1     -36.533  26.616   5.337  0.00  0.00    -0.479 OA
ATOM     22  H   UNL     1     -37.223  26.707   5.964  0.00  0.00    +0.295 HD
ENDBRANCH  20  21
ENDBRANCH  17  20
ENDBRANCH  14  17
ENDBRANCH   1  15
TORSDOF 5
ENDMDL
MODEL 9
REMARK VINA RESULT:      -5.3      3.277      5.458
REMARK  Name = 196362
REMARK  5 active torsions:
REMARK  status: ('A' for Active; 'I' for Inactive)
REMARK    1  A    between atoms: C_1  and  N_5
REMARK    2  A    between atoms: C_1  and  C_15
REMARK    3  A    between atoms: N_14  and  CA_17
REMARK    4  A    between atoms: CA_17  and  C_20
REMARK    5  A    between atoms: C_20  and  O_21
REMARK                            x       y       z     vdW  Elec       q    Type
REMARK                         _______ _______ _______ _____ _____    ______ ____
ROOT
ATOM      1  C   UNL     1     -35.633  23.177   1.316  0.00  0.00    +0.157 C 
ATOM      2  C   UNL     1     -34.302  23.672   0.762  0.00  0.00    +0.032 C 
ENDROOT
BRANCH   1   5
ATOM      3  O   UNL     1     -35.953  20.602   2.495  0.00  0.00    -0.252 OA
ATOM      4  O   UNL     1     -35.126  22.238   6.713  0.00  0.00    -0.270 OA
ATOM      5  N   UNL     1     -35.509  22.879   2.738  0.00  0.00    -0.235 N 
ATOM      6  N   UNL     1     -35.539  21.431   4.593  0.00  0.00    -0.236 N 
ATOM      7  C   UNL     1     -35.213  23.924   3.590  0.00  0.00    +0.070 C 
ATOM      8  C   UNL     1     -35.687  21.571   3.208  0.00  0.00    +0.314 C 
ATOM      9  C   UNL     1     -35.072  23.786   4.914  0.00  0.00    +0.047 C 
ATOM     10  C   UNL     1     -35.243  22.432   5.505  0.00  0.00    +0.250 C 
ATOM     11  C   UNL     1     -34.751  24.919   5.834  0.00  0.00    +0.037 C 
ATOM     12  H   UNL     1     -35.659  20.525   4.958  0.00  0.00    +0.159 HD
ENDBRANCH   1   5
BRANCH   1  15
ATOM     13  O   UNL     1     -36.500  25.326   0.596  0.00  0.00    -0.273 OA
ATOM     14  N   UNL     1     -37.931  23.839   1.658  0.00  0.00    -0.295 N 
ATOM     15  C   ACE A   0     -36.706  24.243   1.142  0.00  0.00    +0.241 C 
ATOM     16  H   UNL     1     -37.995  22.951   2.077  0.00  0.00    +0.150 HD
BRANCH  14  17
ATOM     17  CA  UNL     1     -39.114  24.666   1.605  0.00  0.00    +0.171 C 
ATOM     18  CB  UNL     1     -40.348  23.818   1.343  0.00  0.00    +0.033 C 
BRANCH  17  20
ATOM     19  OXT UNL     1     -39.865  26.560   2.907  0.00  0.00    -0.248 OA
ATOM     20  C   UNL     1     -39.291  25.476   2.879  0.00  0.00    +0.332 C 
BRANCH  20  21
ATOM     21  O   UNL     1     -38.753  24.913   3.987  0.00  0.00    -0.479 OA
ATOM     22  H   UNL     1     -39.019  24.055   4.254  0.00  0.00    +0.295 HD
ENDBRANCH  20  21
ENDBRANCH  17  20
ENDBRANCH  14  17
ENDBRANCH   1  15
TORSDOF 5
ENDMDL
