MODEL 1
REMARK VINA RESULT:      -6.3      0.000      0.000
REMARK  Name = 5328760
REMARK  8 active torsions:
REMARK  status: ('A' for Active; 'I' for Inactive)
REMARK    1  A    between atoms: C_1  and  C_3
REMARK    2  A    between atoms: C_2  and  C_14
REMARK    3  A    between atoms: C_2  and  C_26
REMARK    4  A    between atoms: C_6  and  O_9
REMARK    5  A    between atoms: C_7  and  O_11
REMARK    6  A    between atoms: C_14  and  C_15
REMARK    7  A    between atoms: C_18  and  O_21
REMARK    8  A    between atoms: C_19  and  O_23
REMARK                            x       y       z     vdW  Elec       q    Type
REMARK                         _______ _______ _______ _____ _____    ______ ____
ROOT
ATOM      1  C   UNL     1     -35.446  21.757   3.009  0.00  0.00    +0.014 C 
ATOM      2  C   UNL     1     -35.083  21.626   1.709  0.00  0.00    +0.107 C 
ENDROOT
BRANCH   1   3
ATOM      3  C   UNL     1     -35.729  23.005   3.699  0.00  0.00    +0.004 C 
ATOM      4  C   UNL     1     -36.907  23.701   3.428  0.00  0.00    +0.040 C 
ATOM      5  C   UNL     1     -34.821  23.507   4.633  0.00  0.00    +0.003 C 
ATOM      6  C   UNL     1     -37.178  24.899   4.089  0.00  0.00    +0.167 C 
ATOM      7  C   UNL     1     -36.270  25.401   5.023  0.00  0.00    +0.167 C 
ATOM      8  C   UNL     1     -35.092  24.705   5.294  0.00  0.00    +0.040 C 
BRANCH   6   9
ATOM      9  O   UNL     1     -38.331  25.571   3.816  0.00  0.00    -0.503 OA
ATOM     10  H   UNL     1     -38.508  26.388   4.239  0.00  0.00    +0.292 HD
ENDBRANCH   6   9
BRANCH   7  11
ATOM     11  O   UNL     1     -36.524  26.568   5.677  0.00  0.00    -0.503 OA
ATOM     12  H   UNL     1     -36.732  26.557   6.591  0.00  0.00    +0.292 HD
ENDBRANCH   7  11
ENDBRANCH   1   3
BRANCH   2  14
ATOM     13  O   UNL     1     -35.860  19.490   0.949  0.00  0.00    -0.286 OA
ATOM     14  C   UNL     1     -34.911  20.230   1.191  0.00  0.00    +0.205 C 
BRANCH  14  15
ATOM     15  C   UNL     1     -33.541  19.731   0.941  0.00  0.00    +0.043 C 
ATOM     16  C   UNL     1     -32.673  20.501   0.189  0.00  0.00    +0.043 C 
ATOM     17  C   UNL     1     -33.163  18.508   1.463  0.00  0.00    +0.007 C 
ATOM     18  C   UNL     1     -31.381  20.031  -0.049  0.00  0.00    +0.168 C 
ATOM     19  C   UNL     1     -30.981  18.799   0.470  0.00  0.00    +0.167 C 
ATOM     20  C   UNL     1     -31.873  18.038   1.226  0.00  0.00    +0.040 C 
BRANCH  18  21
ATOM     21  O   UNL     1     -30.519  20.782  -0.789  0.00  0.00    -0.503 OA
ATOM     22  H   UNL     1     -30.110  20.414  -1.548  0.00  0.00    +0.292 HD
ENDBRANCH  18  21
BRANCH  19  23
ATOM     23  O   UNL     1     -29.722  18.328   0.246  0.00  0.00    -0.503 OA
ATOM     24  H   UNL     1     -29.451  17.517   0.629  0.00  0.00    +0.292 HD
ENDBRANCH  19  23
ENDBRANCH  14  15
ENDBRANCH   2  14
BRANCH   2  26
ATOM     25  N   UNL     1     -34.812  23.663   0.138  0.00  0.00    -0.191 NA
ATOM     26  C   UNL     1     -34.934  22.750   0.845  0.00  0.00    +0.104 C 
ENDBRANCH   2  26
TORSDOF 8
ENDMDL
MODEL 2
REMARK VINA RESULT:      -6.3      1.556      2.064
REMARK  Name = 5328760
REMARK  8 active torsions:
REMARK  status: ('A' for Active; 'I' for Inactive)
REMARK    1  A    between atoms: C_1  and  C_3
REMARK    2  A    between atoms: C_2  and  C_14
REMARK    3  A    between atoms: C_2  and  C_26
REMARK    4  A    between atoms: C_6  and  O_9
REMARK    5  A    between atoms: C_7  and  O_11
REMARK    6  A    between atoms: C_14  and  C_15
REMARK    7  A    between atoms: C_18  and  O_21
REMARK    8  A    between atoms: C_19  and  O_23
REMARK                            x       y       z     vdW  Elec       q    Type
REMARK                         _______ _______ _______ _____ _____    ______ ____
ROOT
ATOM      1  C   UNL     1     -35.385  21.991   2.533  0.00  0.00    +0.014 C 
ATOM      2  C   UNL     1     -36.314  21.223   1.913  0.00  0.00    +0.107 C 
ENDROOT
BRANCH   1   3
ATOM      3  C   UNL     1     -35.649  23.166   3.348  0.00  0.00    +0.004 C 
ATOM      4  C   UNL     1     -36.081  24.349   2.747  0.00  0.00    +0.040 C 
ATOM      5  C   UNL     1     -35.470  23.111   4.730  0.00  0.00    +0.003 C 
ATOM      6  C   UNL     1     -36.334  25.476   3.528  0.00  0.00    +0.167 C 
ATOM      7  C   UNL     1     -36.154  25.421   4.911  0.00  0.00    +0.167 C 
ATOM      8  C   UNL     1     -35.722  24.239   5.511  0.00  0.00    +0.040 C 
BRANCH   6   9
ATOM      9  O   UNL     1     -36.755  26.626   2.931  0.00  0.00    -0.503 OA
ATOM     10  H   UNL     1     -36.698  27.440   3.391  0.00  0.00    +0.292 HD
ENDBRANCH   6   9
BRANCH   7  11
ATOM     11  O   UNL     1     -36.400  26.515   5.685  0.00  0.00    -0.503 OA
ATOM     12  H   UNL     1     -36.222  27.373   5.354  0.00  0.00    +0.292 HD
ENDBRANCH   7  11
ENDBRANCH   1   3
BRANCH   2  14
ATOM     13  O   UNL     1     -36.557  19.109   0.810  0.00  0.00    -0.286 OA
ATOM     14  C   UNL     1     -35.815  20.014   1.181  0.00  0.00    +0.205 C 
BRANCH  14  15
ATOM     15  C   UNL     1     -34.372  19.919   0.872  0.00  0.00    +0.043 C 
ATOM     16  C   UNL     1     -33.642  18.863   1.388  0.00  0.00    +0.043 C 
ATOM     17  C   UNL     1     -33.787  20.887   0.077  0.00  0.00    +0.007 C 
ATOM     18  C   UNL     1     -32.280  18.773   1.098  0.00  0.00    +0.168 C 
ATOM     19  C   UNL     1     -31.672  19.741   0.298  0.00  0.00    +0.167 C 
ATOM     20  C   UNL     1     -32.426  20.798  -0.213  0.00  0.00    +0.040 C 
BRANCH  18  21
ATOM     21  O   UNL     1     -31.554  17.737   1.602  0.00  0.00    -0.503 OA
ATOM     22  H   UNL     1     -31.196  17.091   1.025  0.00  0.00    +0.292 HD
ENDBRANCH  18  21
BRANCH  19  23
ATOM     23  O   UNL     1     -30.344  19.664   0.007  0.00  0.00    -0.503 OA
ATOM     24  H   UNL     1     -29.985  18.869  -0.336  0.00  0.00    +0.292 HD
ENDBRANCH  19  23
ENDBRANCH  14  15
ENDBRANCH   2  14
BRANCH   2  26
ATOM     25  N   UNL     1     -38.846  21.728   2.066  0.00  0.00    -0.191 NA
ATOM     26  C   UNL     1     -37.710  21.501   2.000  0.00  0.00    +0.104 C 
ENDBRANCH   2  26
TORSDOF 8
ENDMDL
MODEL 3
REMARK VINA RESULT:      -6.2      4.369      6.588
REMARK  Name = 5328760
REMARK  8 active torsions:
REMARK  status: ('A' for Active; 'I' for Inactive)
REMARK    1  A    between atoms: C_1  and  C_3
REMARK    2  A    between atoms: C_2  and  C_14
REMARK    3  A    between atoms: C_2  and  C_26
REMARK    4  A    between atoms: C_6  and  O_9
REMARK    5  A    between atoms: C_7  and  O_11
REMARK    6  A    between atoms: C_14  and  C_15
REMARK    7  A    between atoms: C_18  and  O_21
REMARK    8  A    between atoms: C_19  and  O_23
REMARK                            x       y       z     vdW  Elec       q    Type
REMARK                         _______ _______ _______ _____ _____    ______ ____
ROOT
ATOM      1  C   UNL     1     -33.809  27.282   4.095  0.00  0.00    +0.014 C 
ATOM      2  C   UNL     1     -33.626  26.224   3.269  0.00  0.00    +0.107 C 
ENDROOT
BRANCH   1   3
ATOM      3  C   UNL     1     -32.809  28.277   4.449  0.00  0.00    +0.004 C 
ATOM      4  C   UNL     1     -32.071  28.138   5.625  0.00  0.00    +0.040 C 
ATOM      5  C   UNL     1     -32.588  29.371   3.612  0.00  0.00    +0.003 C 
ATOM      6  C   UNL     1     -31.112  29.092   5.963  0.00  0.00    +0.167 C 
ATOM      7  C   UNL     1     -30.891  30.187   5.126  0.00  0.00    +0.167 C 
ATOM      8  C   UNL     1     -31.630  30.326   3.951  0.00  0.00    +0.040 C 
BRANCH   6   9
ATOM      9  O   UNL     1     -30.398  28.946   7.114  0.00  0.00    -0.503 OA
ATOM     10  H   UNL     1     -29.541  28.566   7.087  0.00  0.00    +0.292 HD
ENDBRANCH   6   9
BRANCH   7  11
ATOM     11  O   UNL     1     -29.956  31.125   5.445  0.00  0.00    -0.503 OA
ATOM     12  H   UNL     1     -30.222  31.946   5.809  0.00  0.00    +0.292 HD
ENDBRANCH   7  11
ENDBRANCH   1   3
BRANCH   2  14
ATOM     13  O   UNL     1     -35.655  25.642   2.134  0.00  0.00    -0.286 OA
ATOM     14  C   UNL     1     -34.823  25.364   2.993  0.00  0.00    +0.205 C 
BRANCH  14  15
ATOM     15  C   UNL     1     -34.997  24.120   3.773  0.00  0.00    +0.043 C 
ATOM     16  C   UNL     1     -35.338  22.954   3.112  0.00  0.00    +0.043 C 
ATOM     17  C   UNL     1     -34.816  24.153   5.144  0.00  0.00    +0.007 C 
ATOM     18  C   UNL     1     -35.502  21.780   3.848  0.00  0.00    +0.168 C 
ATOM     19  C   UNL     1     -35.324  21.793   5.231  0.00  0.00    +0.167 C 
ATOM     20  C   UNL     1     -34.981  22.981   5.879  0.00  0.00    +0.040 C 
BRANCH  18  21
ATOM     21  O   UNL     1     -35.838  20.627   3.205  0.00  0.00    -0.503 OA
ATOM     22  H   UNL     1     -35.584  19.800   3.564  0.00  0.00    +0.292 HD
ENDBRANCH  18  21
BRANCH  19  23
ATOM     23  O   UNL     1     -35.481  20.654   5.961  0.00  0.00    -0.503 OA
ATOM     24  H   UNL     1     -36.087  20.637   6.677  0.00  0.00    +0.292 HD
ENDBRANCH  19  23
ENDBRANCH  14  15
ENDBRANCH   2  14
BRANCH   2  26
ATOM     25  N   UNL     1     -31.362  25.759   2.108  0.00  0.00    -0.191 NA
ATOM     26  C   UNL     1     -32.378  25.965   2.630  0.00  0.00    +0.104 C 
ENDBRANCH   2  26
TORSDOF 8
ENDMDL
MODEL 4
REMARK VINA RESULT:      -6.2      1.106      1.526
REMARK  Name = 5328760
REMARK  8 active torsions:
REMARK  status: ('A' for Active; 'I' for Inactive)
REMARK    1  A    between atoms: C_1  and  C_3
REMARK    2  A    between atoms: C_2  and  C_14
REMARK    3  A    between atoms: C_2  and  C_26
REMARK    4  A    between atoms: C_6  and  O_9
REMARK    5  A    between atoms: C_7  and  O_11
REMARK    6  A    between atoms: C_14  and  C_15
REMARK    7  A    between atoms: C_18  and  O_21
REMARK    8  A    between atoms: C_19  and  O_23
REMARK                            x       y       z     vdW  Elec       q    Type
REMARK                         _______ _______ _______ _____ _____    ______ ____
ROOT
ATOM      1  C   UNL     1     -36.053  21.676   2.942  0.00  0.00    +0.014 C 
ATOM      2  C   UNL     1     -35.362  21.449   1.798  0.00  0.00    +0.107 C 
ENDROOT
BRANCH   1   3
ATOM      3  C   UNL     1     -36.137  22.941   3.656  0.00  0.00    +0.004 C 
ATOM      4  C   UNL     1     -37.109  23.877   3.305  0.00  0.00    +0.040 C 
ATOM      5  C   UNL     1     -35.245  23.216   4.693  0.00  0.00    +0.003 C 
ATOM      6  C   UNL     1     -37.189  25.090   3.990  0.00  0.00    +0.167 C 
ATOM      7  C   UNL     1     -36.296  25.365   5.026  0.00  0.00    +0.167 C 
ATOM      8  C   UNL     1     -35.325  24.429   5.377  0.00  0.00    +0.040 C 
BRANCH   6   9
ATOM      9  O   UNL     1     -38.143  25.997   3.638  0.00  0.00    -0.503 OA
ATOM     10  H   UNL     1     -38.817  25.757   3.033  0.00  0.00    +0.292 HD
ENDBRANCH   6   9
BRANCH   7  11
ATOM     11  O   UNL     1     -36.366  26.545   5.704  0.00  0.00    -0.503 OA
ATOM     12  H   UNL     1     -35.666  27.164   5.640  0.00  0.00    +0.292 HD
ENDBRANCH   7  11
ENDBRANCH   1   3
BRANCH   2  14
ATOM     13  O   UNL     1     -36.540  19.470   1.135  0.00  0.00    -0.286 OA
ATOM     14  C   UNL     1     -35.476  20.080   1.199  0.00  0.00    +0.205 C 
BRANCH  14  15
ATOM     15  C   UNL     1     -34.262  19.447   0.641  0.00  0.00    +0.043 C 
ATOM     16  C   UNL     1     -33.368  18.833   1.499  0.00  0.00    +0.043 C 
ATOM     17  C   UNL     1     -34.048  19.486  -0.725  0.00  0.00    +0.007 C 
ATOM     18  C   UNL     1     -32.222  18.237   0.973  0.00  0.00    +0.168 C 
ATOM     19  C   UNL     1     -31.988  18.266  -0.402  0.00  0.00    +0.167 C 
ATOM     20  C   UNL     1     -32.903  18.891  -1.251  0.00  0.00    +0.040 C 
BRANCH  18  21
ATOM     21  O   UNL     1     -31.336  17.630   1.812  0.00  0.00    -0.503 OA
ATOM     22  H   UNL     1     -31.245  17.931   2.694  0.00  0.00    +0.292 HD
ENDBRANCH  18  21
BRANCH  19  23
ATOM     23  O   UNL     1     -30.873  17.687  -0.928  0.00  0.00    -0.503 OA
ATOM     24  H   UNL     1     -30.025  18.029  -0.718  0.00  0.00    +0.292 HD
ENDBRANCH  19  23
ENDBRANCH  14  15
ENDBRANCH   2  14
BRANCH   2  26
ATOM     25  N   UNL     1     -34.004  23.307   0.617  0.00  0.00    -0.191 NA
ATOM     26  C   UNL     1     -34.611  22.472   1.147  0.00  0.00    +0.104 C 
ENDBRANCH   2  26
TORSDOF 8
ENDMDL
MODEL 5
REMARK VINA RESULT:      -6.2      2.022      7.637
REMARK  Name = 5328760
REMARK  8 active torsions:
REMARK  status: ('A' for Active; 'I' for Inactive)
REMARK    1  A    between atoms: C_1  and  C_3
REMARK    2  A    between atoms: C_2  and  C_14
REMARK    3  A    between atoms: C_2  and  C_26
REMARK    4  A    between atoms: C_6  and  O_9
REMARK    5  A    between atoms: C_7  and  O_11
REMARK    6  A    between atoms: C_14  and  C_15
REMARK    7  A    between atoms: C_18  and  O_21
REMARK    8  A    between atoms: C_19  and  O_23
REMARK                            x       y       z     vdW  Elec       q    Type
REMARK                         _______ _______ _______ _____ _____    ______ ____
ROOT
ATOM      1  C   UNL     1     -33.999  21.241   0.416  0.00  0.00    +0.014 C 
ATOM      2  C   UNL     1     -34.770  21.803   1.379  0.00  0.00    +0.107 C 
ENDROOT
BRANCH   1   3
ATOM      3  C   UNL     1     -33.428  19.904   0.447  0.00  0.00    +0.004 C 
ATOM      4  C   UNL     1     -34.261  18.788   0.362  0.00  0.00    +0.040 C 
ATOM      5  C   UNL     1     -32.048  19.738   0.561  0.00  0.00    +0.003 C 
ATOM      6  C   UNL     1     -33.713  17.506   0.391  0.00  0.00    +0.167 C 
ATOM      7  C   UNL     1     -32.332  17.339   0.506  0.00  0.00    +0.167 C 
ATOM      8  C   UNL     1     -31.501  18.455   0.591  0.00  0.00    +0.040 C 
BRANCH   6   9
ATOM      9  O   UNL     1     -34.536  16.423   0.308  0.00  0.00    -0.503 OA
ATOM     10  H   UNL     1     -35.345  16.412   0.781  0.00  0.00    +0.292 HD
ENDBRANCH   6   9
BRANCH   7  11
ATOM     11  O   UNL     1     -31.785  16.092   0.533  0.00  0.00    -0.503 OA
ATOM     12  H   UNL     1     -31.129  15.882   1.169  0.00  0.00    +0.292 HD
ENDBRANCH   7  11
ENDBRANCH   1   3
BRANCH   2  14
ATOM     13  O   UNL     1     -35.511  23.590  -0.036  0.00  0.00    -0.286 OA
ATOM     14  C   UNL     1     -35.308  23.175   1.101  0.00  0.00    +0.205 C 
BRANCH  14  15
ATOM     15  C   UNL     1     -35.630  24.055   2.245  0.00  0.00    +0.043 C 
ATOM     16  C   UNL     1     -36.943  24.157   2.667  0.00  0.00    +0.043 C 
ATOM     17  C   UNL     1     -34.611  24.755   2.864  0.00  0.00    +0.007 C 
ATOM     18  C   UNL     1     -37.247  24.988   3.745  0.00  0.00    +0.168 C 
ATOM     19  C   UNL     1     -36.233  25.703   4.383  0.00  0.00    +0.167 C 
ATOM     20  C   UNL     1     -34.914  25.586   3.941  0.00  0.00    +0.040 C 
BRANCH  18  21
ATOM     21  O   UNL     1     -38.538  25.095   4.167  0.00  0.00    -0.503 OA
ATOM     22  H   UNL     1     -39.233  24.754   3.639  0.00  0.00    +0.292 HD
ENDBRANCH  18  21
BRANCH  19  23
ATOM     23  O   UNL     1     -36.516  26.517   5.437  0.00  0.00    -0.503 OA
ATOM     24  H   UNL     1     -36.632  27.438   5.300  0.00  0.00    +0.292 HD
ENDBRANCH  19  23
ENDBRANCH  14  15
ENDBRANCH   2  14
BRANCH   2  26
ATOM     25  N   UNL     1     -35.402  20.545   3.549  0.00  0.00    -0.191 NA
ATOM     26  C   UNL     1     -35.117  21.111   2.577  0.00  0.00    +0.104 C 
ENDBRANCH   2  26
TORSDOF 8
ENDMDL
MODEL 6
REMARK VINA RESULT:      -6.1      1.860      2.394
REMARK  Name = 5328760
REMARK  8 active torsions:
REMARK  status: ('A' for Active; 'I' for Inactive)
REMARK    1  A    between atoms: C_1  and  C_3
REMARK    2  A    between atoms: C_2  and  C_14
REMARK    3  A    between atoms: C_2  and  C_26
REMARK    4  A    between atoms: C_6  and  O_9
REMARK    5  A    between atoms: C_7  and  O_11
REMARK    6  A    between atoms: C_14  and  C_15
REMARK    7  A    between atoms: C_18  and  O_21
REMARK    8  A    between atoms: C_19  and  O_23
REMARK                            x       y       z     vdW  Elec       q    Type
REMARK                         _______ _______ _______ _____ _____    ______ ____
ROOT
ATOM      1  C   UNL     1     -34.851  23.269   1.385  0.00  0.00    +0.014 C 
ATOM      2  C   UNL     1     -34.772  21.916   1.395  0.00  0.00    +0.107 C 
ENDROOT
BRANCH   1   3
ATOM      3  C   UNL     1     -35.292  24.109   2.487  0.00  0.00    +0.004 C 
ATOM      4  C   UNL     1     -36.650  24.193   2.800  0.00  0.00    +0.040 C 
ATOM      5  C   UNL     1     -34.359  24.831   3.230  0.00  0.00    +0.003 C 
ATOM      6  C   UNL     1     -37.072  25.000   3.856  0.00  0.00    +0.167 C 
ATOM      7  C   UNL     1     -36.138  25.723   4.600  0.00  0.00    +0.167 C 
ATOM      8  C   UNL     1     -34.782  25.638   4.286  0.00  0.00    +0.040 C 
BRANCH   6   9
ATOM      9  O   UNL     1     -38.400  25.075   4.153  0.00  0.00    -0.503 OA
ATOM     10  H   UNL     1     -38.685  25.561   4.903  0.00  0.00    +0.292 HD
ENDBRANCH   6   9
BRANCH   7  11
ATOM     11  O   UNL     1     -36.539  26.512   5.635  0.00  0.00    -0.503 OA
ATOM     12  H   UNL     1     -36.813  27.393   5.474  0.00  0.00    +0.292 HD
ENDBRANCH   7  11
ENDBRANCH   1   3
BRANCH   2  14
ATOM     13  O   UNL     1     -34.287  21.778  -0.949  0.00  0.00    -0.286 OA
ATOM     14  C   UNL     1     -34.221  21.261   0.163  0.00  0.00    +0.205 C 
BRANCH  14  15
ATOM     15  C   UNL     1     -33.550  19.950   0.298  0.00  0.00    +0.043 C 
ATOM     16  C   UNL     1     -34.311  18.796   0.244  0.00  0.00    +0.043 C 
ATOM     17  C   UNL     1     -32.179  19.909   0.476  0.00  0.00    +0.007 C 
ATOM     18  C   UNL     1     -33.679  17.560   0.372  0.00  0.00    +0.168 C 
ATOM     19  C   UNL     1     -32.296  17.498   0.552  0.00  0.00    +0.167 C 
ATOM     20  C   UNL     1     -31.547  18.674   0.604  0.00  0.00    +0.040 C 
BRANCH  18  21
ATOM     21  O   UNL     1     -34.420  16.418   0.321  0.00  0.00    -0.503 OA
ATOM     22  H   UNL     1     -33.995  15.583   0.329  0.00  0.00    +0.292 HD
ENDBRANCH  18  21
BRANCH  19  23
ATOM     23  O   UNL     1     -31.667  16.297   0.678  0.00  0.00    -0.503 OA
ATOM     24  H   UNL     1     -30.732  16.250   0.625  0.00  0.00    +0.292 HD
ENDBRANCH  19  23
ENDBRANCH  14  15
ENDBRANCH   2  14
BRANCH   2  26
ATOM     25  N   UNL     1     -35.413  20.510   3.469  0.00  0.00    -0.191 NA
ATOM     26  C   UNL     1     -35.128  21.141   2.538  0.00  0.00    +0.104 C 
ENDBRANCH   2  26
TORSDOF 8
ENDMDL
MODEL 7
REMARK VINA RESULT:      -6.1      3.998      6.179
REMARK  Name = 5328760
REMARK  8 active torsions:
REMARK  status: ('A' for Active; 'I' for Inactive)
REMARK    1  A    between atoms: C_1  and  C_3
REMARK    2  A    between atoms: C_2  and  C_14
REMARK    3  A    between atoms: C_2  and  C_26
REMARK    4  A    between atoms: C_6  and  O_9
REMARK    5  A    between atoms: C_7  and  O_11
REMARK    6  A    between atoms: C_14  and  C_15
REMARK    7  A    between atoms: C_18  and  O_21
REMARK    8  A    between atoms: C_19  and  O_23
REMARK                            x       y       z     vdW  Elec       q    Type
REMARK                         _______ _______ _______ _____ _____    ______ ____
ROOT
ATOM      1  C   UNL     1     -38.208  25.007   3.101  0.00  0.00    +0.014 C 
ATOM      2  C   UNL     1     -37.161  25.799   2.765  0.00  0.00    +0.107 C 
ENDROOT
BRANCH   1   3
ATOM      3  C   UNL     1     -39.570  25.130   2.604  0.00  0.00    +0.004 C 
ATOM      4  C   UNL     1     -40.038  24.250   1.627  0.00  0.00    +0.040 C 
ATOM      5  C   UNL     1     -40.408  26.126   3.105  0.00  0.00    +0.003 C 
ATOM      6  C   UNL     1     -41.343  24.368   1.150  0.00  0.00    +0.167 C 
ATOM      7  C   UNL     1     -42.181  25.366   1.651  0.00  0.00    +0.167 C 
ATOM      8  C   UNL     1     -41.713  26.244   2.627  0.00  0.00    +0.040 C 
BRANCH   6   9
ATOM      9  O   UNL     1     -41.789  23.505   0.195  0.00  0.00    -0.503 OA
ATOM     10  H   UNL     1     -41.196  22.893  -0.196  0.00  0.00    +0.292 HD
ENDBRANCH   6   9
BRANCH   7  11
ATOM     11  O   UNL     1     -43.459  25.489   1.194  0.00  0.00    -0.503 OA
ATOM     12  H   UNL     1     -43.988  26.210   1.474  0.00  0.00    +0.292 HD
ENDBRANCH   7  11
ENDBRANCH   1   3
BRANCH   2  14
ATOM     13  O   UNL     1     -34.859  26.195   3.303  0.00  0.00    -0.286 OA
ATOM     14  C   UNL     1     -35.827  25.441   3.350  0.00  0.00    +0.205 C 
BRANCH  14  15
ATOM     15  C   UNL     1     -35.679  24.138   4.032  0.00  0.00    +0.043 C 
ATOM     16  C   UNL     1     -35.740  22.976   3.283  0.00  0.00    +0.043 C 
ATOM     17  C   UNL     1     -35.484  24.111   5.400  0.00  0.00    +0.007 C 
ATOM     18  C   UNL     1     -35.601  21.746   3.926  0.00  0.00    +0.168 C 
ATOM     19  C   UNL     1     -35.404  21.698   5.306  0.00  0.00    +0.167 C 
ATOM     20  C   UNL     1     -35.345  22.882   6.043  0.00  0.00    +0.040 C 
BRANCH  18  21
ATOM     21  O   UNL     1     -35.660  20.597   3.196  0.00  0.00    -0.503 OA
ATOM     22  H   UNL     1     -34.872  20.141   2.976  0.00  0.00    +0.292 HD
ENDBRANCH  18  21
BRANCH  19  23
ATOM     23  O   UNL     1     -35.266  20.504   5.945  0.00  0.00    -0.503 OA
ATOM     24  H   UNL     1     -34.662  19.865   5.620  0.00  0.00    +0.292 HD
ENDBRANCH  19  23
ENDBRANCH  14  15
ENDBRANCH   2  14
BRANCH   2  26
ATOM     25  N   UNL     1     -37.392  27.764   1.100  0.00  0.00    -0.191 NA
ATOM     26  C   UNL     1     -37.290  26.883   1.848  0.00  0.00    +0.104 C 
ENDBRANCH   2  26
TORSDOF 8
ENDMDL
MODEL 8
REMARK VINA RESULT:      -6.1      2.522      7.265
REMARK  Name = 5328760
REMARK  8 active torsions:
REMARK  status: ('A' for Active; 'I' for Inactive)
REMARK    1  A    between atoms: C_1  and  C_3
REMARK    2  A    between atoms: C_2  and  C_14
REMARK    3  A    between atoms: C_2  and  C_26
REMARK    4  A    between atoms: C_6  and  O_9
REMARK    5  A    between atoms: C_7  and  O_11
REMARK    6  A    between atoms: C_14  and  C_15
REMARK    7  A    between atoms: C_18  and  O_21
REMARK    8  A    between atoms: C_19  and  O_23
REMARK                            x       y       z     vdW  Elec       q    Type
REMARK                         _______ _______ _______ _____ _____    ______ ____
ROOT
ATOM      1  C   UNL     1     -35.914  22.740   2.336  0.00  0.00    +0.014 C 
ATOM      2  C   UNL     1     -35.866  22.960   3.672  0.00  0.00    +0.107 C 
ENDROOT
BRANCH   1   3
ATOM      3  C   UNL     1     -35.568  21.500   1.658  0.00  0.00    +0.004 C 
ATOM      4  C   UNL     1     -36.525  20.494   1.513  0.00  0.00    +0.040 C 
ATOM      5  C   UNL     1     -34.281  21.317   1.153  0.00  0.00    +0.003 C 
ATOM      6  C   UNL     1     -36.193  19.306   0.863  0.00  0.00    +0.167 C 
ATOM      7  C   UNL     1     -34.905  19.122   0.359  0.00  0.00    +0.167 C 
ATOM      8  C   UNL     1     -33.950  20.128   0.504  0.00  0.00    +0.040 C 
BRANCH   6   9
ATOM      9  O   UNL     1     -37.134  18.331   0.727  0.00  0.00    -0.503 OA
ATOM     10  H   UNL     1     -37.990  18.453   1.089  0.00  0.00    +0.292 HD
ENDBRANCH   6   9
BRANCH   7  11
ATOM     11  O   UNL     1     -34.569  17.967  -0.280  0.00  0.00    -0.503 OA
ATOM     12  H   UNL     1     -34.780  17.140   0.107  0.00  0.00    +0.292 HD
ENDBRANCH   7  11
ENDBRANCH   1   3
BRANCH   2  14
ATOM     13  O   UNL     1     -37.508  24.524   4.448  0.00  0.00    -0.286 OA
ATOM     14  C   UNL     1     -36.337  24.299   4.155  0.00  0.00    +0.205 C 
BRANCH  14  15
ATOM     15  C   UNL     1     -35.346  25.386   4.308  0.00  0.00    +0.043 C 
ATOM     16  C   UNL     1     -34.618  25.473   5.480  0.00  0.00    +0.043 C 
ATOM     17  C   UNL     1     -35.173  26.290   3.275  0.00  0.00    +0.007 C 
ATOM     18  C   UNL     1     -33.684  26.499   5.625  0.00  0.00    +0.168 C 
ATOM     19  C   UNL     1     -33.495  27.421   4.594  0.00  0.00    +0.167 C 
ATOM     20  C   UNL     1     -34.240  27.316   3.419  0.00  0.00    +0.040 C 
BRANCH  18  21
ATOM     21  O   UNL     1     -32.962  26.593   6.776  0.00  0.00    -0.503 OA
ATOM     22  H   UNL     1     -32.908  25.859   7.356  0.00  0.00    +0.292 HD
ENDBRANCH  18  21
BRANCH  19  23
ATOM     23  O   UNL     1     -32.586  28.427   4.722  0.00  0.00    -0.503 OA
ATOM     24  H   UNL     1     -32.726  29.244   4.283  0.00  0.00    +0.292 HD
ENDBRANCH  19  23
ENDBRANCH  14  15
ENDBRANCH   2  14
BRANCH   2  26
ATOM     25  N   UNL     1     -35.114  21.139   5.348  0.00  0.00    -0.191 NA
ATOM     26  C   UNL     1     -35.452  21.954   4.595  0.00  0.00    +0.104 C 
ENDBRANCH   2  26
TORSDOF 8
ENDMDL
MODEL 9
REMARK VINA RESULT:      -6.0      1.995      7.269
REMARK  Name = 5328760
REMARK  8 active torsions:
REMARK  status: ('A' for Active; 'I' for Inactive)
REMARK    1  A    between atoms: C_1  and  C_3
REMARK    2  A    between atoms: C_2  and  C_14
REMARK    3  A    between atoms: C_2  and  C_26
REMARK    4  A    between atoms: C_6  and  O_9
REMARK    5  A    between atoms: C_7  and  O_11
REMARK    6  A    between atoms: C_14  and  C_15
REMARK    7  A    between atoms: C_18  and  O_21
REMARK    8  A    between atoms: C_19  and  O_23
REMARK                            x       y       z     vdW  Elec       q    Type
REMARK                         _______ _______ _______ _____ _____    ______ ____
ROOT
ATOM      1  C   UNL     1     -35.811  20.823   2.233  0.00  0.00    +0.014 C 
ATOM      2  C   UNL     1     -35.642  22.163   2.117  0.00  0.00    +0.107 C 
ENDROOT
BRANCH   1   3
ATOM      3  C   UNL     1     -35.115  19.801   1.467  0.00  0.00    +0.004 C 
ATOM      4  C   UNL     1     -33.878  19.325   1.903  0.00  0.00    +0.040 C 
ATOM      5  C   UNL     1     -35.685  19.297   0.298  0.00  0.00    +0.003 C 
ATOM      6  C   UNL     1     -33.210  18.346   1.168  0.00  0.00    +0.167 C 
ATOM      7  C   UNL     1     -33.780  17.842  -0.002  0.00  0.00    +0.167 C 
ATOM      8  C   UNL     1     -35.016  18.318  -0.436  0.00  0.00    +0.040 C 
BRANCH   6   9
ATOM      9  O   UNL     1     -32.003  17.888   1.602  0.00  0.00    -0.503 OA
ATOM     10  H   UNL     1     -31.215  18.321   1.336  0.00  0.00    +0.292 HD
ENDBRANCH   6   9
BRANCH   7  11
ATOM     11  O   UNL     1     -33.138  16.883  -0.727  0.00  0.00    -0.503 OA
ATOM     12  H   UNL     1     -33.389  16.722  -1.615  0.00  0.00    +0.292 HD
ENDBRANCH   7  11
ENDBRANCH   1   3
BRANCH   2  14
ATOM     13  O   UNL     1     -37.626  22.892   3.247  0.00  0.00    -0.286 OA
ATOM     14  C   UNL     1     -36.419  23.028   3.063  0.00  0.00    +0.205 C 
BRANCH  14  15
ATOM     15  C   UNL     1     -35.700  24.074   3.821  0.00  0.00    +0.043 C 
ATOM     16  C   UNL     1     -35.883  25.401   3.478  0.00  0.00    +0.043 C 
ATOM     17  C   UNL     1     -34.860  23.699   4.854  0.00  0.00    +0.007 C 
ATOM     18  C   UNL     1     -35.203  26.387   4.193  0.00  0.00    +0.168 C 
ATOM     19  C   UNL     1     -34.351  26.030   5.238  0.00  0.00    +0.167 C 
ATOM     20  C   UNL     1     -34.180  24.685   5.569  0.00  0.00    +0.040 C 
BRANCH  18  21
ATOM     21  O   UNL     1     -35.378  27.697   3.861  0.00  0.00    -0.503 OA
ATOM     22  H   UNL     1     -36.169  28.139   4.098  0.00  0.00    +0.292 HD
ENDBRANCH  18  21
BRANCH  19  23
ATOM     23  O   UNL     1     -33.682  26.983   5.944  0.00  0.00    -0.503 OA
ATOM     24  H   UNL     1     -34.127  27.471   6.610  0.00  0.00    +0.292 HD
ENDBRANCH  19  23
ENDBRANCH  14  15
ENDBRANCH   2  14
BRANCH   2  26
ATOM     25  N   UNL     1     -33.970  23.198   0.437  0.00  0.00    -0.191 NA
ATOM     26  C   UNL     1     -34.722  22.736   1.191  0.00  0.00    +0.104 C 
ENDBRANCH   2  26
TORSDOF 8
ENDMDL
