MODEL 1
REMARK VINA RESULT:      -6.0      0.000      0.000
REMARK  Name = 193166
REMARK  5 active torsions:
REMARK  status: ('A' for Active; 'I' for Inactive)
REMARK    1  A    between atoms: N_1  and  C_13
REMARK    2  A    between atoms: C_11  and  O_15
REMARK    3  A    between atoms: C_11  and  C_19
REMARK    4  A    between atoms: C_12  and  O_17
REMARK    5  A    between atoms: C_19  and  O_20
REMARK                            x       y       z     vdW  Elec       q    Type
REMARK                         _______ _______ _______ _____ _____    ______ ____
ROOT
ATOM      1  N   UNL     1     -35.669  24.766   4.517  0.00  0.00    -0.247 N 
ATOM      2  N   UNL     1     -34.459  26.486   5.256  0.00  0.00    -0.242 NA
ATOM      3  N   UNL     1     -36.297  25.607   2.326  0.00  0.00    -0.228 NA
ATOM      4  N   UNL     1     -35.375  27.833   1.935  0.00  0.00    -0.229 NA
ATOM      5  C   UNL     1     -35.684  25.695   3.516  0.00  0.00    +0.152 C 
ATOM      6  C   UNL     1     -34.921  25.286   5.540  0.00  0.00    +0.223 C 
ATOM      7  C   UNL     1     -34.928  26.754   3.994  0.00  0.00    +0.140 C 
ATOM      8  C   UNL     1     -34.783  27.853   3.153  0.00  0.00    +0.143 C 
ATOM      9  C   UNL     1     -36.085  26.728   1.602  0.00  0.00    +0.253 C 
ATOM     10  N   UNL     1     -34.032  28.970   3.555  0.00  0.00    -0.342 N 
ATOM     11  H   UNL     1     -33.935  29.743   2.952  0.00  0.00    +0.144 HD
ATOM     12  H   UNL     1     -33.601  28.982   4.441  0.00  0.00    +0.144 HD
ENDROOT
BRANCH   1  16
ATOM     13  O   UNL     1     -37.462  23.480   3.628  0.00  0.00    -0.333 OA
ATOM     14  C   UNL     1     -35.918  21.976   2.662  0.00  0.00    +0.171 C 
ATOM     15  C   UNL     1     -35.409  22.311   4.059  0.00  0.00    +0.187 C 
ATOM     16  C   UNL     1     -36.324  23.455   4.508  0.00  0.00    +0.225 C 
ATOM     17  C   UNL     1     -37.391  22.341   2.756  0.00  0.00    +0.176 C 
BRANCH  14  18
ATOM     18  O   UNL     1     -35.306  22.860   1.720  0.00  0.00    -0.379 OA
ATOM     19  H   UNL     1     -35.885  22.962   0.949  0.00  0.00    +0.211 HD
ENDBRANCH  14  18
BRANCH  15  20
ATOM     20  O   UNL     1     -35.603  21.226   4.961  0.00  0.00    -0.378 OA
ATOM     21  H   UNL     1     -34.745  20.825   5.173  0.00  0.00    +0.211 HD
ENDBRANCH  15  20
BRANCH  14  22
ATOM     22  C   UNL     1     -35.698  20.548   2.186  0.00  0.00    +0.169 C 
BRANCH  22  23
ATOM     23  O   UNL     1     -36.776  19.746   2.639  0.00  0.00    -0.379 OA
ATOM     24  H   UNL     1     -37.562  20.301   2.763  0.00  0.00    +0.211 HD
ENDBRANCH  22  23
ENDBRANCH  14  22
ENDBRANCH   1  16
TORSDOF 5
ENDMDL
MODEL 2
REMARK VINA RESULT:      -5.9      3.138      5.553
REMARK  Name = 193166
REMARK  5 active torsions:
REMARK  status: ('A' for Active; 'I' for Inactive)
REMARK    1  A    between atoms: N_1  and  C_13
REMARK    2  A    between atoms: C_11  and  O_15
REMARK    3  A    between atoms: C_11  and  C_19
REMARK    4  A    between atoms: C_12  and  O_17
REMARK    5  A    between atoms: C_19  and  O_20
REMARK                            x       y       z     vdW  Elec       q    Type
REMARK                         _______ _______ _______ _____ _____    ______ ____
ROOT
ATOM      1  N   UNL     1     -36.334  24.516   3.996  0.00  0.00    -0.247 N 
ATOM      2  N   UNL     1     -36.215  22.380   3.369  0.00  0.00    -0.242 NA
ATOM      3  N   UNL     1     -38.580  25.048   3.238  0.00  0.00    -0.228 NA
ATOM      4  N   UNL     1     -39.642  23.117   2.190  0.00  0.00    -0.229 NA
ATOM      5  C   UNL     1     -37.533  24.227   3.410  0.00  0.00    +0.152 C 
ATOM      6  C   UNL     1     -35.576  23.376   3.947  0.00  0.00    +0.223 C 
ATOM      7  C   UNL     1     -37.439  22.898   3.028  0.00  0.00    +0.140 C 
ATOM      8  C   UNL     1     -38.549  22.344   2.396  0.00  0.00    +0.143 C 
ATOM      9  C   UNL     1     -39.591  24.402   2.617  0.00  0.00    +0.253 C 
ATOM     10  N   UNL     1     -38.541  21.003   1.977  0.00  0.00    -0.342 N 
ATOM     11  H   UNL     1     -39.332  20.622   1.531  0.00  0.00    +0.144 HD
ATOM     12  H   UNL     1     -37.745  20.444   2.129  0.00  0.00    +0.144 HD
ENDROOT
BRANCH   1  16
ATOM     13  O   UNL     1     -35.197  25.581   5.793  0.00  0.00    -0.333 OA
ATOM     14  C   UNL     1     -33.656  26.525   4.272  0.00  0.00    +0.171 C 
ATOM     15  C   UNL     1     -35.040  26.637   3.642  0.00  0.00    +0.187 C 
ATOM     16  C   UNL     1     -35.925  25.800   4.571  0.00  0.00    +0.225 C 
ATOM     17  C   UNL     1     -33.983  26.348   5.745  0.00  0.00    +0.176 C 
BRANCH  14  18
ATOM     18  O   UNL     1     -33.033  25.324   3.811  0.00  0.00    -0.379 OA
ATOM     19  H   UNL     1     -33.181  25.228   2.858  0.00  0.00    +0.211 HD
ENDBRANCH  14  18
BRANCH  15  20
ATOM     20  O   UNL     1     -35.524  27.976   3.679  0.00  0.00    -0.378 OA
ATOM     21  H   UNL     1     -35.231  28.448   2.883  0.00  0.00    +0.211 HD
ENDBRANCH  15  20
BRANCH  14  22
ATOM     22  C   UNL     1     -32.702  27.683   4.018  0.00  0.00    +0.169 C 
BRANCH  22  23
ATOM     23  O   UNL     1     -32.890  28.658   5.030  0.00  0.00    -0.379 OA
ATOM     24  H   UNL     1     -33.758  28.531   5.444  0.00  0.00    +0.211 HD
ENDBRANCH  22  23
ENDBRANCH  14  22
ENDBRANCH   1  16
TORSDOF 5
ENDMDL
MODEL 3
REMARK VINA RESULT:      -5.8      1.916      3.236
REMARK  Name = 193166
REMARK  5 active torsions:
REMARK  status: ('A' for Active; 'I' for Inactive)
REMARK    1  A    between atoms: N_1  and  C_13
REMARK    2  A    between atoms: C_11  and  O_15
REMARK    3  A    between atoms: C_11  and  C_19
REMARK    4  A    between atoms: C_12  and  O_17
REMARK    5  A    between atoms: C_19  and  O_20
REMARK                            x       y       z     vdW  Elec       q    Type
REMARK                         _______ _______ _______ _____ _____    ______ ____
ROOT
ATOM      1  N   UNL     1     -37.371  23.258   2.533  0.00  0.00    -0.247 N 
ATOM      2  N   UNL     1     -37.055  25.422   2.099  0.00  0.00    -0.242 NA
ATOM      3  N   UNL     1     -36.289  23.104   4.702  0.00  0.00    -0.228 NA
ATOM      4  N   UNL     1     -35.392  25.263   5.400  0.00  0.00    -0.229 NA
ATOM      5  C   UNL     1     -36.692  23.762   3.605  0.00  0.00    +0.152 C 
ATOM      6  C   UNL     1     -37.565  24.292   1.656  0.00  0.00    +0.223 C 
ATOM      7  C   UNL     1     -36.505  25.105   3.317  0.00  0.00    +0.140 C 
ATOM      8  C   UNL     1     -35.827  25.864   4.266  0.00  0.00    +0.143 C 
ATOM      9  C   UNL     1     -35.645  23.941   5.546  0.00  0.00    +0.253 C 
ATOM     10  N   UNL     1     -35.595  27.234   4.057  0.00  0.00    -0.342 N 
ATOM     11  H   UNL     1     -35.114  27.761   4.735  0.00  0.00    +0.144 HD
ATOM     12  H   UNL     1     -35.914  27.667   3.232  0.00  0.00    +0.144 HD
ENDROOT
BRANCH   1  16
ATOM     13  O   UNL     1     -38.791  21.808   1.292  0.00  0.00    -0.333 OA
ATOM     14  C   UNL     1     -36.909  20.613   0.514  0.00  0.00    +0.171 C 
ATOM     15  C   UNL     1     -36.679  20.906   1.992  0.00  0.00    +0.187 C 
ATOM     16  C   UNL     1     -37.813  21.874   2.345  0.00  0.00    +0.225 C 
ATOM     17  C   UNL     1     -38.415  20.761   0.384  0.00  0.00    +0.176 C 
BRANCH  14  18
ATOM     18  O   UNL     1     -36.296  21.644  -0.265  0.00  0.00    -0.379 OA
ATOM     19  H   UNL     1     -35.837  22.263   0.323  0.00  0.00    +0.211 HD
ENDBRANCH  14  18
BRANCH  15  20
ATOM     20  O   UNL     1     -36.846  19.738   2.789  0.00  0.00    -0.378 OA
ATOM     21  H   UNL     1     -37.306  19.057   2.274  0.00  0.00    +0.211 HD
ENDBRANCH  15  20
BRANCH  14  22
ATOM     22  C   UNL     1     -36.405  19.270   0.005  0.00  0.00    +0.169 C 
BRANCH  22  23
ATOM     23  O   UNL     1     -37.215  18.243   0.553  0.00  0.00    -0.379 OA
ATOM     24  H   UNL     1     -37.920  18.638   1.089  0.00  0.00    +0.211 HD
ENDBRANCH  22  23
ENDBRANCH  14  22
ENDBRANCH   1  16
TORSDOF 5
ENDMDL
MODEL 4
REMARK VINA RESULT:      -5.7      0.943      2.048
REMARK  Name = 193166
REMARK  5 active torsions:
REMARK  status: ('A' for Active; 'I' for Inactive)
REMARK    1  A    between atoms: N_1  and  C_13
REMARK    2  A    between atoms: C_11  and  O_15
REMARK    3  A    between atoms: C_11  and  C_19
REMARK    4  A    between atoms: C_12  and  O_17
REMARK    5  A    between atoms: C_19  and  O_20
REMARK                            x       y       z     vdW  Elec       q    Type
REMARK                         _______ _______ _______ _____ _____    ______ ____
ROOT
ATOM      1  N   UNL     1     -36.216  24.906   3.382  0.00  0.00    -0.247 N 
ATOM      2  N   UNL     1     -35.922  26.853   2.336  0.00  0.00    -0.242 NA
ATOM      3  N   UNL     1     -34.690  25.200   5.248  0.00  0.00    -0.228 NA
ATOM      4  N   UNL     1     -33.579  27.371   5.151  0.00  0.00    -0.229 NA
ATOM      5  C   UNL     1     -35.299  25.597   4.121  0.00  0.00    +0.152 C 
ATOM      6  C   UNL     1     -36.560  25.701   2.320  0.00  0.00    +0.223 C 
ATOM      7  C   UNL     1     -35.130  26.801   3.456  0.00  0.00    +0.140 C 
ATOM      8  C   UNL     1     -34.231  27.706   4.012  0.00  0.00    +0.143 C 
ATOM      9  C   UNL     1     -33.844  26.157   5.691  0.00  0.00    +0.253 C 
ATOM     10  N   UNL     1     -34.000  28.952   3.405  0.00  0.00    -0.342 N 
ATOM     11  H   UNL     1     -33.361  29.585   3.807  0.00  0.00    +0.144 HD
ATOM     12  H   UNL     1     -34.476  29.193   2.577  0.00  0.00    +0.144 HD
ENDROOT
BRANCH   1  16
ATOM     13  O   UNL     1     -37.925  23.329   2.879  0.00  0.00    -0.333 OA
ATOM     14  C   UNL     1     -36.301  21.806   2.091  0.00  0.00    +0.171 C 
ATOM     15  C   UNL     1     -35.747  22.440   3.361  0.00  0.00    +0.187 C 
ATOM     16  C   UNL     1     -36.741  23.567   3.661  0.00  0.00    +0.225 C 
ATOM     17  C   UNL     1     -37.793  22.056   2.227  0.00  0.00    +0.176 C 
BRANCH  14  18
ATOM     18  O   UNL     1     -35.832  22.545   0.960  0.00  0.00    -0.379 OA
ATOM     19  H   UNL     1     -35.759  21.953   0.196  0.00  0.00    +0.211 HD
ENDBRANCH  14  18
BRANCH  15  20
ATOM     20  O   UNL     1     -35.782  21.532   4.458  0.00  0.00    -0.378 OA
ATOM     21  H   UNL     1     -36.376  21.876   5.143  0.00  0.00    +0.211 HD
ENDBRANCH  15  20
BRANCH  14  22
ATOM     22  C   UNL     1     -35.970  20.337   1.869  0.00  0.00    +0.169 C 
BRANCH  22  23
ATOM     23  O   UNL     1     -36.892  19.548   2.602  0.00  0.00    -0.379 OA
ATOM     24  H   UNL     1     -36.428  19.097   3.325  0.00  0.00    +0.211 HD
ENDBRANCH  22  23
ENDBRANCH  14  22
ENDBRANCH   1  16
TORSDOF 5
ENDMDL
MODEL 5
REMARK VINA RESULT:      -5.6      3.178      5.464
REMARK  Name = 193166
REMARK  5 active torsions:
REMARK  status: ('A' for Active; 'I' for Inactive)
REMARK    1  A    between atoms: N_1  and  C_13
REMARK    2  A    between atoms: C_11  and  O_15
REMARK    3  A    between atoms: C_11  and  C_19
REMARK    4  A    between atoms: C_12  and  O_17
REMARK    5  A    between atoms: C_19  and  O_20
REMARK                            x       y       z     vdW  Elec       q    Type
REMARK                         _______ _______ _______ _____ _____    ______ ____
ROOT
ATOM      1  N   UNL     1     -37.104  24.135   3.408  0.00  0.00    -0.247 N 
ATOM      2  N   UNL     1     -36.042  23.953   5.360  0.00  0.00    -0.242 NA
ATOM      3  N   UNL     1     -36.572  21.971   2.441  0.00  0.00    -0.228 NA
ATOM      4  N   UNL     1     -35.193  20.640   3.951  0.00  0.00    -0.229 NA
ATOM      5  C   UNL     1     -36.524  22.899   3.409  0.00  0.00    +0.152 C 
ATOM      6  C   UNL     1     -36.786  24.730   4.601  0.00  0.00    +0.223 C 
ATOM      7  C   UNL     1     -35.870  22.805   4.627  0.00  0.00    +0.140 C 
ATOM      8  C   UNL     1     -35.186  21.621   4.885  0.00  0.00    +0.143 C 
ATOM      9  C   UNL     1     -35.875  20.872   2.803  0.00  0.00    +0.253 C 
ATOM     10  N   UNL     1     -34.497  21.439   6.096  0.00  0.00    -0.342 N 
ATOM     11  H   UNL     1     -34.016  20.597   6.268  0.00  0.00    +0.144 HD
ATOM     12  H   UNL     1     -34.495  22.154   6.774  0.00  0.00    +0.144 HD
ENDROOT
BRANCH   1  16
ATOM     13  O   UNL     1     -38.901  23.776   1.891  0.00  0.00    -0.333 OA
ATOM     14  C   UNL     1     -40.102  25.553   2.880  0.00  0.00    +0.171 C 
ATOM     15  C   UNL     1     -38.651  26.002   2.759  0.00  0.00    +0.187 C 
ATOM     16  C   UNL     1     -37.915  24.724   2.340  0.00  0.00    +0.225 C 
ATOM     17  C   UNL     1     -40.181  24.427   1.863  0.00  0.00    +0.176 C 
BRANCH  14  18
ATOM     18  O   UNL     1     -40.308  24.989   4.177  0.00  0.00    -0.379 OA
ATOM     19  H   UNL     1     -41.258  24.946   4.364  0.00  0.00    +0.211 HD
ENDBRANCH  14  18
BRANCH  15  20
ATOM     20  O   UNL     1     -38.483  26.956   1.714  0.00  0.00    -0.378 OA
ATOM     21  H   UNL     1     -38.529  27.852   2.084  0.00  0.00    +0.211 HD
ENDBRANCH  15  20
BRANCH  14  22
ATOM     22  C   UNL     1     -41.161  26.622   2.653  0.00  0.00    +0.169 C 
BRANCH  22  23
ATOM     23  O   UNL     1     -41.980  26.704   3.808  0.00  0.00    -0.379 OA
ATOM     24  H   UNL     1     -42.003  25.841   4.250  0.00  0.00    +0.211 HD
ENDBRANCH  22  23
ENDBRANCH  14  22
ENDBRANCH   1  16
TORSDOF 5
ENDMDL
MODEL 6
REMARK VINA RESULT:      -5.5      2.900      4.479
REMARK  Name = 193166
REMARK  5 active torsions:
REMARK  status: ('A' for Active; 'I' for Inactive)
REMARK    1  A    between atoms: N_1  and  C_13
REMARK    2  A    between atoms: C_11  and  O_15
REMARK    3  A    between atoms: C_11  and  C_19
REMARK    4  A    between atoms: C_12  and  O_17
REMARK    5  A    between atoms: C_19  and  O_20
REMARK                            x       y       z     vdW  Elec       q    Type
REMARK                         _______ _______ _______ _____ _____    ______ ____
ROOT
ATOM      1  N   UNL     1     -37.407  24.517   2.679  0.00  0.00    -0.247 N 
ATOM      2  N   UNL     1     -38.904  26.151   2.922  0.00  0.00    -0.242 NA
ATOM      3  N   UNL     1     -38.762  22.880   1.504  0.00  0.00    -0.228 NA
ATOM      4  N   UNL     1     -41.028  23.707   1.133  0.00  0.00    -0.229 NA
ATOM      5  C   UNL     1     -38.558  24.064   2.100  0.00  0.00    +0.152 C 
ATOM      6  C   UNL     1     -37.665  25.774   3.158  0.00  0.00    +0.223 C 
ATOM      7  C   UNL     1     -39.474  25.091   2.261  0.00  0.00    +0.140 C 
ATOM      8  C   UNL     1     -40.751  24.881   1.749  0.00  0.00    +0.143 C 
ATOM      9  C   UNL     1     -40.032  22.792   1.050  0.00  0.00    +0.253 C 
ATOM     10  N   UNL     1     -41.742  25.870   1.866  0.00  0.00    -0.342 N 
ATOM     11  H   UNL     1     -42.643  25.711   1.501  0.00  0.00    +0.144 HD
ATOM     12  H   UNL     1     -41.536  26.723   2.315  0.00  0.00    +0.144 HD
ENDROOT
BRANCH   1  16
ATOM     13  O   UNL     1     -35.100  24.696   3.231  0.00  0.00    -0.333 OA
ATOM     14  C   UNL     1     -35.372  23.086   4.937  0.00  0.00    +0.171 C 
ATOM     15  C   UNL     1     -36.167  22.604   3.729  0.00  0.00    +0.187 C 
ATOM     16  C   UNL     1     -36.131  23.803   2.775  0.00  0.00    +0.225 C 
ATOM     17  C   UNL     1     -34.394  24.067   4.312  0.00  0.00    +0.176 C 
BRANCH  14  18
ATOM     18  O   UNL     1     -36.242  23.821   5.801  0.00  0.00    -0.379 OA
ATOM     19  H   UNL     1     -35.796  24.631   6.095  0.00  0.00    +0.211 HD
ENDBRANCH  14  18
BRANCH  15  20
ATOM     20  O   UNL     1     -35.518  21.516   3.076  0.00  0.00    -0.378 OA
ATOM     21  H   UNL     1     -35.601  20.717   3.620  0.00  0.00    +0.211 HD
ENDBRANCH  15  20
BRANCH  14  22
ATOM     22  C   UNL     1     -34.678  22.012   5.762  0.00  0.00    +0.169 C 
BRANCH  22  23
ATOM     23  O   UNL     1     -35.497  20.855   5.785  0.00  0.00    -0.379 OA
ATOM     24  H   UNL     1     -35.785  20.680   6.694  0.00  0.00    +0.211 HD
ENDBRANCH  22  23
ENDBRANCH  14  22
ENDBRANCH   1  16
TORSDOF 5
ENDMDL
MODEL 7
REMARK VINA RESULT:      -5.4      1.852      2.751
REMARK  Name = 193166
REMARK  5 active torsions:
REMARK  status: ('A' for Active; 'I' for Inactive)
REMARK    1  A    between atoms: N_1  and  C_13
REMARK    2  A    between atoms: C_11  and  O_15
REMARK    3  A    between atoms: C_11  and  C_19
REMARK    4  A    between atoms: C_12  and  O_17
REMARK    5  A    between atoms: C_19  and  O_20
REMARK                            x       y       z     vdW  Elec       q    Type
REMARK                         _______ _______ _______ _____ _____    ______ ____
ROOT
ATOM      1  N   UNL     1     -35.801  23.336   3.014  0.00  0.00    -0.247 N 
ATOM      2  N   UNL     1     -34.126  24.599   2.257  0.00  0.00    -0.242 NA
ATOM      3  N   UNL     1     -36.415  24.601   4.995  0.00  0.00    -0.228 NA
ATOM      4  N   UNL     1     -35.005  26.575   5.258  0.00  0.00    -0.229 NA
ATOM      5  C   UNL     1     -35.682  24.373   3.894  0.00  0.00    +0.152 C 
ATOM      6  C   UNL     1     -34.845  23.515   2.049  0.00  0.00    +0.223 C 
ATOM      7  C   UNL     1     -34.638  25.144   3.408  0.00  0.00    +0.140 C 
ATOM      8  C   UNL     1     -34.306  26.284   4.134  0.00  0.00    +0.143 C 
ATOM      9  C   UNL     1     -36.001  25.729   5.613  0.00  0.00    +0.253 C 
ATOM     10  N   UNL     1     -33.262  27.125   3.713  0.00  0.00    -0.342 N 
ATOM     11  H   UNL     1     -33.035  27.929   4.235  0.00  0.00    +0.144 HD
ATOM     12  H   UNL     1     -32.756  26.910   2.896  0.00  0.00    +0.144 HD
ENDROOT
BRANCH   1  16
ATOM     13  O   UNL     1     -38.106  22.748   2.970  0.00  0.00    -0.333 OA
ATOM     14  C   UNL     1     -37.745  21.442   1.036  0.00  0.00    +0.171 C 
ATOM     15  C   UNL     1     -36.576  21.185   1.978  0.00  0.00    +0.187 C 
ATOM     16  C   UNL     1     -36.765  22.235   3.078  0.00  0.00    +0.225 C 
ATOM     17  C   UNL     1     -38.808  21.985   1.976  0.00  0.00    +0.176 C 
BRANCH  14  18
ATOM     18  O   UNL     1     -37.389  22.485   0.126  0.00  0.00    -0.379 OA
ATOM     19  H   UNL     1     -36.558  22.895   0.414  0.00  0.00    +0.211 HD
ENDBRANCH  14  18
BRANCH  15  20
ATOM     20  O   UNL     1     -36.668  19.902   2.588  0.00  0.00    -0.378 OA
ATOM     21  H   UNL     1     -35.881  19.380   2.363  0.00  0.00    +0.211 HD
ENDBRANCH  15  20
BRANCH  14  22
ATOM     22  C   UNL     1     -38.235  20.251   0.225  0.00  0.00    +0.169 C 
BRANCH  22  23
ATOM     23  O   UNL     1     -39.648  20.191   0.312  0.00  0.00    -0.379 OA
ATOM     24  H   UNL     1     -40.035  20.388  -0.556  0.00  0.00    +0.211 HD
ENDBRANCH  22  23
ENDBRANCH  14  22
ENDBRANCH   1  16
TORSDOF 5
ENDMDL
MODEL 8
REMARK VINA RESULT:      -5.4      2.994      5.730
REMARK  Name = 193166
REMARK  5 active torsions:
REMARK  status: ('A' for Active; 'I' for Inactive)
REMARK    1  A    between atoms: N_1  and  C_13
REMARK    2  A    between atoms: C_11  and  O_15
REMARK    3  A    between atoms: C_11  and  C_19
REMARK    4  A    between atoms: C_12  and  O_17
REMARK    5  A    between atoms: C_19  and  O_20
REMARK                            x       y       z     vdW  Elec       q    Type
REMARK                         _______ _______ _______ _____ _____    ______ ____
ROOT
ATOM      1  N   UNL     1     -36.632  24.498   3.511  0.00  0.00    -0.247 N 
ATOM      2  N   UNL     1     -37.607  23.226   1.962  0.00  0.00    -0.242 NA
ATOM      3  N   UNL     1     -35.272  22.825   4.631  0.00  0.00    -0.228 NA
ATOM      4  N   UNL     1     -35.564  20.624   3.618  0.00  0.00    -0.229 NA
ATOM      5  C   UNL     1     -36.151  23.234   3.703  0.00  0.00    +0.152 C 
ATOM      6  C   UNL     1     -37.502  24.442   2.455  0.00  0.00    +0.223 C 
ATOM      7  C   UNL     1     -36.768  22.460   2.733  0.00  0.00    +0.140 C 
ATOM      8  C   UNL     1     -36.445  21.107   2.709  0.00  0.00    +0.143 C 
ATOM      9  C   UNL     1     -35.040  21.500   4.509  0.00  0.00    +0.253 C 
ATOM     10  N   UNL     1     -37.022  20.248   1.758  0.00  0.00    -0.342 N 
ATOM     11  H   UNL     1     -36.787  19.292   1.750  0.00  0.00    +0.144 HD
ATOM     12  H   UNL     1     -37.662  20.603   1.099  0.00  0.00    +0.144 HD
ENDROOT
BRANCH   1  16
ATOM     13  O   UNL     1     -35.882  25.325   5.612  0.00  0.00    -0.333 OA
ATOM     14  C   UNL     1     -33.971  26.249   4.577  0.00  0.00    +0.171 C 
ATOM     15  C   UNL     1     -35.158  26.524   3.662  0.00  0.00    +0.187 C 
ATOM     16  C   UNL     1     -36.288  25.696   4.282  0.00  0.00    +0.225 C 
ATOM     17  C   UNL     1     -34.645  25.989   5.914  0.00  0.00    +0.176 C 
BRANCH  14  18
ATOM     18  O   UNL     1     -33.335  25.039   4.162  0.00  0.00    -0.379 OA
ATOM     19  H   UNL     1     -32.696  25.234   3.459  0.00  0.00    +0.211 HD
ENDBRANCH  14  18
BRANCH  15  20
ATOM     20  O   UNL     1     -35.551  27.892   3.711  0.00  0.00    -0.378 OA
ATOM     21  H   UNL     1     -35.671  28.228   2.809  0.00  0.00    +0.211 HD
ENDBRANCH  15  20
BRANCH  14  22
ATOM     22  C   UNL     1     -32.912  27.339   4.658  0.00  0.00    +0.169 C 
BRANCH  22  23
ATOM     23  O   UNL     1     -32.785  27.752   6.008  0.00  0.00    -0.379 OA
ATOM     24  H   UNL     1     -33.663  27.796   6.417  0.00  0.00    +0.211 HD
ENDBRANCH  22  23
ENDBRANCH  14  22
ENDBRANCH   1  16
TORSDOF 5
ENDMDL
MODEL 9
REMARK VINA RESULT:      -5.4      3.486      5.856
REMARK  Name = 193166
REMARK  5 active torsions:
REMARK  status: ('A' for Active; 'I' for Inactive)
REMARK    1  A    between atoms: N_1  and  C_13
REMARK    2  A    between atoms: C_11  and  O_15
REMARK    3  A    between atoms: C_11  and  C_19
REMARK    4  A    between atoms: C_12  and  O_17
REMARK    5  A    between atoms: C_19  and  O_20
REMARK                            x       y       z     vdW  Elec       q    Type
REMARK                         _______ _______ _______ _____ _____    ______ ____
ROOT
ATOM      1  N   UNL     1     -35.664  22.239   2.119  0.00  0.00    -0.247 N 
ATOM      2  N   UNL     1     -35.940  20.033   2.293  0.00  0.00    -0.242 NA
ATOM      3  N   UNL     1     -33.809  22.305   0.553  0.00  0.00    -0.228 NA
ATOM      4  N   UNL     1     -33.116  20.057  -0.095  0.00  0.00    -0.229 NA
ATOM      5  C   UNL     1     -34.722  21.675   1.307  0.00  0.00    +0.152 C 
ATOM      6  C   UNL     1     -36.371  21.213   2.690  0.00  0.00    +0.223 C 
ATOM      7  C   UNL     1     -34.910  20.308   1.429  0.00  0.00    +0.140 C 
ATOM      8  C   UNL     1     -34.062  19.488   0.689  0.00  0.00    +0.143 C 
ATOM      9  C   UNL     1     -33.048  21.410  -0.115  0.00  0.00    +0.253 C 
ATOM     10  N   UNL     1     -34.183  18.089   0.751  0.00  0.00    -0.342 N 
ATOM     11  H   UNL     1     -33.578  17.518   0.224  0.00  0.00    +0.144 HD
ATOM     12  H   UNL     1     -34.873  17.679   1.322  0.00  0.00    +0.144 HD
ENDROOT
BRANCH   1  16
ATOM     13  O   UNL     1     -37.273  23.910   2.644  0.00  0.00    -0.333 OA
ATOM     14  C   UNL     1     -36.075  24.462   4.603  0.00  0.00    +0.171 C 
ATOM     15  C   UNL     1     -35.053  24.249   3.493  0.00  0.00    +0.187 C 
ATOM     16  C   UNL     1     -35.887  23.669   2.345  0.00  0.00    +0.225 C 
ATOM     17  C   UNL     1     -37.352  24.728   3.822  0.00  0.00    +0.176 C 
BRANCH  14  18
ATOM     18  O   UNL     1     -36.245  23.238   5.321  0.00  0.00    -0.379 OA
ATOM     19  H   UNL     1     -37.029  22.774   4.988  0.00  0.00    +0.211 HD
ENDBRANCH  14  18
BRANCH  15  20
ATOM     20  O   UNL     1     -34.502  25.483   3.044  0.00  0.00    -0.378 OA
ATOM     21  H   UNL     1     -33.934  25.855   3.737  0.00  0.00    +0.211 HD
ENDBRANCH  15  20
BRANCH  14  22
ATOM     22  C   UNL     1     -35.763  25.563   5.607  0.00  0.00    +0.169 C 
BRANCH  22  23
ATOM     23  O   UNL     1     -36.421  26.751   5.199  0.00  0.00    -0.379 OA
ATOM     24  H   UNL     1     -36.359  27.413   5.905  0.00  0.00    +0.211 HD
ENDBRANCH  22  23
ENDBRANCH  14  22
ENDBRANCH   1  16
TORSDOF 5
ENDMDL
