MODEL 1
REMARK VINA RESULT:      -5.9      0.000      0.000
REMARK  Name = 192915
REMARK  3 active torsions:
REMARK  status: ('A' for Active; 'I' for Inactive)
REMARK    1  A    between atoms: P_1  and  O_23
REMARK    2  A    between atoms: C_7  and  O_21
REMARK    3  A    between atoms: C_9  and  N_12
REMARK                            x       y       z     vdW  Elec       q    Type
REMARK                         _______ _______ _______ _____ _____    ______ ____
ROOT
ATOM      1  P   UNL     1     -38.883  21.709   1.361  0.00  0.00    +0.477 P 
ATOM      2  O   UNL     1     -35.328  22.251   0.963  0.00  0.00    -0.332 OA
ATOM      3  O   UNL     1     -37.852  21.390   2.559  0.00  0.00    -0.269 OA
ATOM      4  O   UNL     1     -38.030  22.589   0.313  0.00  0.00    -0.271 OA
ATOM      5  O   UNL     1     -40.210  22.275   1.779  0.00  0.00    -0.227 OA
ATOM      6  C   UNL     1     -36.572  20.797   2.383  0.00  0.00    +0.203 C 
ATOM      7  C   UNL     1     -36.380  20.117   1.044  0.00  0.00    +0.172 C 
ATOM      8  C   UNL     1     -35.972  21.268   0.128  0.00  0.00    +0.176 C 
ATOM      9  C   UNL     1     -35.480  21.863   2.337  0.00  0.00    +0.237 C 
ATOM     10  C   UNL     1     -37.135  21.950  -0.587  0.00  0.00    +0.186 C 
ENDROOT
BRANCH   9  12
ATOM     11  O   UNL     1     -35.517  21.926   5.155  0.00  0.00    -0.193 OA
ATOM     12  N   UNL     1     -35.748  23.023   3.136  0.00  0.00    -0.178 N 
ATOM     13  N   UNL     1     -36.018  24.138   5.262  0.00  0.00    -0.306 NA
ATOM     14  N   UNL     1     -36.533  26.403   5.366  0.00  0.00    -0.332 N 
ATOM     15  C   UNL     1     -36.017  24.226   2.499  0.00  0.00    +0.083 C 
ATOM     16  C   UNL     1     -35.750  22.977   4.555  0.00  0.00    +0.276 C 
ATOM     17  C   UNL     1     -36.278  25.351   3.161  0.00  0.00    +0.065 C 
ATOM     18  C   UNL     1     -36.269  25.262   4.645  0.00  0.00    +0.193 C 
ATOM     19  H   UNL     1     -36.533  26.373   6.351  0.00  0.00    +0.145 HD
ATOM     20  H   UNL     1     -36.721  27.248   4.900  0.00  0.00    +0.145 HD
ENDBRANCH   9  12
BRANCH   7  21
ATOM     21  O   UNL     1     -35.311  19.175   1.132  0.00  0.00    -0.379 OA
ATOM     22  H   UNL     1     -35.339  18.580   0.366  0.00  0.00    +0.211 HD
ENDBRANCH   7  21
BRANCH   1  23
ATOM     23  O   UNL     1     -38.994  20.276   0.616  0.00  0.00    -0.302 OA
ATOM     24  H   UNL     1     -39.541  19.676   1.148  0.00  0.00    +0.222 HD
ENDBRANCH   1  23
TORSDOF 3
ENDMDL
MODEL 2
REMARK VINA RESULT:      -5.9      2.853      5.373
REMARK  Name = 192915
REMARK  3 active torsions:
REMARK  status: ('A' for Active; 'I' for Inactive)
REMARK    1  A    between atoms: P_1  and  O_23
REMARK    2  A    between atoms: C_7  and  O_21
REMARK    3  A    between atoms: C_9  and  N_12
REMARK                            x       y       z     vdW  Elec       q    Type
REMARK                         _______ _______ _______ _____ _____    ______ ____
ROOT
ATOM      1  P   UNL     1     -35.933  25.006   4.778  0.00  0.00    +0.477 P 
ATOM      2  O   UNL     1     -36.856  25.182   1.284  0.00  0.00    -0.332 OA
ATOM      3  O   UNL     1     -37.118  24.090   4.181  0.00  0.00    -0.269 OA
ATOM      4  O   UNL     1     -35.162  25.571   3.478  0.00  0.00    -0.271 OA
ATOM      5  O   UNL     1     -35.077  24.360   5.829  0.00  0.00    -0.227 OA
ATOM      6  C   UNL     1     -38.073  24.530   3.225  0.00  0.00    +0.203 C 
ATOM      7  C   UNL     1     -38.161  26.035   3.082  0.00  0.00    +0.172 C 
ATOM      8  C   UNL     1     -37.035  26.355   2.103  0.00  0.00    +0.176 C 
ATOM      9  C   UNL     1     -37.661  24.118   1.814  0.00  0.00    +0.237 C 
ATOM     10  C   UNL     1     -35.696  26.676   2.761  0.00  0.00    +0.186 C 
ENDROOT
BRANCH   9  12
ATOM     11  O   UNL     1     -38.768  21.553   2.182  0.00  0.00    -0.193 OA
ATOM     12  N   UNL     1     -36.934  22.885   1.745  0.00  0.00    -0.178 N 
ATOM     13  N   UNL     1     -36.796  20.476   1.860  0.00  0.00    -0.306 NA
ATOM     14  N   UNL     1     -34.772  19.379   1.531  0.00  0.00    -0.332 N 
ATOM     15  C   UNL     1     -35.573  22.925   1.478  0.00  0.00    +0.083 C 
ATOM     16  C   UNL     1     -37.562  21.627   1.942  0.00  0.00    +0.276 C 
ATOM     17  C   UNL     1     -34.820  21.830   1.397  0.00  0.00    +0.065 C 
ATOM     18  C   UNL     1     -35.515  20.533   1.608  0.00  0.00    +0.193 C 
ATOM     19  H   UNL     1     -35.207  18.505   1.666  0.00  0.00    +0.145 HD
ATOM     20  H   UNL     1     -33.808  19.424   1.341  0.00  0.00    +0.145 HD
ENDBRANCH   9  12
BRANCH   7  21
ATOM     21  O   UNL     1     -39.416  26.390   2.499  0.00  0.00    -0.379 OA
ATOM     22  H   UNL     1     -39.289  26.603   1.561  0.00  0.00    +0.211 HD
ENDBRANCH   7  21
BRANCH   1  23
ATOM     23  O   UNL     1     -36.740  26.306   5.306  0.00  0.00    -0.302 OA
ATOM     24  H   UNL     1     -37.162  26.102   6.157  0.00  0.00    +0.222 HD
ENDBRANCH   1  23
TORSDOF 3
ENDMDL
MODEL 3
REMARK VINA RESULT:      -5.8      3.265      4.212
REMARK  Name = 192915
REMARK  3 active torsions:
REMARK  status: ('A' for Active; 'I' for Inactive)
REMARK    1  A    between atoms: P_1  and  O_23
REMARK    2  A    between atoms: C_7  and  O_21
REMARK    3  A    between atoms: C_9  and  N_12
REMARK                            x       y       z     vdW  Elec       q    Type
REMARK                         _______ _______ _______ _____ _____    ______ ____
ROOT
ATOM      1  P   UNL     1     -37.732  25.391   2.982  0.00  0.00    +0.477 P 
ATOM      2  O   UNL     1     -34.571  23.646   3.219  0.00  0.00    -0.332 OA
ATOM      3  O   UNL     1     -36.768  25.581   4.260  0.00  0.00    -0.269 OA
ATOM      4  O   UNL     1     -36.804  24.671   1.876  0.00  0.00    -0.271 OA
ATOM      5  O   UNL     1     -38.467  26.621   2.533  0.00  0.00    -0.227 OA
ATOM      6  C   UNL     1     -36.033  24.533   4.878  0.00  0.00    +0.203 C 
ATOM      7  C   UNL     1     -36.506  23.142   4.511  0.00  0.00    +0.172 C 
ATOM      8  C   UNL     1     -35.786  22.869   3.193  0.00  0.00    +0.176 C 
ATOM      9  C   UNL     1     -34.594  24.504   4.369  0.00  0.00    +0.237 C 
ATOM     10  C   UNL     1     -36.572  23.271   1.948  0.00  0.00    +0.186 C 
ENDROOT
BRANCH   9  12
ATOM     11  O   UNL     1     -33.854  26.513   6.203  0.00  0.00    -0.193 OA
ATOM     12  N   UNL     1     -34.063  25.789   4.021  0.00  0.00    -0.178 N 
ATOM     13  N   UNL     1     -33.204  27.973   4.592  0.00  0.00    -0.306 NA
ATOM     14  N   UNL     1     -32.541  29.466   2.937  0.00  0.00    -0.332 N 
ATOM     15  C   UNL     1     -33.888  26.098   2.679  0.00  0.00    +0.083 C 
ATOM     16  C   UNL     1     -33.712  26.752   5.002  0.00  0.00    +0.276 C 
ATOM     17  C   UNL     1     -33.403  27.267   2.265  0.00  0.00    +0.065 C 
ATOM     18  C   UNL     1     -33.047  28.247   3.323  0.00  0.00    +0.193 C 
ATOM     19  H   UNL     1     -32.296  30.135   3.617  0.00  0.00    +0.145 HD
ATOM     20  H   UNL     1     -32.423  29.670   1.982  0.00  0.00    +0.145 HD
ENDBRANCH   9  12
BRANCH   7  21
ATOM     21  O   UNL     1     -36.065  22.208   5.497  0.00  0.00    -0.379 OA
ATOM     22  H   UNL     1     -35.143  22.397   5.734  0.00  0.00    +0.211 HD
ENDBRANCH   7  21
BRANCH   1  23
ATOM     23  O   UNL     1     -38.707  24.191   3.465  0.00  0.00    -0.302 OA
ATOM     24  H   UNL     1     -39.631  24.483   3.410  0.00  0.00    +0.222 HD
ENDBRANCH   1  23
TORSDOF 3
ENDMDL
MODEL 4
REMARK VINA RESULT:      -5.7      3.155      5.315
REMARK  Name = 192915
REMARK  3 active torsions:
REMARK  status: ('A' for Active; 'I' for Inactive)
REMARK    1  A    between atoms: P_1  and  O_23
REMARK    2  A    between atoms: C_7  and  O_21
REMARK    3  A    between atoms: C_9  and  N_12
REMARK                            x       y       z     vdW  Elec       q    Type
REMARK                         _______ _______ _______ _____ _____    ______ ____
ROOT
ATOM      1  P   UNL     1     -35.420  22.722   4.125  0.00  0.00    +0.477 P 
ATOM      2  O   UNL     1     -36.313  25.642   2.184  0.00  0.00    -0.332 OA
ATOM      3  O   UNL     1     -36.820  23.485   4.363  0.00  0.00    -0.269 OA
ATOM      4  O   UNL     1     -34.873  23.303   2.723  0.00  0.00    -0.271 OA
ATOM      5  O   UNL     1     -35.464  21.227   4.254  0.00  0.00    -0.227 OA
ATOM      6  C   UNL     1     -36.982  24.897   4.346  0.00  0.00    +0.203 C 
ATOM      7  C   UNL     1     -35.688  25.672   4.481  0.00  0.00    +0.172 C 
ATOM      8  C   UNL     1     -35.161  25.716   3.049  0.00  0.00    +0.176 C 
ATOM      9  C   UNL     1     -37.476  25.373   2.982  0.00  0.00    +0.237 C 
ATOM     10  C   UNL     1     -34.226  24.567   2.683  0.00  0.00    +0.186 C 
ENDROOT
BRANCH   9  12
ATOM     11  O   UNL     1     -40.095  24.679   3.758  0.00  0.00    -0.193 OA
ATOM     12  N   UNL     1     -38.322  24.439   2.299  0.00  0.00    -0.178 N 
ATOM     13  N   UNL     1     -40.394  23.226   2.040  0.00  0.00    -0.306 NA
ATOM     14  N   UNL     1     -40.695  21.737   0.279  0.00  0.00    -0.332 N 
ATOM     15  C   UNL     1     -37.839  23.808   1.161  0.00  0.00    +0.083 C 
ATOM     16  C   UNL     1     -39.634  24.139   2.751  0.00  0.00    +0.276 C 
ATOM     17  C   UNL     1     -38.554  22.926   0.465  0.00  0.00    +0.065 C 
ATOM     18  C   UNL     1     -39.923  22.641   0.970  0.00  0.00    +0.193 C 
ATOM     19  H   UNL     1     -41.606  21.529   0.590  0.00  0.00    +0.145 HD
ATOM     20  H   UNL     1     -40.338  21.299  -0.527  0.00  0.00    +0.145 HD
ENDBRANCH   9  12
BRANCH   7  21
ATOM     21  O   UNL     1     -35.966  27.000   4.928  0.00  0.00    -0.379 OA
ATOM     22  H   UNL     1     -35.292  27.606   4.583  0.00  0.00    +0.211 HD
ENDBRANCH   7  21
BRANCH   1  23
ATOM     23  O   UNL     1     -34.453  23.439   5.209  0.00  0.00    -0.302 OA
ATOM     24  H   UNL     1     -33.690  22.867   5.390  0.00  0.00    +0.222 HD
ENDBRANCH   1  23
TORSDOF 3
ENDMDL
MODEL 5
REMARK VINA RESULT:      -5.7      2.282      2.567
REMARK  Name = 192915
REMARK  3 active torsions:
REMARK  status: ('A' for Active; 'I' for Inactive)
REMARK    1  A    between atoms: P_1  and  O_23
REMARK    2  A    between atoms: C_7  and  O_21
REMARK    3  A    between atoms: C_9  and  N_12
REMARK                            x       y       z     vdW  Elec       q    Type
REMARK                         _______ _______ _______ _____ _____    ______ ____
ROOT
ATOM      1  P   UNL     1     -38.626  25.082   2.248  0.00  0.00    +0.477 P 
ATOM      2  O   UNL     1     -35.716  23.006   1.692  0.00  0.00    -0.332 OA
ATOM      3  O   UNL     1     -37.991  24.200   3.439  0.00  0.00    -0.269 OA
ATOM      4  O   UNL     1     -37.499  25.079   1.095  0.00  0.00    -0.271 OA
ATOM      5  O   UNL     1     -39.163  26.426   2.649  0.00  0.00    -0.227 OA
ATOM      6  C   UNL     1     -37.485  22.881   3.283  0.00  0.00    +0.203 C 
ATOM      7  C   UNL     1     -37.930  22.191   2.011  0.00  0.00    +0.172 C 
ATOM      8  C   UNL     1     -36.929  22.697   0.976  0.00  0.00    +0.176 C 
ATOM      9  C   UNL     1     -35.969  22.898   3.101  0.00  0.00    +0.237 C 
ATOM     10  C   UNL     1     -37.368  23.956   0.234  0.00  0.00    +0.186 C 
ENDROOT
BRANCH   9  12
ATOM     11  O   UNL     1     -35.834  23.188   5.901  0.00  0.00    -0.193 OA
ATOM     12  N   UNL     1     -35.301  23.961   3.793  0.00  0.00    -0.178 N 
ATOM     13  N   UNL     1     -34.609  25.097   5.809  0.00  0.00    -0.306 NA
ATOM     14  N   UNL     1     -33.356  27.053   5.708  0.00  0.00    -0.332 N 
ATOM     15  C   UNL     1     -34.660  24.942   3.049  0.00  0.00    +0.083 C 
ATOM     16  C   UNL     1     -35.275  24.041   5.209  0.00  0.00    +0.276 C 
ATOM     17  C   UNL     1     -34.016  25.966   3.607  0.00  0.00    +0.065 C 
ATOM     18  C   UNL     1     -34.011  26.012   5.093  0.00  0.00    +0.193 C 
ATOM     19  H   UNL     1     -33.336  27.109   6.691  0.00  0.00    +0.145 HD
ATOM     20  H   UNL     1     -32.906  27.741   5.167  0.00  0.00    +0.145 HD
ENDBRANCH   9  12
BRANCH   7  21
ATOM     21  O   UNL     1     -37.792  20.777   2.157  0.00  0.00    -0.379 OA
ATOM     22  H   UNL     1     -37.949  20.346   1.302  0.00  0.00    +0.211 HD
ENDBRANCH   7  21
BRANCH   1  23
ATOM     23  O   UNL     1     -39.752  24.085   1.648  0.00  0.00    -0.302 OA
ATOM     24  H   UNL     1     -39.573  23.922   0.708  0.00  0.00    +0.222 HD
ENDBRANCH   1  23
TORSDOF 3
ENDMDL
MODEL 6
REMARK VINA RESULT:      -5.6      3.241      5.663
REMARK  Name = 192915
REMARK  3 active torsions:
REMARK  status: ('A' for Active; 'I' for Inactive)
REMARK    1  A    between atoms: P_1  and  O_23
REMARK    2  A    between atoms: C_7  and  O_21
REMARK    3  A    between atoms: C_9  and  N_12
REMARK                            x       y       z     vdW  Elec       q    Type
REMARK                         _______ _______ _______ _____ _____    ______ ____
ROOT
ATOM      1  P   UNL     1     -33.388  25.745   2.708  0.00  0.00    +0.477 P 
ATOM      2  O   UNL     1     -36.906  24.963   3.036  0.00  0.00    -0.332 OA
ATOM      3  O   UNL     1     -33.916  24.738   3.851  0.00  0.00    -0.269 OA
ATOM      4  O   UNL     1     -34.633  25.897   1.694  0.00  0.00    -0.271 OA
ATOM      5  O   UNL     1     -32.066  25.392   2.090  0.00  0.00    -0.227 OA
ATOM      6  C   UNL     1     -35.110  24.924   4.600  0.00  0.00    +0.203 C 
ATOM      7  C   UNL     1     -35.668  26.331   4.541  0.00  0.00    +0.172 C 
ATOM      8  C   UNL     1     -36.481  26.325   3.249  0.00  0.00    +0.176 C 
ATOM      9  C   UNL     1     -36.260  24.119   4.000  0.00  0.00    +0.237 C 
ATOM     10  C   UNL     1     -35.706  26.773   2.012  0.00  0.00    +0.186 C 
ENDROOT
BRANCH   9  12
ATOM     11  O   UNL     1     -35.488  21.774   5.360  0.00  0.00    -0.193 OA
ATOM     12  N   UNL     1     -35.862  22.892   3.375  0.00  0.00    -0.178 N 
ATOM     13  N   UNL     1     -35.112  20.597   3.455  0.00  0.00    -0.306 NA
ATOM     14  N   UNL     1     -34.727  19.398   1.501  0.00  0.00    -0.332 N 
ATOM     15  C   UNL     1     -35.844  22.824   1.989  0.00  0.00    +0.083 C 
ATOM     16  C   UNL     1     -35.485  21.749   4.127  0.00  0.00    +0.276 C 
ATOM     17  C   UNL     1     -35.487  21.726   1.325  0.00  0.00    +0.065 C 
ATOM     18  C   UNL     1     -35.101  20.551   2.149  0.00  0.00    +0.193 C 
ATOM     19  H   UNL     1     -34.467  18.603   2.022  0.00  0.00    +0.145 HD
ATOM     20  H   UNL     1     -34.720  19.365   0.518  0.00  0.00    +0.145 HD
ENDBRANCH   9  12
BRANCH   7  21
ATOM     21  O   UNL     1     -36.539  26.549   5.651  0.00  0.00    -0.379 OA
ATOM     22  H   UNL     1     -36.768  27.491   5.703  0.00  0.00    +0.211 HD
ENDBRANCH   7  21
BRANCH   1  23
ATOM     23  O   UNL     1     -33.384  27.168   3.482  0.00  0.00    -0.302 OA
ATOM     24  H   UNL     1     -33.894  27.816   2.970  0.00  0.00    +0.222 HD
ENDBRANCH   1  23
TORSDOF 3
ENDMDL
MODEL 7
REMARK VINA RESULT:      -5.5      3.831      5.782
REMARK  Name = 192915
REMARK  3 active torsions:
REMARK  status: ('A' for Active; 'I' for Inactive)
REMARK    1  A    between atoms: P_1  and  O_23
REMARK    2  A    between atoms: C_7  and  O_21
REMARK    3  A    between atoms: C_9  and  N_12
REMARK                            x       y       z     vdW  Elec       q    Type
REMARK                         _______ _______ _______ _____ _____    ______ ____
ROOT
ATOM      1  P   UNL     1     -32.807  26.271   2.185  0.00  0.00    +0.477 P 
ATOM      2  O   UNL     1     -36.330  25.702   1.588  0.00  0.00    -0.332 OA
ATOM      3  O   UNL     1     -33.896  26.484   3.355  0.00  0.00    -0.269 OA
ATOM      4  O   UNL     1     -33.596  25.456   1.039  0.00  0.00    -0.271 OA
ATOM      5  O   UNL     1     -31.489  25.697   2.621  0.00  0.00    -0.227 OA
ATOM      6  C   UNL     1     -35.178  27.068   3.164  0.00  0.00    +0.203 C 
ATOM      7  C   UNL     1     -35.324  27.841   1.870  0.00  0.00    +0.172 C 
ATOM      8  C   UNL     1     -35.669  26.754   0.856  0.00  0.00    +0.176 C 
ATOM      9  C   UNL     1     -36.247  25.991   2.991  0.00  0.00    +0.237 C 
ATOM     10  C   UNL     1     -34.462  26.145   0.147  0.00  0.00    +0.186 C 
ENDROOT
BRANCH   9  12
ATOM     11  O   UNL     1     -36.224  25.748   5.799  0.00  0.00    -0.193 OA
ATOM     12  N   UNL     1     -35.991  24.781   3.716  0.00  0.00    -0.178 N 
ATOM     13  N   UNL     1     -35.741  23.530   5.768  0.00  0.00    -0.306 NA
ATOM     14  N   UNL     1     -35.245  21.259   5.729  0.00  0.00    -0.332 N 
ATOM     15  C   UNL     1     -35.730  23.618   3.005  0.00  0.00    +0.083 C 
ATOM     16  C   UNL     1     -35.996  24.735   5.135  0.00  0.00    +0.276 C 
ATOM     17  C   UNL     1     -35.480  22.451   3.595  0.00  0.00    +0.065 C 
ATOM     18  C   UNL     1     -35.496  22.445   5.081  0.00  0.00    +0.193 C 
ATOM     19  H   UNL     1     -35.249  21.225   6.714  0.00  0.00    +0.145 HD
ATOM     20  H   UNL     1     -35.061  20.443   5.211  0.00  0.00    +0.145 HD
ENDBRANCH   9  12
BRANCH   7  21
ATOM     21  O   UNL     1     -36.414  28.757   1.978  0.00  0.00    -0.379 OA
ATOM     22  H   UNL     1     -36.858  28.634   2.832  0.00  0.00    +0.211 HD
ENDBRANCH   7  21
BRANCH   1  23
ATOM     23  O   UNL     1     -32.691  27.756   1.551  0.00  0.00    -0.302 OA
ATOM     24  H   UNL     1     -33.094  28.399   2.157  0.00  0.00    +0.222 HD
ENDBRANCH   1  23
TORSDOF 3
ENDMDL
MODEL 8
REMARK VINA RESULT:      -5.5      2.869      5.210
REMARK  Name = 192915
REMARK  3 active torsions:
REMARK  status: ('A' for Active; 'I' for Inactive)
REMARK    1  A    between atoms: P_1  and  O_23
REMARK    2  A    between atoms: C_7  and  O_21
REMARK    3  A    between atoms: C_9  and  N_12
REMARK                            x       y       z     vdW  Elec       q    Type
REMARK                         _______ _______ _______ _____ _____    ______ ____
ROOT
ATOM      1  P   UNL     1     -35.453  25.621   1.274  0.00  0.00    +0.477 P 
ATOM      2  O   UNL     1     -37.979  24.558   3.636  0.00  0.00    -0.332 OA
ATOM      3  O   UNL     1     -35.077  24.686   2.532  0.00  0.00    -0.269 OA
ATOM      4  O   UNL     1     -37.062  25.559   1.188  0.00  0.00    -0.271 OA
ATOM      5  O   UNL     1     -34.707  25.330   0.003  0.00  0.00    -0.227 OA
ATOM      6  C   UNL     1     -35.621  24.834   3.837  0.00  0.00    +0.203 C 
ATOM      7  C   UNL     1     -36.288  26.172   4.084  0.00  0.00    +0.172 C 
ATOM      8  C   UNL     1     -37.692  25.966   3.522  0.00  0.00    +0.176 C 
ATOM      9  C   UNL     1     -36.788  23.874   4.053  0.00  0.00    +0.237 C 
ATOM     10  C   UNL     1     -37.850  26.360   2.056  0.00  0.00    +0.186 C 
ENDROOT
BRANCH   9  12
ATOM     11  O   UNL     1     -34.985  21.800   4.680  0.00  0.00    -0.193 OA
ATOM     12  N   UNL     1     -36.673  22.633   3.344  0.00  0.00    -0.178 N 
ATOM     13  N   UNL     1     -35.683  20.458   2.988  0.00  0.00    -0.306 NA
ATOM     14  N   UNL     1     -36.403  19.089   1.252  0.00  0.00    -0.332 N 
ATOM     15  C   UNL     1     -37.503  22.406   2.256  0.00  0.00    +0.083 C 
ATOM     16  C   UNL     1     -35.738  21.633   3.720  0.00  0.00    +0.276 C 
ATOM     17  C   UNL     1     -37.464  21.284   1.539  0.00  0.00    +0.065 C 
ATOM     18  C   UNL     1     -36.473  20.262   1.965  0.00  0.00    +0.193 C 
ATOM     19  H   UNL     1     -35.755  18.393   1.512  0.00  0.00    +0.145 HD
ATOM     20  H   UNL     1     -36.998  18.942   0.483  0.00  0.00    +0.145 HD
ENDBRANCH   9  12
BRANCH   7  21
ATOM     21  O   UNL     1     -36.367  26.417   5.489  0.00  0.00    -0.379 OA
ATOM     22  H   UNL     1     -35.474  26.414   5.869  0.00  0.00    +0.211 HD
ENDBRANCH   7  21
BRANCH   1  23
ATOM     23  O   UNL     1     -35.184  27.106   1.860  0.00  0.00    -0.302 OA
ATOM     24  H   UNL     1     -35.245  27.088   2.829  0.00  0.00    +0.222 HD
ENDBRANCH   1  23
TORSDOF 3
ENDMDL
MODEL 9
REMARK VINA RESULT:      -5.3      2.016      3.084
REMARK  Name = 192915
REMARK  3 active torsions:
REMARK  status: ('A' for Active; 'I' for Inactive)
REMARK    1  A    between atoms: P_1  and  O_23
REMARK    2  A    between atoms: C_7  and  O_21
REMARK    3  A    between atoms: C_9  and  N_12
REMARK                            x       y       z     vdW  Elec       q    Type
REMARK                         _______ _______ _______ _____ _____    ______ ____
ROOT
ATOM      1  P   UNL     1     -35.166  23.126   0.270  0.00  0.00    +0.477 P 
ATOM      2  O   UNL     1     -35.986  21.372   3.327  0.00  0.00    -0.332 OA
ATOM      3  O   UNL     1     -36.364  23.629   1.224  0.00  0.00    -0.269 OA
ATOM      4  O   UNL     1     -34.341  22.075   1.173  0.00  0.00    -0.271 OA
ATOM      5  O   UNL     1     -34.362  24.210  -0.390  0.00  0.00    -0.227 OA
ATOM      6  C   UNL     1     -37.278  22.768   1.892  0.00  0.00    +0.203 C 
ATOM      7  C   UNL     1     -37.310  21.355   1.349  0.00  0.00    +0.172 C 
ATOM      8  C   UNL     1     -36.147  20.681   2.072  0.00  0.00    +0.176 C 
ATOM      9  C   UNL     1     -36.841  22.525   3.335  0.00  0.00    +0.237 C 
ATOM     10  C   UNL     1     -34.817  20.745   1.327  0.00  0.00    +0.186 C 
ENDROOT
BRANCH   9  12
ATOM     11  O   UNL     1     -38.033  24.961   4.101  0.00  0.00    -0.193 OA
ATOM     12  N   UNL     1     -36.155  23.628   3.941  0.00  0.00    -0.178 N 
ATOM     13  N   UNL     1     -36.097  25.852   4.882  0.00  0.00    -0.306 NA
ATOM     14  N   UNL     1     -34.110  26.760   5.679  0.00  0.00    -0.332 N 
ATOM     15  C   UNL     1     -34.793  23.517   4.180  0.00  0.00    +0.083 C 
ATOM     16  C   UNL     1     -36.824  24.827   4.300  0.00  0.00    +0.276 C 
ATOM     17  C   UNL     1     -34.076  24.492   4.737  0.00  0.00    +0.065 C 
ATOM     18  C   UNL     1     -34.814  25.730   5.100  0.00  0.00    +0.193 C 
ATOM     19  H   UNL     1     -34.573  27.592   5.930  0.00  0.00    +0.145 HD
ATOM     20  H   UNL     1     -33.144  26.666   5.843  0.00  0.00    +0.145 HD
ENDBRANCH   9  12
BRANCH   7  21
ATOM     21  O   UNL     1     -38.536  20.724   1.724  0.00  0.00    -0.379 OA
ATOM     22  H   UNL     1     -39.177  21.399   1.997  0.00  0.00    +0.211 HD
ENDBRANCH   7  21
BRANCH   1  23
ATOM     23  O   UNL     1     -35.943  22.165  -0.776  0.00  0.00    -0.302 OA
ATOM     24  H   UNL     1     -36.484  21.524  -0.286  0.00  0.00    +0.222 HD
ENDBRANCH   1  23
TORSDOF 3
ENDMDL
