MODEL 1
REMARK VINA RESULT:      -5.8      0.000      0.000
REMARK  Name = 515328
REMARK  4 active torsions:
REMARK  status: ('A' for Active; 'I' for Inactive)
REMARK    1  A    between atoms: N_3  and  C1*_15
REMARK    2  A    between atoms: C3*_13  and  O3*_17
REMARK    3  A    between atoms: C4*_16  and  C5*_19
REMARK    4  A    between atoms: C5*_19  and  O5*_20
REMARK                            x       y       z     vdW  Elec       q    Type
REMARK                         _______ _______ _______ _____ _____    ______ ____
ROOT
ATOM      1  F   UNL     1     -34.546  20.099   2.808  0.00  0.00    -0.199 F 
ATOM      2  O   UNL     1     -38.913  23.150   2.291  0.00  0.00    -0.193 OA
ATOM      3  N   UNL     1     -36.784  22.924   3.156  0.00  0.00    -0.178 N 
ATOM      4  N   UNL     1     -37.846  21.198   1.834  0.00  0.00    -0.304 NA
ATOM      5  N   UNL     1     -36.742  19.199   1.371  0.00  0.00    -0.330 N 
ATOM      6  C   UNL     1     -35.663  22.119   3.277  0.00  0.00    +0.113 C 
ATOM      7  C   UNL     1     -37.903  22.456   2.416  0.00  0.00    +0.276 C 
ATOM      8  C   UNL     1     -35.609  20.915   2.718  0.00  0.00    +0.200 C 
ATOM      9  C   UNL     1     -36.785  20.444   1.953  0.00  0.00    +0.220 C 
ATOM     10  H   UNL     1     -37.516  18.870   0.858  0.00  0.00    +0.145 HD
ATOM     11  H   UNL     1     -35.939  18.639   1.465  0.00  0.00    +0.145 HD
ENDROOT
BRANCH   3  15
ATOM     12  O4* UNL     1     -36.245  25.183   2.872  0.00  0.00    -0.334 OA
ATOM     13  C3* UNL     1     -35.496  25.696   5.062  0.00  0.00    +0.144 C 
ATOM     14  C2* UNL     1     -36.015  24.277   5.062  0.00  0.00    +0.084 C 
ATOM     15  C1* UNL     1     -36.814  24.219   3.769  0.00  0.00    +0.209 C 
ATOM     16  C4* UNL     1     -35.284  25.986   3.582  0.00  0.00    +0.173 C 
BRANCH  13  17
ATOM     17  O3* UNL     1     -36.492  26.570   5.590  0.00  0.00    -0.382 OA
ATOM     18  H3* UNL     1     -36.097  27.138   6.270  0.00  0.00    +0.210 HD
ENDBRANCH  13  17
BRANCH  16  19
ATOM     19  C5* UNL     1     -33.895  25.595   3.096  0.00  0.00    +0.169 C 
BRANCH  19  20
ATOM     20  O5* UNL     1     -32.963  25.819   4.142  0.00  0.00    -0.379 OA
ATOM     21  H5* UNL     1     -32.384  26.560   3.907  0.00  0.00    +0.211 HD
ENDBRANCH  19  20
ENDBRANCH  16  19
ENDBRANCH   3  15
TORSDOF 4
ENDMDL
MODEL 2
REMARK VINA RESULT:      -5.5      2.132      2.796
REMARK  Name = 515328
REMARK  4 active torsions:
REMARK  status: ('A' for Active; 'I' for Inactive)
REMARK    1  A    between atoms: N_3  and  C1*_15
REMARK    2  A    between atoms: C3*_13  and  O3*_17
REMARK    3  A    between atoms: C4*_16  and  C5*_19
REMARK    4  A    between atoms: C5*_19  and  O5*_20
REMARK                            x       y       z     vdW  Elec       q    Type
REMARK                         _______ _______ _______ _____ _____    ______ ____
ROOT
ATOM      1  F   UNL     1     -35.221  22.007   0.125  0.00  0.00    -0.199 F 
ATOM      2  O   UNL     1     -35.246  21.124   5.405  0.00  0.00    -0.193 OA
ATOM      3  N   UNL     1     -35.204  22.665   3.686  0.00  0.00    -0.178 N 
ATOM      4  N   UNL     1     -35.266  20.278   3.297  0.00  0.00    -0.304 NA
ATOM      5  N   UNL     1     -35.287  19.422   1.131  0.00  0.00    -0.330 N 
ATOM      6  C   UNL     1     -35.199  22.873   2.316  0.00  0.00    +0.113 C 
ATOM      7  C   UNL     1     -35.240  21.339   4.191  0.00  0.00    +0.276 C 
ATOM      8  C   UNL     1     -35.226  21.857   1.460  0.00  0.00    +0.200 C 
ATOM      9  C   UNL     1     -35.260  20.482   2.005  0.00  0.00    +0.220 C 
ATOM     10  H   UNL     1     -35.310  18.500   1.476  0.00  0.00    +0.145 HD
ATOM     11  H   UNL     1     -35.283  19.584   0.160  0.00  0.00    +0.145 HD
ENDROOT
BRANCH   3  15
ATOM     12  O4* UNL     1     -36.505  24.296   4.746  0.00  0.00    -0.334 OA
ATOM     13  C3* UNL     1     -35.020  26.140   4.621  0.00  0.00    +0.144 C 
ATOM     14  C2* UNL     1     -34.306  24.922   4.082  0.00  0.00    +0.084 C 
ATOM     15  C1* UNL     1     -35.176  23.781   4.586  0.00  0.00    +0.209 C 
ATOM     16  C4* UNL     1     -36.485  25.726   4.580  0.00  0.00    +0.173 C 
BRANCH  13  17
ATOM     17  O3* UNL     1     -34.619  26.374   5.969  0.00  0.00    -0.382 OA
ATOM     18  H3* UNL     1     -33.836  25.838   6.171  0.00  0.00    +0.210 HD
ENDBRANCH  13  17
BRANCH  16  19
ATOM     19  C5* UNL     1     -37.156  26.055   3.253  0.00  0.00    +0.169 C 
BRANCH  19  20
ATOM     20  O5* UNL     1     -38.521  26.359   3.493  0.00  0.00    -0.379 OA
ATOM     21  H5* UNL     1     -39.010  26.336   2.656  0.00  0.00    +0.211 HD
ENDBRANCH  19  20
ENDBRANCH  16  19
ENDBRANCH   3  15
TORSDOF 4
ENDMDL
MODEL 3
REMARK VINA RESULT:      -5.4      2.077      2.713
REMARK  Name = 515328
REMARK  4 active torsions:
REMARK  status: ('A' for Active; 'I' for Inactive)
REMARK    1  A    between atoms: N_3  and  C1*_15
REMARK    2  A    between atoms: C3*_13  and  O3*_17
REMARK    3  A    between atoms: C4*_16  and  C5*_19
REMARK    4  A    between atoms: C5*_19  and  O5*_20
REMARK                            x       y       z     vdW  Elec       q    Type
REMARK                         _______ _______ _______ _____ _____    ______ ____
ROOT
ATOM      1  F   UNL     1     -36.627  21.410   0.009  0.00  0.00    -0.199 F 
ATOM      2  O   UNL     1     -35.160  21.504   5.157  0.00  0.00    -0.193 OA
ATOM      3  N   UNL     1     -36.158  22.611   3.393  0.00  0.00    -0.178 N 
ATOM      4  N   UNL     1     -35.246  20.380   3.185  0.00  0.00    -0.304 NA
ATOM      5  N   UNL     1     -35.340  19.236   1.157  0.00  0.00    -0.330 N 
ATOM      6  C   UNL     1     -36.530  22.567   2.059  0.00  0.00    +0.113 C 
ATOM      7  C   UNL     1     -35.502  21.493   3.972  0.00  0.00    +0.276 C 
ATOM      8  C   UNL     1     -36.287  21.500   1.306  0.00  0.00    +0.200 C 
ATOM      9  C   UNL     1     -35.600  20.346   1.926  0.00  0.00    +0.220 C 
ATOM     10  H   UNL     1     -34.884  18.459   1.554  0.00  0.00    +0.145 HD
ATOM     11  H   UNL     1     -35.611  19.218   0.211  0.00  0.00    +0.145 HD
ENDROOT
BRANCH   3  15
ATOM     12  O4* UNL     1     -37.719  24.302   3.818  0.00  0.00    -0.334 OA
ATOM     13  C3* UNL     1     -36.250  26.133   4.149  0.00  0.00    +0.144 C 
ATOM     14  C2* UNL     1     -35.416  24.885   3.973  0.00  0.00    +0.084 C 
ATOM     15  C1* UNL     1     -36.435  23.776   4.182  0.00  0.00    +0.209 C 
ATOM     16  C4* UNL     1     -37.608  25.720   3.598  0.00  0.00    +0.173 C 
BRANCH  13  17
ATOM     17  O3* UNL     1     -36.363  26.441   5.537  0.00  0.00    -0.382 OA
ATOM     18  H3* UNL     1     -35.692  27.099   5.778  0.00  0.00    +0.210 HD
ENDBRANCH  13  17
BRANCH  16  19
ATOM     19  C5* UNL     1     -37.740  25.975   2.102  0.00  0.00    +0.169 C 
BRANCH  19  20
ATOM     20  O5* UNL     1     -37.626  27.369   1.863  0.00  0.00    -0.379 OA
ATOM     21  H5* UNL     1     -36.800  27.697   2.250  0.00  0.00    +0.211 HD
ENDBRANCH  19  20
ENDBRANCH  16  19
ENDBRANCH   3  15
TORSDOF 4
ENDMDL
MODEL 4
REMARK VINA RESULT:      -5.3      3.496      5.867
REMARK  Name = 515328
REMARK  4 active torsions:
REMARK  status: ('A' for Active; 'I' for Inactive)
REMARK    1  A    between atoms: N_3  and  C1*_15
REMARK    2  A    between atoms: C3*_13  and  O3*_17
REMARK    3  A    between atoms: C4*_16  and  C5*_19
REMARK    4  A    between atoms: C5*_19  and  O5*_20
REMARK                            x       y       z     vdW  Elec       q    Type
REMARK                         _______ _______ _______ _____ _____    ______ ____
ROOT
ATOM      1  F   UNL     1     -36.639  27.434   1.698  0.00  0.00    -0.199 F 
ATOM      2  O   UNL     1     -33.060  26.297   5.514  0.00  0.00    -0.193 OA
ATOM      3  N   UNL     1     -34.656  25.512   4.041  0.00  0.00    -0.178 N 
ATOM      4  N   UNL     1     -34.079  27.855   4.213  0.00  0.00    -0.304 NA
ATOM      5  N   UNL     1     -35.130  29.445   2.873  0.00  0.00    -0.330 N 
ATOM      6  C   UNL     1     -35.577  25.827   3.054  0.00  0.00    +0.113 C 
ATOM      7  C   UNL     1     -33.887  26.548   4.635  0.00  0.00    +0.276 C 
ATOM      8  C   UNL     1     -35.759  27.079   2.649  0.00  0.00    +0.200 C 
ATOM      9  C   UNL     1     -34.950  28.145   3.282  0.00  0.00    +0.220 C 
ATOM     10  H   UNL     1     -34.600  30.167   3.282  0.00  0.00    +0.145 HD
ATOM     11  H   UNL     1     -35.788  29.654   2.171  0.00  0.00    +0.145 HD
ENDROOT
BRANCH   3  15
ATOM     12  O4* UNL     1     -34.759  23.278   3.354  0.00  0.00    -0.334 OA
ATOM     13  C3* UNL     1     -35.674  22.297   5.309  0.00  0.00    +0.144 C 
ATOM     14  C2* UNL     1     -35.412  23.758   5.593  0.00  0.00    +0.084 C 
ATOM     15  C1* UNL     1     -34.480  24.152   4.457  0.00  0.00    +0.209 C 
ATOM     16  C4* UNL     1     -35.648  22.232   3.788  0.00  0.00    +0.173 C 
BRANCH  13  17
ATOM     17  O3* UNL     1     -34.616  21.506   5.847  0.00  0.00    -0.382 OA
ATOM     18  H3* UNL     1     -34.961  20.637   6.104  0.00  0.00    +0.210 HD
ENDBRANCH  13  17
BRANCH  16  19
ATOM     19  C5* UNL     1     -37.013  22.486   3.161  0.00  0.00    +0.169 C 
BRANCH  19  20
ATOM     20  O5* UNL     1     -37.519  21.262   2.653  0.00  0.00    -0.379 OA
ATOM     21  H5* UNL     1     -36.866  20.863   2.057  0.00  0.00    +0.211 HD
ENDBRANCH  19  20
ENDBRANCH  16  19
ENDBRANCH   3  15
TORSDOF 4
ENDMDL
MODEL 5
REMARK VINA RESULT:      -5.2      2.495      4.231
REMARK  Name = 515328
REMARK  4 active torsions:
REMARK  status: ('A' for Active; 'I' for Inactive)
REMARK    1  A    between atoms: N_3  and  C1*_15
REMARK    2  A    between atoms: C3*_13  and  O3*_17
REMARK    3  A    between atoms: C4*_16  and  C5*_19
REMARK    4  A    between atoms: C5*_19  and  O5*_20
REMARK                            x       y       z     vdW  Elec       q    Type
REMARK                         _______ _______ _______ _____ _____    ______ ____
ROOT
ATOM      1  F   UNL     1     -35.684  21.157   3.343  0.00  0.00    -0.199 F 
ATOM      2  O   UNL     1     -36.040  25.882   5.834  0.00  0.00    -0.193 OA
ATOM      3  N   UNL     1     -36.411  24.658   3.911  0.00  0.00    -0.178 N 
ATOM      4  N   UNL     1     -35.429  23.695   5.902  0.00  0.00    -0.304 NA
ATOM      5  N   UNL     1     -34.807  21.450   5.959  0.00  0.00    -0.330 N 
ATOM      6  C   UNL     1     -36.311  23.427   3.284  0.00  0.00    +0.113 C 
ATOM      7  C   UNL     1     -35.962  24.798   5.251  0.00  0.00    +0.276 C 
ATOM      8  C   UNL     1     -35.802  22.370   3.908  0.00  0.00    +0.200 C 
ATOM      9  C   UNL     1     -35.337  22.536   5.303  0.00  0.00    +0.220 C 
ATOM     10  H   UNL     1     -34.493  21.543   6.888  0.00  0.00    +0.145 HD
ATOM     11  H   UNL     1     -34.742  20.582   5.501  0.00  0.00    +0.145 HD
ENDROOT
BRANCH   3  15
ATOM     12  O4* UNL     1     -38.396  25.746   3.317  0.00  0.00    -0.334 OA
ATOM     13  C3* UNL     1     -37.842  26.419   1.112  0.00  0.00    +0.144 C 
ATOM     14  C2* UNL     1     -36.619  25.785   1.733  0.00  0.00    +0.084 C 
ATOM     15  C1* UNL     1     -36.966  25.782   3.214  0.00  0.00    +0.209 C 
ATOM     16  C4* UNL     1     -38.973  25.939   2.012  0.00  0.00    +0.173 C 
BRANCH  13  17
ATOM     17  O3* UNL     1     -37.735  27.839   1.184  0.00  0.00    -0.382 OA
ATOM     18  H3* UNL     1     -37.335  28.091   2.031  0.00  0.00    +0.210 HD
ENDBRANCH  13  17
BRANCH  16  19
ATOM     19  C5* UNL     1     -39.566  24.612   1.560  0.00  0.00    +0.169 C 
BRANCH  19  20
ATOM     20  O5* UNL     1     -39.820  23.810   2.703  0.00  0.00    -0.379 OA
ATOM     21  H5* UNL     1     -39.918  24.379   3.482  0.00  0.00    +0.211 HD
ENDBRANCH  19  20
ENDBRANCH  16  19
ENDBRANCH   3  15
TORSDOF 4
ENDMDL
MODEL 6
REMARK VINA RESULT:      -5.1      3.151      5.299
REMARK  Name = 515328
REMARK  4 active torsions:
REMARK  status: ('A' for Active; 'I' for Inactive)
REMARK    1  A    between atoms: N_3  and  C1*_15
REMARK    2  A    between atoms: C3*_13  and  O3*_17
REMARK    3  A    between atoms: C4*_16  and  C5*_19
REMARK    4  A    between atoms: C5*_19  and  O5*_20
REMARK                            x       y       z     vdW  Elec       q    Type
REMARK                         _______ _______ _______ _____ _____    ______ ____
ROOT
ATOM      1  F   UNL     1     -37.380  26.097   2.942  0.00  0.00    -0.199 F 
ATOM      2  O   UNL     1     -35.327  21.860   5.490  0.00  0.00    -0.193 OA
ATOM      3  N   UNL     1     -36.285  22.702   3.565  0.00  0.00    -0.178 N 
ATOM      4  N   UNL     1     -35.872  24.064   5.521  0.00  0.00    -0.304 NA
ATOM      5  N   UNL     1     -36.435  26.326   5.541  0.00  0.00    -0.330 N 
ATOM      6  C   UNL     1     -36.812  23.811   2.922  0.00  0.00    +0.113 C 
ATOM      7  C   UNL     1     -35.802  22.829   4.894  0.00  0.00    +0.276 C 
ATOM      8  C   UNL     1     -36.877  24.994   3.522  0.00  0.00    +0.200 C 
ATOM      9  C   UNL     1     -36.371  25.107   4.908  0.00  0.00    +0.220 C 
ATOM     10  H   UNL     1     -36.102  26.419   6.463  0.00  0.00    +0.145 HD
ATOM     11  H   UNL     1     -36.812  27.105   5.072  0.00  0.00    +0.145 HD
ENDROOT
BRANCH   3  15
ATOM     12  O4* UNL     1     -34.977  21.328   2.194  0.00  0.00    -0.334 OA
ATOM     13  C3* UNL     1     -36.669  20.417   0.805  0.00  0.00    +0.144 C 
ATOM     14  C2* UNL     1     -37.335  21.264   1.866  0.00  0.00    +0.084 C 
ATOM     15  C1* UNL     1     -36.226  21.437   2.892  0.00  0.00    +0.209 C 
ATOM     16  C4* UNL     1     -35.222  20.890   0.845  0.00  0.00    +0.173 C 
BRANCH  13  17
ATOM     17  O3* UNL     1     -36.740  19.042   1.176  0.00  0.00    -0.382 OA
ATOM     18  H3* UNL     1     -37.467  18.615   0.696  0.00  0.00    +0.210 HD
ENDBRANCH  13  17
BRANCH  16  19
ATOM     19  C5* UNL     1     -34.959  22.067  -0.086  0.00  0.00    +0.169 C 
BRANCH  19  20
ATOM     20  O5* UNL     1     -34.107  22.990   0.573  0.00  0.00    -0.379 OA
ATOM     21  H5* UNL     1     -34.387  23.895   0.366  0.00  0.00    +0.211 HD
ENDBRANCH  19  20
ENDBRANCH  16  19
ENDBRANCH   3  15
TORSDOF 4
ENDMDL
MODEL 7
REMARK VINA RESULT:      -5.0      3.490      4.446
REMARK  Name = 515328
REMARK  4 active torsions:
REMARK  status: ('A' for Active; 'I' for Inactive)
REMARK    1  A    between atoms: N_3  and  C1*_15
REMARK    2  A    between atoms: C3*_13  and  O3*_17
REMARK    3  A    between atoms: C4*_16  and  C5*_19
REMARK    4  A    between atoms: C5*_19  and  O5*_20
REMARK                            x       y       z     vdW  Elec       q    Type
REMARK                         _______ _______ _______ _____ _____    ______ ____
ROOT
ATOM      1  F   UNL     1     -40.090  23.894   3.241  0.00  0.00    -0.199 F 
ATOM      2  O   UNL     1     -36.539  27.619   1.769  0.00  0.00    -0.193 OA
ATOM      3  N   UNL     1     -36.979  25.733   3.027  0.00  0.00    -0.178 N 
ATOM      4  N   UNL     1     -38.642  26.776   1.614  0.00  0.00    -0.304 NA
ATOM      5  N   UNL     1     -40.797  25.903   1.463  0.00  0.00    -0.330 N 
ATOM      6  C   UNL     1     -37.912  24.778   3.395  0.00  0.00    +0.113 C 
ATOM      7  C   UNL     1     -37.349  26.756   2.115  0.00  0.00    +0.276 C 
ATOM      8  C   UNL     1     -39.150  24.797   2.914  0.00  0.00    +0.200 C 
ATOM      9  C   UNL     1     -39.519  25.871   1.967  0.00  0.00    +0.220 C 
ATOM     10  H   UNL     1     -41.059  26.611   0.830  0.00  0.00    +0.145 HD
ATOM     11  H   UNL     1     -41.450  25.217   1.733  0.00  0.00    +0.145 HD
ENDROOT
BRANCH   3  15
ATOM     12  O4* UNL     1     -35.212  24.323   3.634  0.00  0.00    -0.334 OA
ATOM     13  C3* UNL     1     -34.468  25.430   5.594  0.00  0.00    +0.144 C 
ATOM     14  C2* UNL     1     -35.558  26.267   4.965  0.00  0.00    +0.084 C 
ATOM     15  C1* UNL     1     -35.649  25.688   3.562  0.00  0.00    +0.209 C 
ATOM     16  C4* UNL     1     -34.656  24.069   4.937  0.00  0.00    +0.173 C 
BRANCH  13  17
ATOM     17  O3* UNL     1     -33.192  25.965   5.246  0.00  0.00    -0.382 OA
ATOM     18  H3* UNL     1     -33.311  26.808   4.781  0.00  0.00    +0.210 HD
ENDBRANCH  13  17
BRANCH  16  19
ATOM     19  C5* UNL     1     -35.629  23.176   5.696  0.00  0.00    +0.169 C 
BRANCH  19  20
ATOM     20  O5* UNL     1     -36.170  22.221   4.798  0.00  0.00    -0.379 OA
ATOM     21  H5* UNL     1     -36.446  21.432   5.291  0.00  0.00    +0.211 HD
ENDBRANCH  19  20
ENDBRANCH  16  19
ENDBRANCH   3  15
TORSDOF 4
ENDMDL
MODEL 8
REMARK VINA RESULT:      -4.9      3.033      5.272
REMARK  Name = 515328
REMARK  4 active torsions:
REMARK  status: ('A' for Active; 'I' for Inactive)
REMARK    1  A    between atoms: N_3  and  C1*_15
REMARK    2  A    between atoms: C3*_13  and  O3*_17
REMARK    3  A    between atoms: C4*_16  and  C5*_19
REMARK    4  A    between atoms: C5*_19  and  O5*_20
REMARK                            x       y       z     vdW  Elec       q    Type
REMARK                         _______ _______ _______ _____ _____    ______ ____
ROOT
ATOM      1  F   UNL     1     -34.924  27.054   2.838  0.00  0.00    -0.199 F 
ATOM      2  O   UNL     1     -35.785  22.875   6.071  0.00  0.00    -0.193 OA
ATOM      3  N   UNL     1     -36.153  23.857   4.014  0.00  0.00    -0.178 N 
ATOM      4  N   UNL     1     -34.824  24.906   5.742  0.00  0.00    -0.304 NA
ATOM      5  N   UNL     1     -33.842  26.990   5.393  0.00  0.00    -0.330 N 
ATOM      6  C   UNL     1     -35.918  24.947   3.192  0.00  0.00    +0.113 C 
ATOM      7  C   UNL     1     -35.594  23.832   5.319  0.00  0.00    +0.276 C 
ATOM      8  C   UNL     1     -35.180  25.975   3.597  0.00  0.00    +0.200 C 
ATOM      9  C   UNL     1     -34.607  25.932   4.961  0.00  0.00    +0.220 C 
ATOM     10  H   UNL     1     -33.453  26.978   6.297  0.00  0.00    +0.145 HD
ATOM     11  H   UNL     1     -33.683  27.758   4.798  0.00  0.00    +0.145 HD
ENDROOT
BRANCH   3  15
ATOM     12  O4* UNL     1     -36.107  21.787   2.923  0.00  0.00    -0.334 OA
ATOM     13  C3* UNL     1     -38.089  21.967   1.634  0.00  0.00    +0.144 C 
ATOM     14  C2* UNL     1     -37.993  23.185   2.524  0.00  0.00    +0.084 C 
ATOM     15  C1* UNL     1     -36.953  22.761   3.550  0.00  0.00    +0.209 C 
ATOM     16  C4* UNL     1     -36.670  21.416   1.651  0.00  0.00    +0.173 C 
BRANCH  13  17
ATOM     17  O3* UNL     1     -38.984  21.020   2.212  0.00  0.00    -0.382 OA
ATOM     18  H3* UNL     1     -38.651  20.750   3.083  0.00  0.00    +0.210 HD
ENDBRANCH  13  17
BRANCH  16  19
ATOM     19  C5* UNL     1     -35.791  22.011   0.558  0.00  0.00    +0.169 C 
BRANCH  19  20
ATOM     20  O5* UNL     1     -34.491  22.226   1.082  0.00  0.00    -0.379 OA
ATOM     21  H5* UNL     1     -33.860  21.638   0.636  0.00  0.00    +0.211 HD
ENDBRANCH  19  20
ENDBRANCH  16  19
ENDBRANCH   3  15
TORSDOF 4
ENDMDL
MODEL 9
REMARK VINA RESULT:      -4.8      3.625      4.716
REMARK  Name = 515328
REMARK  4 active torsions:
REMARK  status: ('A' for Active; 'I' for Inactive)
REMARK    1  A    between atoms: N_3  and  C1*_15
REMARK    2  A    between atoms: C3*_13  and  O3*_17
REMARK    3  A    between atoms: C4*_16  and  C5*_19
REMARK    4  A    between atoms: C5*_19  and  O5*_20
REMARK                            x       y       z     vdW  Elec       q    Type
REMARK                         _______ _______ _______ _____ _____    ______ ____
ROOT
ATOM      1  F   UNL     1     -38.074  26.572   1.893  0.00  0.00    -0.199 F 
ATOM      2  O   UNL     1     -34.910  23.952   5.325  0.00  0.00    -0.193 OA
ATOM      3  N   UNL     1     -35.069  25.437   3.564  0.00  0.00    -0.178 N 
ATOM      4  N   UNL     1     -37.006  24.392   4.569  0.00  0.00    -0.304 NA
ATOM      5  N   UNL     1     -39.151  24.851   3.785  0.00  0.00    -0.330 N 
ATOM      6  C   UNL     1     -35.905  26.106   2.685  0.00  0.00    +0.113 C 
ATOM      7  C   UNL     1     -35.629  24.560   4.530  0.00  0.00    +0.276 C 
ATOM      8  C   UNL     1     -37.223  25.946   2.724  0.00  0.00    +0.200 C 
ATOM      9  C   UNL     1     -37.789  25.027   3.736  0.00  0.00    +0.220 C 
ATOM     10  H   UNL     1     -39.545  24.243   4.452  0.00  0.00    +0.145 HD
ATOM     11  H   UNL     1     -39.733  25.333   3.154  0.00  0.00    +0.145 HD
ENDROOT
BRANCH   3  15
ATOM     12  O4* UNL     1     -33.310  26.869   4.138  0.00  0.00    -0.334 OA
ATOM     13  C3* UNL     1     -31.969  26.659   2.194  0.00  0.00    +0.144 C 
ATOM     14  C2* UNL     1     -33.129  25.697   2.073  0.00  0.00    +0.084 C 
ATOM     15  C1* UNL     1     -33.650  25.630   3.500  0.00  0.00    +0.209 C 
ATOM     16  C4* UNL     1     -32.431  27.621   3.280  0.00  0.00    +0.173 C 
BRANCH  13  17
ATOM     17  O3* UNL     1     -30.807  25.956   2.630  0.00  0.00    -0.382 OA
ATOM     18  H3* UNL     1     -30.345  26.481   3.303  0.00  0.00    +0.210 HD
ENDBRANCH  13  17
BRANCH  16  19
ATOM     19  C5* UNL     1     -33.213  28.805   2.728  0.00  0.00    +0.169 C 
BRANCH  19  20
ATOM     20  O5* UNL     1     -34.277  29.106   3.618  0.00  0.00    -0.379 OA
ATOM     21  H5* UNL     1     -34.710  28.284   3.895  0.00  0.00    +0.211 HD
ENDBRANCH  19  20
ENDBRANCH  16  19
ENDBRANCH   3  15
TORSDOF 4
ENDMDL
