MODEL 1
REMARK VINA RESULT:      -5.5      0.000      0.000
REMARK  Name = 191835
REMARK  10 active torsions:
REMARK  status: ('A' for Active; 'I' for Inactive)
REMARK    1  A    between atoms: C_1  and  CA_2
REMARK    2  A    between atoms: C_1  and  C_13
REMARK    3  A    between atoms: CA_2  and  N_4
REMARK    4  A    between atoms: CA_2  and  C_10
REMARK    5  A    between atoms: C_5  and  C_8
REMARK    6  A    between atoms: C_10  and  O_11
REMARK    7  A    between atoms: C_13  and  C_16
REMARK    8  A    between atoms: N_15  and  C_18
REMARK    9  A    between atoms: C_18  and  C_20
REMARK   10  A    between atoms: C_20  and  O_21
REMARK                            x       y       z     vdW  Elec       q    Type
REMARK                         _______ _______ _______ _____ _____    ______ ____
ROOT
ATOM      1  C   UNL     1     -34.575  24.119   5.280  0.00  0.00    +0.041 C 
ENDROOT
BRANCH   1   2
ATOM      2  CA  UNL     1     -35.350  22.951   4.665  0.00  0.00    +0.172 C 
BRANCH   2   4
ATOM      3  O   UNL     1     -36.500  22.376   2.096  0.00  0.00    -0.274 OA
ATOM      4  N   UNL     1     -36.657  23.342   4.202  0.00  0.00    -0.296 N 
ATOM      5  C   UNL     1     -37.127  23.016   2.938  0.00  0.00    +0.239 C 
ATOM      6  H   UNL     1     -37.239  23.859   4.805  0.00  0.00    +0.150 HD
BRANCH   5   8
ATOM      7 CL   UNL     1     -38.618  25.193   3.224  0.00  0.00    -0.103 Cl
ATOM      8  C   UNL     1     -38.527  23.511   2.681  0.00  0.00    +0.179 C 
ENDBRANCH   5   8
ENDBRANCH   2   4
BRANCH   2  10
ATOM      9  OXT UNL     1     -36.082  22.024   6.797  0.00  0.00    -0.248 OA
ATOM     10  C   UNL     1     -35.567  21.862   5.699  0.00  0.00    +0.332 C 
BRANCH  10  11
ATOM     11  O   UNL     1     -35.068  20.666   5.287  0.00  0.00    -0.479 OA
ATOM     12  H   UNL     1     -35.644  19.938   5.164  0.00  0.00    +0.295 HD
ENDBRANCH  10  11
ENDBRANCH   2  10
ENDBRANCH   1   2
BRANCH   1  13
ATOM     13  C   UNL     1     -35.388  25.412   5.360  0.00  0.00    +0.087 C 
BRANCH  13  16
ATOM     14  O   UNL     1     -35.063  27.308   3.888  0.00  0.00    -0.275 OA
ATOM     15  N   UNL     1     -33.459  26.844   5.501  0.00  0.00    -0.295 N 
ATOM     16  C   UNL     1     -34.651  26.628   4.823  0.00  0.00    +0.223 C 
ATOM     17  H   UNL     1     -33.220  26.239   6.239  0.00  0.00    +0.150 HD
BRANCH  15  18
ATOM     18  C   UNL     1     -32.557  27.922   5.167  0.00  0.00    +0.200 C 
BRANCH  18  20
ATOM     19  O   UNL     1     -31.809  29.474   6.848  0.00  0.00    -0.248 OA
ATOM     20  C   UNL     1     -31.715  28.365   6.336  0.00  0.00    +0.334 C 
BRANCH  20  21
ATOM     21  O   UNL     1     -30.844  27.422   6.764  0.00  0.00    -0.479 OA
ATOM     22  H   UNL     1     -29.922  27.580   6.718  0.00  0.00    +0.295 HD
ENDBRANCH  20  21
ENDBRANCH  18  20
ENDBRANCH  15  18
ENDBRANCH  13  16
ENDBRANCH   1  13
TORSDOF 10
ENDMDL
MODEL 2
REMARK VINA RESULT:      -5.4      2.758      6.814
REMARK  Name = 191835
REMARK  10 active torsions:
REMARK  status: ('A' for Active; 'I' for Inactive)
REMARK    1  A    between atoms: C_1  and  CA_2
REMARK    2  A    between atoms: C_1  and  C_13
REMARK    3  A    between atoms: CA_2  and  N_4
REMARK    4  A    between atoms: CA_2  and  C_10
REMARK    5  A    between atoms: C_5  and  C_8
REMARK    6  A    between atoms: C_10  and  O_11
REMARK    7  A    between atoms: C_13  and  C_16
REMARK    8  A    between atoms: N_15  and  C_18
REMARK    9  A    between atoms: C_18  and  C_20
REMARK   10  A    between atoms: C_20  and  O_21
REMARK                            x       y       z     vdW  Elec       q    Type
REMARK                         _______ _______ _______ _____ _____    ______ ____
ROOT
ATOM      1  C   UNL     1     -34.485  25.809   5.642  0.00  0.00    +0.041 C 
ENDROOT
BRANCH   1   2
ATOM      2  CA  UNL     1     -33.526  26.722   4.874  0.00  0.00    +0.172 C 
BRANCH   2   4
ATOM      3  O   UNL     1     -30.861  27.790   4.760  0.00  0.00    -0.274 OA
ATOM      4  N   UNL     1     -32.984  27.770   5.700  0.00  0.00    -0.296 N 
ATOM      5  C   UNL     1     -31.679  28.221   5.570  0.00  0.00    +0.239 C 
ATOM      6  H   UNL     1     -33.562  28.183   6.382  0.00  0.00    +0.150 HD
BRANCH   5   8
ATOM      7 CL   UNL     1     -32.137  30.808   5.949  0.00  0.00    -0.103 Cl
ATOM      8  C   UNL     1     -31.340  29.336   6.525  0.00  0.00    +0.179 C 
ENDBRANCH   5   8
ENDBRANCH   2   4
BRANCH   2  10
ATOM      9  OXT UNL     1     -33.716  27.900   2.749  0.00  0.00    -0.248 OA
ATOM     10  C   UNL     1     -34.253  27.405   3.731  0.00  0.00    +0.332 C 
BRANCH  10  11
ATOM     11  O   UNL     1     -35.594  27.457   3.943  0.00  0.00    -0.479 OA
ATOM     12  H   UNL     1     -36.185  27.176   3.273  0.00  0.00    +0.295 HD
ENDBRANCH  10  11
ENDBRANCH   2  10
ENDBRANCH   1   2
BRANCH   1  13
ATOM     13  C   UNL     1     -34.451  24.355   5.166  0.00  0.00    +0.087 C 
BRANCH  13  16
ATOM     14  O   UNL     1     -36.397  22.914   5.167  0.00  0.00    -0.275 OA
ATOM     15  N   UNL     1     -36.213  24.560   3.540  0.00  0.00    -0.295 N 
ATOM     16  C   UNL     1     -35.790  23.851   4.656  0.00  0.00    +0.223 C 
ATOM     17  H   UNL     1     -35.651  25.297   3.209  0.00  0.00    +0.150 HD
BRANCH  15  18
ATOM     18  C   UNL     1     -37.444  24.261   2.847  0.00  0.00    +0.200 C 
BRANCH  18  20
ATOM     19  O   UNL     1     -39.668  24.566   3.715  0.00  0.00    -0.248 OA
ATOM     20  C   UNL     1     -38.613  25.069   3.350  0.00  0.00    +0.334 C 
BRANCH  20  21
ATOM     21  O   UNL     1     -38.384  26.403   3.358  0.00  0.00    -0.479 OA
ATOM     22  H   UNL     1     -39.064  26.996   3.109  0.00  0.00    +0.295 HD
ENDBRANCH  20  21
ENDBRANCH  18  20
ENDBRANCH  15  18
ENDBRANCH  13  16
ENDBRANCH   1  13
TORSDOF 10
ENDMDL
MODEL 3
REMARK VINA RESULT:      -5.4      2.079      3.517
REMARK  Name = 191835
REMARK  10 active torsions:
REMARK  status: ('A' for Active; 'I' for Inactive)
REMARK    1  A    between atoms: C_1  and  CA_2
REMARK    2  A    between atoms: C_1  and  C_13
REMARK    3  A    between atoms: CA_2  and  N_4
REMARK    4  A    between atoms: CA_2  and  C_10
REMARK    5  A    between atoms: C_5  and  C_8
REMARK    6  A    between atoms: C_10  and  O_11
REMARK    7  A    between atoms: C_13  and  C_16
REMARK    8  A    between atoms: N_15  and  C_18
REMARK    9  A    between atoms: C_18  and  C_20
REMARK   10  A    between atoms: C_20  and  O_21
REMARK                            x       y       z     vdW  Elec       q    Type
REMARK                         _______ _______ _______ _____ _____    ______ ____
ROOT
ATOM      1  C   UNL     1     -35.612  24.372   5.314  0.00  0.00    +0.041 C 
ENDROOT
BRANCH   1   2
ATOM      2  CA  UNL     1     -35.568  22.967   4.708  0.00  0.00    +0.172 C 
BRANCH   2   4
ATOM      3  O   UNL     1     -36.265  23.464   1.965  0.00  0.00    -0.274 OA
ATOM      4  N   UNL     1     -36.803  22.611   4.057  0.00  0.00    -0.296 N 
ATOM      5  C   UNL     1     -37.049  22.894   2.721  0.00  0.00    +0.239 C 
ATOM      6  H   UNL     1     -37.498  22.148   4.579  0.00  0.00    +0.150 HD
BRANCH   5   8
ATOM      7 CL   UNL     1     -39.583  23.677   2.601  0.00  0.00    -0.103 Cl
ATOM      8  C   UNL     1     -38.397  22.409   2.252  0.00  0.00    +0.179 C 
ENDBRANCH   5   8
ENDBRANCH   2   4
BRANCH   2  10
ATOM      9  OXT UNL     1     -35.233  22.177   6.988  0.00  0.00    -0.248 OA
ATOM     10  C   UNL     1     -35.338  21.933   5.793  0.00  0.00    +0.332 C 
BRANCH  10  11
ATOM     11  O   UNL     1     -35.206  20.681   5.281  0.00  0.00    -0.479 OA
ATOM     12  H   UNL     1     -34.577  20.516   4.606  0.00  0.00    +0.295 HD
ENDBRANCH  10  11
ENDBRANCH   2  10
ENDBRANCH   1   2
BRANCH   1  13
ATOM     13  C   UNL     1     -34.337  25.181   5.065  0.00  0.00    +0.087 C 
BRANCH  13  16
ATOM     14  O   UNL     1     -34.216  27.523   4.461  0.00  0.00    -0.275 OA
ATOM     15  N   UNL     1     -35.176  26.023   2.972  0.00  0.00    -0.295 N 
ATOM     16  C   UNL     1     -34.547  26.381   4.156  0.00  0.00    +0.223 C 
ATOM     17  H   UNL     1     -35.400  25.076   2.825  0.00  0.00    +0.150 HD
BRANCH  15  18
ATOM     18  C   UNL     1     -35.515  26.983   1.948  0.00  0.00    +0.200 C 
BRANCH  18  20
ATOM     19  O   UNL     1     -37.494  27.991   1.022  0.00  0.00    -0.248 OA
ATOM     20  C   UNL     1     -36.993  27.261   1.869  0.00  0.00    +0.334 C 
BRANCH  20  21
ATOM     21  O   UNL     1     -37.714  26.629   2.824  0.00  0.00    -0.479 OA
ATOM     22  H   UNL     1     -38.549  26.967   3.082  0.00  0.00    +0.295 HD
ENDBRANCH  20  21
ENDBRANCH  18  20
ENDBRANCH  15  18
ENDBRANCH  13  16
ENDBRANCH   1  13
TORSDOF 10
ENDMDL
MODEL 4
REMARK VINA RESULT:      -5.3      2.344      3.072
REMARK  Name = 191835
REMARK  10 active torsions:
REMARK  status: ('A' for Active; 'I' for Inactive)
REMARK    1  A    between atoms: C_1  and  CA_2
REMARK    2  A    between atoms: C_1  and  C_13
REMARK    3  A    between atoms: CA_2  and  N_4
REMARK    4  A    between atoms: CA_2  and  C_10
REMARK    5  A    between atoms: C_5  and  C_8
REMARK    6  A    between atoms: C_10  and  O_11
REMARK    7  A    between atoms: C_13  and  C_16
REMARK    8  A    between atoms: N_15  and  C_18
REMARK    9  A    between atoms: C_18  and  C_20
REMARK   10  A    between atoms: C_20  and  O_21
REMARK                            x       y       z     vdW  Elec       q    Type
REMARK                         _______ _______ _______ _____ _____    ______ ____
ROOT
ATOM      1  C   UNL     1     -35.394  23.355   5.577  0.00  0.00    +0.041 C 
ENDROOT
BRANCH   1   2
ATOM      2  CA  UNL     1     -35.668  22.703   4.219  0.00  0.00    +0.172 C 
BRANCH   2   4
ATOM      3  O   UNL     1     -36.726  24.124   1.958  0.00  0.00    -0.274 OA
ATOM      4  N   UNL     1     -37.052  22.794   3.833  0.00  0.00    -0.296 N 
ATOM      5  C   UNL     1     -37.470  23.508   2.719  0.00  0.00    +0.239 C 
ATOM      6  H   UNL     1     -37.729  22.333   4.380  0.00  0.00    +0.150 HD
BRANCH   5   8
ATOM      7 CL   UNL     1     -39.696  24.790   3.385  0.00  0.00    -0.103 Cl
ATOM      8  C   UNL     1     -38.959  23.446   2.499  0.00  0.00    +0.179 C 
ENDBRANCH   5   8
ENDBRANCH   2   4
BRANCH   2  10
ATOM      9  OXT UNL     1     -35.219  20.494   3.293  0.00  0.00    -0.248 OA
ATOM     10  C   UNL     1     -35.330  21.225   4.268  0.00  0.00    +0.332 C 
BRANCH  10  11
ATOM     11  O   UNL     1     -35.211  20.775   5.545  0.00  0.00    -0.479 OA
ATOM     12  H   UNL     1     -35.732  20.053   5.837  0.00  0.00    +0.295 HD
ENDBRANCH  10  11
ENDBRANCH   2  10
ENDBRANCH   1   2
BRANCH   1  13
ATOM     13  C   UNL     1     -35.576  24.874   5.568  0.00  0.00    +0.087 C 
BRANCH  13  16
ATOM     14  O   UNL     1     -33.498  25.484   4.483  0.00  0.00    -0.275 OA
ATOM     15  N   UNL     1     -35.491  26.362   3.679  0.00  0.00    -0.295 N 
ATOM     16  C   UNL     1     -34.721  25.583   4.531  0.00  0.00    +0.223 C 
ATOM     17  H   UNL     1     -36.468  26.371   3.802  0.00  0.00    +0.150 HD
BRANCH  15  18
ATOM     18  C   UNL     1     -34.919  27.160   2.620  0.00  0.00    +0.200 C 
BRANCH  18  20
ATOM     19  O   UNL     1     -36.509  28.642   1.588  0.00  0.00    -0.248 OA
ATOM     20  C   UNL     1     -35.630  28.474   2.424  0.00  0.00    +0.334 C 
BRANCH  20  21
ATOM     21  O   UNL     1     -35.204  29.449   3.260  0.00  0.00    -0.479 OA
ATOM     22  H   UNL     1     -34.901  29.231   4.118  0.00  0.00    +0.295 HD
ENDBRANCH  20  21
ENDBRANCH  18  20
ENDBRANCH  15  18
ENDBRANCH  13  16
ENDBRANCH   1  13
TORSDOF 10
ENDMDL
MODEL 5
REMARK VINA RESULT:      -5.1      2.854      4.151
REMARK  Name = 191835
REMARK  10 active torsions:
REMARK  status: ('A' for Active; 'I' for Inactive)
REMARK    1  A    between atoms: C_1  and  CA_2
REMARK    2  A    between atoms: C_1  and  C_13
REMARK    3  A    between atoms: CA_2  and  N_4
REMARK    4  A    between atoms: CA_2  and  C_10
REMARK    5  A    between atoms: C_5  and  C_8
REMARK    6  A    between atoms: C_10  and  O_11
REMARK    7  A    between atoms: C_13  and  C_16
REMARK    8  A    between atoms: N_15  and  C_18
REMARK    9  A    between atoms: C_18  and  C_20
REMARK   10  A    between atoms: C_20  and  O_21
REMARK                            x       y       z     vdW  Elec       q    Type
REMARK                         _______ _______ _______ _____ _____    ______ ____
ROOT
ATOM      1  C   UNL     1     -37.806  24.125   1.347  0.00  0.00    +0.041 C 
ENDROOT
BRANCH   1   2
ATOM      2  CA  UNL     1     -38.226  23.297   2.565  0.00  0.00    +0.172 C 
BRANCH   2   4
ATOM      3  O   UNL     1     -36.697  24.050   4.877  0.00  0.00    -0.274 OA
ATOM      4  N   UNL     1     -37.125  22.569   3.141  0.00  0.00    -0.296 N 
ATOM      5  C   UNL     1     -36.444  23.014   4.265  0.00  0.00    +0.239 C 
ATOM      6  H   UNL     1     -36.845  21.722   2.723  0.00  0.00    +0.150 HD
BRANCH   5   8
ATOM      7 CL   UNL     1     -35.117  22.283   6.444  0.00  0.00    -0.103 Cl
ATOM      8  C   UNL     1     -35.344  22.081   4.700  0.00  0.00    +0.179 C 
ENDBRANCH   5   8
ENDBRANCH   2   4
BRANCH   2  10
ATOM      9  OXT UNL     1     -40.409  22.517   1.815  0.00  0.00    -0.248 OA
ATOM     10  C   UNL     1     -39.264  22.265   2.166  0.00  0.00    +0.332 C 
BRANCH  10  11
ATOM     11  O   UNL     1     -38.793  20.997   2.292  0.00  0.00    -0.479 OA
ATOM     12  H   UNL     1     -37.939  20.848   2.649  0.00  0.00    +0.295 HD
ENDBRANCH  10  11
ENDBRANCH   2  10
ENDBRANCH   1   2
BRANCH   1  13
ATOM     13  C   UNL     1     -37.646  25.615   1.653  0.00  0.00    +0.087 C 
BRANCH  13  16
ATOM     14  O   UNL     1     -35.287  25.828   1.144  0.00  0.00    -0.275 OA
ATOM     15  N   UNL     1     -36.079  26.624   3.176  0.00  0.00    -0.295 N 
ATOM     16  C   UNL     1     -36.209  26.028   1.929  0.00  0.00    +0.223 C 
ATOM     17  H   UNL     1     -36.885  26.738   3.730  0.00  0.00    +0.150 HD
BRANCH  15  18
ATOM     18  C   UNL     1     -34.811  27.084   3.692  0.00  0.00    +0.200 C 
BRANCH  18  20
ATOM     19  O   UNL     1     -33.291  25.400   4.495  0.00  0.00    -0.248 OA
ATOM     20  C   UNL     1     -34.227  26.157   4.725  0.00  0.00    +0.334 C 
BRANCH  20  21
ATOM     21  O   UNL     1     -34.834  26.240   5.932  0.00  0.00    -0.479 OA
ATOM     22  H   UNL     1     -35.707  25.918   6.040  0.00  0.00    +0.295 HD
ENDBRANCH  20  21
ENDBRANCH  18  20
ENDBRANCH  15  18
ENDBRANCH  13  16
ENDBRANCH   1  13
TORSDOF 10
ENDMDL
MODEL 6
REMARK VINA RESULT:      -5.1      2.033      2.416
REMARK  Name = 191835
REMARK  10 active torsions:
REMARK  status: ('A' for Active; 'I' for Inactive)
REMARK    1  A    between atoms: C_1  and  CA_2
REMARK    2  A    between atoms: C_1  and  C_13
REMARK    3  A    between atoms: CA_2  and  N_4
REMARK    4  A    between atoms: CA_2  and  C_10
REMARK    5  A    between atoms: C_5  and  C_8
REMARK    6  A    between atoms: C_10  and  O_11
REMARK    7  A    between atoms: C_13  and  C_16
REMARK    8  A    between atoms: N_15  and  C_18
REMARK    9  A    between atoms: C_18  and  C_20
REMARK   10  A    between atoms: C_20  and  O_21
REMARK                            x       y       z     vdW  Elec       q    Type
REMARK                         _______ _______ _______ _____ _____    ______ ____
ROOT
ATOM      1  C   UNL     1     -35.973  24.515   5.313  0.00  0.00    +0.041 C 
ENDROOT
BRANCH   1   2
ATOM      2  CA  UNL     1     -35.863  23.191   4.551  0.00  0.00    +0.172 C 
BRANCH   2   4
ATOM      3  O   UNL     1     -35.991  21.837   2.021  0.00  0.00    -0.274 OA
ATOM      4  N   UNL     1     -37.053  22.890   3.797  0.00  0.00    -0.296 N 
ATOM      5  C   UNL     1     -37.015  22.229   2.579  0.00  0.00    +0.239 C 
ATOM      6  H   UNL     1     -37.927  23.162   4.161  0.00  0.00    +0.150 HD
BRANCH   5   8
ATOM      7 CL   UNL     1     -39.415  23.356   2.468  0.00  0.00    -0.103 Cl
ATOM      8  C   UNL     1     -38.381  22.004   1.983  0.00  0.00    +0.179 C 
ENDBRANCH   5   8
ENDBRANCH   2   4
BRANCH   2  10
ATOM      9  OXT UNL     1     -35.857  22.097   6.728  0.00  0.00    -0.248 OA
ATOM     10  C   UNL     1     -35.663  22.043   5.521  0.00  0.00    +0.332 C 
BRANCH  10  11
ATOM     11  O   UNL     1     -35.186  20.932   4.900  0.00  0.00    -0.479 OA
ATOM     12  H   UNL     1     -34.354  20.958   4.470  0.00  0.00    +0.295 HD
ENDBRANCH  10  11
ENDBRANCH   2  10
ENDBRANCH   1   2
BRANCH   1  13
ATOM     13  C   UNL     1     -34.628  25.215   5.510  0.00  0.00    +0.087 C 
BRANCH  13  16
ATOM     14  O   UNL     1     -33.132  25.868   3.720  0.00  0.00    -0.275 OA
ATOM     15  N   UNL     1     -35.124  27.026   4.004  0.00  0.00    -0.295 N 
ATOM     16  C   UNL     1     -34.192  26.044   4.313  0.00  0.00    +0.223 C 
ATOM     17  H   UNL     1     -35.945  27.082   4.543  0.00  0.00    +0.150 HD
BRANCH  15  18
ATOM     18  C   UNL     1     -34.937  27.966   2.924  0.00  0.00    +0.200 C 
BRANCH  18  20
ATOM     19  O   UNL     1     -33.362  29.539   3.839  0.00  0.00    -0.248 OA
ATOM     20  C   UNL     1     -34.484  29.323   3.398  0.00  0.00    +0.334 C 
BRANCH  20  21
ATOM     21  O   UNL     1     -35.436  30.279   3.290  0.00  0.00    -0.479 OA
ATOM     22  H   UNL     1     -35.398  31.040   3.833  0.00  0.00    +0.295 HD
ENDBRANCH  20  21
ENDBRANCH  18  20
ENDBRANCH  15  18
ENDBRANCH  13  16
ENDBRANCH   1  13
TORSDOF 10
ENDMDL
MODEL 7
REMARK VINA RESULT:      -5.1      2.735      7.137
REMARK  Name = 191835
REMARK  10 active torsions:
REMARK  status: ('A' for Active; 'I' for Inactive)
REMARK    1  A    between atoms: C_1  and  CA_2
REMARK    2  A    between atoms: C_1  and  C_13
REMARK    3  A    between atoms: CA_2  and  N_4
REMARK    4  A    between atoms: CA_2  and  C_10
REMARK    5  A    between atoms: C_5  and  C_8
REMARK    6  A    between atoms: C_10  and  O_11
REMARK    7  A    between atoms: C_13  and  C_16
REMARK    8  A    between atoms: N_15  and  C_18
REMARK    9  A    between atoms: C_18  and  C_20
REMARK   10  A    between atoms: C_20  and  O_21
REMARK                            x       y       z     vdW  Elec       q    Type
REMARK                         _______ _______ _______ _____ _____    ______ ____
ROOT
ATOM      1  C   UNL     1     -34.754  25.458   5.250  0.00  0.00    +0.041 C 
ENDROOT
BRANCH   1   2
ATOM      2  CA  UNL     1     -33.759  26.425   4.604  0.00  0.00    +0.172 C 
BRANCH   2   4
ATOM      3  O   UNL     1     -31.183  27.696   4.652  0.00  0.00    -0.274 OA
ATOM      4  N   UNL     1     -33.327  27.458   5.511  0.00  0.00    -0.296 N 
ATOM      5  C   UNL     1     -32.057  28.014   5.456  0.00  0.00    +0.239 C 
ATOM      6  H   UNL     1     -33.957  27.783   6.194  0.00  0.00    +0.150 HD
BRANCH   5   8
ATOM      7 CL   UNL     1     -32.123  30.655   5.711  0.00  0.00    -0.103 Cl
ATOM      8  C   UNL     1     -31.837  29.090   6.487  0.00  0.00    +0.179 C 
ENDBRANCH   5   8
ENDBRANCH   2   4
BRANCH   2  10
ATOM      9  OXT UNL     1     -34.201  26.855   2.247  0.00  0.00    -0.248 OA
ATOM     10  C   UNL     1     -34.400  27.128   3.423  0.00  0.00    +0.332 C 
BRANCH  10  11
ATOM     11  O   UNL     1     -35.202  28.152   3.817  0.00  0.00    -0.479 OA
ATOM     12  H   UNL     1     -35.877  28.464   3.246  0.00  0.00    +0.295 HD
ENDBRANCH  10  11
ENDBRANCH   2  10
ENDBRANCH   1   2
BRANCH   1  13
ATOM     13  C   UNL     1     -34.403  23.986   5.027  0.00  0.00    +0.087 C 
BRANCH  13  16
ATOM     14  O   UNL     1     -36.585  22.955   4.828  0.00  0.00    -0.275 OA
ATOM     15  N   UNL     1     -35.092  22.784   3.059  0.00  0.00    -0.295 N 
ATOM     16  C   UNL     1     -35.495  23.201   4.320  0.00  0.00    +0.223 C 
ATOM     17  H   UNL     1     -34.194  23.037   2.744  0.00  0.00    +0.150 HD
BRANCH  15  18
ATOM     18  C   UNL     1     -35.935  21.997   2.191  0.00  0.00    +0.200 C 
BRANCH  18  20
ATOM     19  O   UNL     1     -34.617  19.985   2.112  0.00  0.00    -0.248 OA
ATOM     20  C   UNL     1     -35.700  20.515   2.328  0.00  0.00    +0.334 C 
BRANCH  20  21
ATOM     21  O   UNL     1     -36.800  19.826   2.712  0.00  0.00    -0.479 OA
ATOM     22  H   UNL     1     -37.458  19.606   2.084  0.00  0.00    +0.295 HD
ENDBRANCH  20  21
ENDBRANCH  18  20
ENDBRANCH  15  18
ENDBRANCH  13  16
ENDBRANCH   1  13
TORSDOF 10
ENDMDL
MODEL 8
REMARK VINA RESULT:      -5.0      2.381      6.186
REMARK  Name = 191835
REMARK  10 active torsions:
REMARK  status: ('A' for Active; 'I' for Inactive)
REMARK    1  A    between atoms: C_1  and  CA_2
REMARK    2  A    between atoms: C_1  and  C_13
REMARK    3  A    between atoms: CA_2  and  N_4
REMARK    4  A    between atoms: CA_2  and  C_10
REMARK    5  A    between atoms: C_5  and  C_8
REMARK    6  A    between atoms: C_10  and  O_11
REMARK    7  A    between atoms: C_13  and  C_16
REMARK    8  A    between atoms: N_15  and  C_18
REMARK    9  A    between atoms: C_18  and  C_20
REMARK   10  A    between atoms: C_20  and  O_21
REMARK                            x       y       z     vdW  Elec       q    Type
REMARK                         _______ _______ _______ _____ _____    ______ ____
ROOT
ATOM      1  C   UNL     1     -34.767  24.242   4.390  0.00  0.00    +0.041 C 
ENDROOT
BRANCH   1   2
ATOM      2  CA  UNL     1     -35.756  25.410   4.376  0.00  0.00    +0.172 C 
BRANCH   2   4
ATOM      3  O   UNL     1     -37.988  23.806   3.543  0.00  0.00    -0.274 OA
ATOM      4  N   UNL     1     -36.469  25.513   3.129  0.00  0.00    -0.296 N 
ATOM      5  C   UNL     1     -37.541  24.690   2.815  0.00  0.00    +0.239 C 
ATOM      6  H   UNL     1     -36.187  26.193   2.476  0.00  0.00    +0.150 HD
BRANCH   5   8
ATOM      7 CL   UNL     1     -37.383  23.926   0.277  0.00  0.00    -0.103 Cl
ATOM      8  C   UNL     1     -38.145  24.992   1.468  0.00  0.00    +0.179 C 
ENDBRANCH   5   8
ENDBRANCH   2   4
BRANCH   2  10
ATOM      9  OXT UNL     1     -34.111  26.915   5.359  0.00  0.00    -0.248 OA
ATOM     10  C   UNL     1     -35.020  26.723   4.562  0.00  0.00    +0.332 C 
BRANCH  10  11
ATOM     11  O   UNL     1     -35.523  27.703   3.766  0.00  0.00    -0.479 OA
ATOM     12  H   UNL     1     -36.164  27.495   3.116  0.00  0.00    +0.295 HD
ENDBRANCH  10  11
ENDBRANCH   2  10
ENDBRANCH   1   2
BRANCH   1  13
ATOM     13  C   UNL     1     -35.121  23.158   5.410  0.00  0.00    +0.087 C 
BRANCH  13  16
ATOM     14  O   UNL     1     -35.131  20.737   5.443  0.00  0.00    -0.275 OA
ATOM     15  N   UNL     1     -35.545  21.839   3.443  0.00  0.00    -0.295 N 
ATOM     16  C   UNL     1     -35.268  21.774   4.801  0.00  0.00    +0.223 C 
ATOM     17  H   UNL     1     -35.637  22.724   3.022  0.00  0.00    +0.150 HD
BRANCH  15  18
ATOM     18  C   UNL     1     -35.706  20.662   2.622  0.00  0.00    +0.200 C 
BRANCH  18  20
ATOM     19  O   UNL     1     -37.005  20.371   0.616  0.00  0.00    -0.248 OA
ATOM     20  C   UNL     1     -36.968  20.688   1.799  0.00  0.00    +0.334 C 
BRANCH  20  21
ATOM     21  O   UNL     1     -38.057  21.095   2.492  0.00  0.00    -0.479 OA
ATOM     22  H   UNL     1     -38.291  22.002   2.506  0.00  0.00    +0.295 HD
ENDBRANCH  20  21
ENDBRANCH  18  20
ENDBRANCH  15  18
ENDBRANCH  13  16
ENDBRANCH   1  13
TORSDOF 10
ENDMDL
MODEL 9
REMARK VINA RESULT:      -5.0      3.160      4.297
REMARK  Name = 191835
REMARK  10 active torsions:
REMARK  status: ('A' for Active; 'I' for Inactive)
REMARK    1  A    between atoms: C_1  and  CA_2
REMARK    2  A    between atoms: C_1  and  C_13
REMARK    3  A    between atoms: CA_2  and  N_4
REMARK    4  A    between atoms: CA_2  and  C_10
REMARK    5  A    between atoms: C_5  and  C_8
REMARK    6  A    between atoms: C_10  and  O_11
REMARK    7  A    between atoms: C_13  and  C_16
REMARK    8  A    between atoms: N_15  and  C_18
REMARK    9  A    between atoms: C_18  and  C_20
REMARK   10  A    between atoms: C_20  and  O_21
REMARK                            x       y       z     vdW  Elec       q    Type
REMARK                         _______ _______ _______ _____ _____    ______ ____
ROOT
ATOM      1  C   UNL     1     -35.191  22.732   1.279  0.00  0.00    +0.041 C 
ENDROOT
BRANCH   1   2
ATOM      2  CA  UNL     1     -35.915  21.983   2.401  0.00  0.00    +0.172 C 
BRANCH   2   4
ATOM      3  O   UNL     1     -37.096  23.932   4.151  0.00  0.00    -0.274 OA
ATOM      4  N   UNL     1     -35.444  22.361   3.708  0.00  0.00    -0.296 N 
ATOM      5  C   UNL     1     -36.084  23.317   4.483  0.00  0.00    +0.239 C 
ATOM      6  H   UNL     1     -34.637  21.924   4.066  0.00  0.00    +0.150 HD
BRANCH   5   8
ATOM      7 CL   UNL     1     -35.285  21.960   6.620  0.00  0.00    -0.103 Cl
ATOM      8  C   UNL     1     -35.425  23.533   5.821  0.00  0.00    +0.179 C 
ENDBRANCH   5   8
ENDBRANCH   2   4
BRANCH   2  10
ATOM      9  OXT UNL     1     -34.654  19.971   1.859  0.00  0.00    -0.248 OA
ATOM     10  C   UNL     1     -35.682  20.490   2.272  0.00  0.00    +0.332 C 
BRANCH  10  11
ATOM     11  O   UNL     1     -36.781  19.773   2.624  0.00  0.00    -0.479 OA
ATOM     12  H   UNL     1     -36.766  18.838   2.567  0.00  0.00    +0.295 HD
ENDBRANCH  10  11
ENDBRANCH   2  10
ENDBRANCH   1   2
BRANCH   1  13
ATOM     13  C   UNL     1     -36.135  23.510   0.360  0.00  0.00    +0.087 C 
BRANCH  13  16
ATOM     14  O   UNL     1     -37.743  25.272   0.777  0.00  0.00    -0.275 OA
ATOM     15  N   UNL     1     -35.612  25.452   1.681  0.00  0.00    -0.295 N 
ATOM     16  C   UNL     1     -36.613  24.825   0.952  0.00  0.00    +0.223 C 
ATOM     17  H   UNL     1     -34.738  25.007   1.762  0.00  0.00    +0.150 HD
BRANCH  15  18
ATOM     18  C   UNL     1     -35.801  26.731   2.326  0.00  0.00    +0.200 C 
BRANCH  18  20
ATOM     19  O   UNL     1     -33.929  26.830   3.835  0.00  0.00    -0.248 OA
ATOM     20  C   UNL     1     -35.144  26.808   3.679  0.00  0.00    +0.334 C 
BRANCH  20  21
ATOM     21  O   UNL     1     -36.024  26.851   4.706  0.00  0.00    -0.479 OA
ATOM     22  H   UNL     1     -36.745  26.254   4.731  0.00  0.00    +0.295 HD
ENDBRANCH  20  21
ENDBRANCH  18  20
ENDBRANCH  15  18
ENDBRANCH  13  16
ENDBRANCH   1  13
TORSDOF 10
ENDMDL
