MODEL 1
REMARK VINA RESULT:      -5.6      0.000      0.000
REMARK  Name = 5478846
REMARK  9 active torsions:
REMARK  status: ('A' for Active; 'I' for Inactive)
REMARK    1  A    between atoms: N_2  and  CA_5
REMARK    2  A    between atoms: C_3  and  CA_17
REMARK    3  A    between atoms: CA_5  and  C_9
REMARK    4  A    between atoms: N_8  and  CA_11
REMARK    5  A    between atoms: CA_11  and  C_14
REMARK    6  A    between atoms: C_14  and  O_15
REMARK    7  A    between atoms: CA_17  and  N_20
REMARK    8  A    between atoms: C_21  and  CA_23
REMARK    9  A    between atoms: CA_23  and  N_25
REMARK                            x       y       z     vdW  Elec       q    Type
REMARK                         _______ _______ _______ _____ _____    ______ ____
ROOT
ATOM      1  O   ALA A   2     -37.323  23.599   3.778  0.00  0.00    -0.273 OA
ATOM      2  N   ALA A   3     -35.131  24.049   4.392  0.00  0.00    -0.297 N 
ATOM      3  C   ALA A   2     -36.205  23.214   4.115  0.00  0.00    +0.241 C 
ATOM      4  H   ALA A   3     -34.274  23.643   4.655  0.00  0.00    +0.150 HD
ENDROOT
BRANCH   2   5
ATOM      5  CA  ALA A   3     -35.218  25.489   4.313  0.00  0.00    +0.149 C 
ATOM      6  CB  ALA A   3     -35.882  26.047   5.565  0.00  0.00    +0.031 C 
BRANCH   5   9
ATOM      7  O   ALA A   3     -32.901  25.448   3.594  0.00  0.00    -0.273 OA
ATOM      8  N   ALA A   4     -33.681  27.300   4.754  0.00  0.00    -0.295 N 
ATOM      9  C   ALA A   3     -33.807  26.046   4.170  0.00  0.00    +0.241 C 
ATOM     10  H   ALA A   4     -34.467  27.696   5.194  0.00  0.00    +0.150 HD
BRANCH   8  11
ATOM     11  CA  ALA A   4     -32.445  28.048   4.744  0.00  0.00    +0.171 C 
ATOM     12  CB  ALA A   4     -32.606  29.338   3.955  0.00  0.00    +0.033 C 
BRANCH  11  14
ATOM     13  OXT ALA A   4     -32.067  29.449   6.677  0.00  0.00    -0.248 OA
ATOM     14  C   ALA A   4     -31.956  28.345   6.151  0.00  0.00    +0.332 C 
BRANCH  14  15
ATOM     15  O   ALA A   4     -31.375  27.298   6.783  0.00  0.00    -0.479 OA
ATOM     16  H   ALA A   4     -31.572  26.423   6.515  0.00  0.00    +0.295 HD
ENDBRANCH  14  15
ENDBRANCH  11  14
ENDBRANCH   8  11
ENDBRANCH   5   9
ENDBRANCH   2   5
BRANCH   3  17
ATOM     17  CA  ALA A   2     -35.845  21.744   4.289  0.00  0.00    +0.149 C 
ATOM     18  CB  ALA A   2     -35.016  21.548   5.553  0.00  0.00    +0.031 C 
BRANCH  17  20
ATOM     19  O   ALA A   1     -36.814  20.148   2.099  0.00  0.00    -0.277 OA
ATOM     20  N   ALA A   2     -35.097  21.320   3.129  0.00  0.00    -0.300 N 
ATOM     21  C   ALA A   1     -35.651  20.547   2.117  0.00  0.00    +0.202 C 
ATOM     22  H   ALA A   2     -34.153  21.589   3.052  0.00  0.00    +0.150 HD
BRANCH  21  23
ATOM     23  CA  ALA A   1     -34.641  20.229   1.023  0.00  0.00    +0.013 C 
ATOM     24  CB  ALA A   1     -33.659  19.166   1.503  0.00  0.00    -0.015 C 
BRANCH  23  25
ATOM     25  N   ALA A   1     -33.929  21.459   0.685  0.00  0.00    +0.387 N 
ATOM     26  H1  ALA A   1     -33.605  21.410  -0.281  0.00  0.00    -0.089 HD
ATOM     27  H2  ALA A   1     -33.128  21.571   1.307  0.00  0.00    -0.089 HD
ATOM     28  H3  ALA A   1     -34.557  22.256   0.793  0.00  0.00    -0.089 HD
ENDBRANCH  23  25
ENDBRANCH  21  23
ENDBRANCH  17  20
ENDBRANCH   3  17
TORSDOF 9
ENDMDL
MODEL 2
REMARK VINA RESULT:      -5.6      2.114      3.537
REMARK  Name = 5478846
REMARK  9 active torsions:
REMARK  status: ('A' for Active; 'I' for Inactive)
REMARK    1  A    between atoms: N_2  and  CA_5
REMARK    2  A    between atoms: C_3  and  CA_17
REMARK    3  A    between atoms: CA_5  and  C_9
REMARK    4  A    between atoms: N_8  and  CA_11
REMARK    5  A    between atoms: CA_11  and  C_14
REMARK    6  A    between atoms: C_14  and  O_15
REMARK    7  A    between atoms: CA_17  and  N_20
REMARK    8  A    between atoms: C_21  and  CA_23
REMARK    9  A    between atoms: CA_23  and  N_25
REMARK                            x       y       z     vdW  Elec       q    Type
REMARK                         _______ _______ _______ _____ _____    ______ ____
ROOT
ATOM      1  O   ALA A   2     -37.288  21.921   2.417  0.00  0.00    -0.273 OA
ATOM      2  N   ALA A   3     -35.287  22.172   3.565  0.00  0.00    -0.297 N 
ATOM      3  C   ALA A   2     -36.059  21.888   2.447  0.00  0.00    +0.241 C 
ATOM      4  H   ALA A   3     -34.308  22.119   3.488  0.00  0.00    +0.150 HD
ENDROOT
BRANCH   2   5
ATOM      5  CA  ALA A   3     -35.861  22.542   4.839  0.00  0.00    +0.149 C 
ATOM      6  CB  ALA A   3     -34.969  22.062   5.977  0.00  0.00    +0.031 C 
BRANCH   5   9
ATOM      7  O   ALA A   3     -37.046  24.648   4.625  0.00  0.00    -0.273 OA
ATOM      8  N   ALA A   4     -34.811  24.679   5.246  0.00  0.00    -0.295 N 
ATOM      9  C   ALA A   3     -35.998  24.059   4.879  0.00  0.00    +0.241 C 
ATOM     10  H   ALA A   4     -34.023  24.118   5.429  0.00  0.00    +0.150 HD
BRANCH   8  11
ATOM     11  CA  ALA A   4     -34.682  26.113   5.370  0.00  0.00    +0.171 C 
ATOM     12  CB  ALA A   4     -33.543  26.468   6.314  0.00  0.00    +0.033 C 
BRANCH  11  14
ATOM     13  OXT ALA A   4     -33.619  26.417   3.221  0.00  0.00    -0.248 OA
ATOM     14  C   ALA A   4     -34.478  26.778   4.020  0.00  0.00    +0.332 C 
BRANCH  14  15
ATOM     15  O   ALA A   4     -35.312  27.814   3.766  0.00  0.00    -0.479 OA
ATOM     16  H   ALA A   4     -36.033  27.985   4.338  0.00  0.00    +0.295 HD
ENDBRANCH  14  15
ENDBRANCH  11  14
ENDBRANCH   8  11
ENDBRANCH   5   9
ENDBRANCH   2   5
BRANCH   3  17
ATOM     17  CA  ALA A   2     -35.204  21.514   1.243  0.00  0.00    +0.149 C 
ATOM     18  CB  ALA A   2     -36.045  21.528  -0.029  0.00  0.00    +0.031 C 
BRANCH  17  20
ATOM     19  O   ALA A   1     -32.625  20.547   0.406  0.00  0.00    -0.277 OA
ATOM     20  N   ALA A   2     -34.659  20.195   1.466  0.00  0.00    -0.300 N 
ATOM     21  C   ALA A   1     -33.398  19.817   1.023  0.00  0.00    +0.202 C 
ATOM     22  H   ALA A   2     -35.203  19.536   1.953  0.00  0.00    +0.150 HD
BRANCH  21  23
ATOM     23  CA  ALA A   1     -33.078  18.371   1.378  0.00  0.00    +0.013 C 
ATOM     24  CB  ALA A   1     -31.636  18.043   1.008  0.00  0.00    -0.015 C 
BRANCH  23  25
ATOM     25  N   ALA A   1     -33.998  17.504   0.646  0.00  0.00    +0.387 N 
ATOM     26  H1  ALA A   1     -33.482  16.720   0.247  0.00  0.00    -0.089 HD
ATOM     27  H2  ALA A   1     -34.441  18.035  -0.104  0.00  0.00    -0.089 HD
ATOM     28  H3  ALA A   1     -34.714  17.153   1.282  0.00  0.00    -0.089 HD
ENDBRANCH  23  25
ENDBRANCH  21  23
ENDBRANCH  17  20
ENDBRANCH   3  17
TORSDOF 9
ENDMDL
MODEL 3
REMARK VINA RESULT:      -5.5      1.990      3.417
REMARK  Name = 5478846
REMARK  9 active torsions:
REMARK  status: ('A' for Active; 'I' for Inactive)
REMARK    1  A    between atoms: N_2  and  CA_5
REMARK    2  A    between atoms: C_3  and  CA_17
REMARK    3  A    between atoms: CA_5  and  C_9
REMARK    4  A    between atoms: N_8  and  CA_11
REMARK    5  A    between atoms: CA_11  and  C_14
REMARK    6  A    between atoms: C_14  and  O_15
REMARK    7  A    between atoms: CA_17  and  N_20
REMARK    8  A    between atoms: C_21  and  CA_23
REMARK    9  A    between atoms: CA_23  and  N_25
REMARK                            x       y       z     vdW  Elec       q    Type
REMARK                         _______ _______ _______ _____ _____    ______ ____
ROOT
ATOM      1  O   ALA A   2     -34.740  26.268   1.872  0.00  0.00    -0.273 OA
ATOM      2  N   ALA A   3     -35.275  27.968   3.358  0.00  0.00    -0.297 N 
ATOM      3  C   ALA A   2     -35.292  26.658   2.900  0.00  0.00    +0.241 C 
ATOM      4  H   ALA A   3     -35.747  28.180   4.195  0.00  0.00    +0.150 HD
ENDROOT
BRANCH   2   5
ATOM      5  CA  ALA A   3     -34.594  29.034   2.659  0.00  0.00    +0.149 C 
ATOM      6  CB  ALA A   3     -35.300  30.361   2.906  0.00  0.00    +0.031 C 
BRANCH   5   9
ATOM      7  O   ALA A   3     -32.181  29.113   2.420  0.00  0.00    -0.273 OA
ATOM      8  N   ALA A   4     -33.097  29.146   4.551  0.00  0.00    -0.295 N 
ATOM      9  C   ALA A   3     -33.158  29.097   3.165  0.00  0.00    +0.241 C 
ATOM     10  H   ALA A   4     -33.939  29.128   5.061  0.00  0.00    +0.150 HD
BRANCH   8  11
ATOM     11  CA  ALA A   4     -31.850  29.223   5.278  0.00  0.00    +0.171 C 
ATOM     12  CB  ALA A   4     -31.711  30.576   5.960  0.00  0.00    +0.033 C 
BRANCH  11  14
ATOM     13  OXT ALA A   4     -32.691  27.531   6.784  0.00  0.00    -0.248 OA
ATOM     14  C   ALA A   4     -31.722  28.102   6.294  0.00  0.00    +0.332 C 
BRANCH  14  15
ATOM     15  O   ALA A   4     -30.449  27.785   6.631  0.00  0.00    -0.479 OA
ATOM     16  H   ALA A   4     -30.201  27.740   7.532  0.00  0.00    +0.295 HD
ENDBRANCH  14  15
ENDBRANCH  11  14
ENDBRANCH   8  11
ENDBRANCH   5   9
ENDBRANCH   2   5
BRANCH   3  17
ATOM     17  CA  ALA A   2     -36.091  25.742   3.817  0.00  0.00    +0.149 C 
ATOM     18  CB  ALA A   2     -35.988  26.218   5.261  0.00  0.00    +0.031 C 
BRANCH  17  20
ATOM     19  O   ALA A   1     -37.603  23.313   3.501  0.00  0.00    -0.277 OA
ATOM     20  N   ALA A   2     -35.564  24.402   3.693  0.00  0.00    -0.300 N 
ATOM     21  C   ALA A   1     -36.375  23.285   3.543  0.00  0.00    +0.202 C 
ATOM     22  H   ALA A   2     -34.588  24.276   3.716  0.00  0.00    +0.150 HD
BRANCH  21  23
ATOM     23  CA  ALA A   1     -35.564  22.000   3.451  0.00  0.00    +0.013 C 
ATOM     24  CB  ALA A   1     -36.201  21.044   2.449  0.00  0.00    -0.015 C 
BRANCH  23  25
ATOM     25  N   ALA A   1     -35.521  21.388   4.777  0.00  0.00    +0.387 N 
ATOM     26  H1  ALA A   1     -35.643  20.379   4.690  0.00  0.00    -0.089 HD
ATOM     27  H2  ALA A   1     -36.270  21.772   5.353  0.00  0.00    -0.089 HD
ATOM     28  H3  ALA A   1     -34.620  21.586   5.214  0.00  0.00    -0.089 HD
ENDBRANCH  23  25
ENDBRANCH  21  23
ENDBRANCH  17  20
ENDBRANCH   3  17
TORSDOF 9
ENDMDL
MODEL 4
REMARK VINA RESULT:      -5.5      1.549      7.509
REMARK  Name = 5478846
REMARK  9 active torsions:
REMARK  status: ('A' for Active; 'I' for Inactive)
REMARK    1  A    between atoms: N_2  and  CA_5
REMARK    2  A    between atoms: C_3  and  CA_17
REMARK    3  A    between atoms: CA_5  and  C_9
REMARK    4  A    between atoms: N_8  and  CA_11
REMARK    5  A    between atoms: CA_11  and  C_14
REMARK    6  A    between atoms: C_14  and  O_15
REMARK    7  A    between atoms: CA_17  and  N_20
REMARK    8  A    between atoms: C_21  and  CA_23
REMARK    9  A    between atoms: CA_23  and  N_25
REMARK                            x       y       z     vdW  Elec       q    Type
REMARK                         _______ _______ _______ _____ _____    ______ ____
ROOT
ATOM      1  O   ALA A   2     -33.689  25.094   2.898  0.00  0.00    -0.273 OA
ATOM      2  N   ALA A   3     -35.011  24.729   4.770  0.00  0.00    -0.297 N 
ATOM      3  C   ALA A   2     -34.375  25.522   3.824  0.00  0.00    +0.241 C 
ATOM      4  H   ALA A   3     -35.539  25.168   5.475  0.00  0.00    +0.150 HD
ENDROOT
BRANCH   2   5
ATOM      5  CA  ALA A   3     -34.929  23.287   4.765  0.00  0.00    +0.149 C 
ATOM      6  CB  ALA A   3     -35.313  22.732   6.132  0.00  0.00    +0.031 C 
BRANCH   5   9
ATOM      7  O   ALA A   3     -37.100  22.823   3.786  0.00  0.00    -0.273 OA
ATOM      8  N   ALA A   4     -35.191  22.212   2.617  0.00  0.00    -0.295 N 
ATOM      9  C   ALA A   3     -35.876  22.757   3.695  0.00  0.00    +0.241 C 
ATOM     10  H   ALA A   4     -34.207  22.207   2.639  0.00  0.00    +0.150 HD
BRANCH   8  11
ATOM     11  CA  ALA A   4     -35.861  21.654   1.465  0.00  0.00    +0.171 C 
ATOM     12  CB  ALA A   4     -35.087  21.966   0.193  0.00  0.00    +0.033 C 
BRANCH  11  14
ATOM     13  OXT ALA A   4     -35.575  19.340   0.833  0.00  0.00    -0.248 OA
ATOM     14  C   ALA A   4     -36.066  20.156   1.606  0.00  0.00    +0.332 C 
BRANCH  14  15
ATOM     15  O   ALA A   4     -36.847  19.786   2.649  0.00  0.00    -0.479 OA
ATOM     16  H   ALA A   4     -36.706  18.962   3.070  0.00  0.00    +0.295 HD
ENDBRANCH  14  15
ENDBRANCH  11  14
ENDBRANCH   8  11
ENDBRANCH   5   9
ENDBRANCH   2   5
BRANCH   3  17
ATOM     17  CA  ALA A   2     -34.614  27.007   4.070  0.00  0.00    +0.149 C 
ATOM     18  CB  ALA A   2     -35.154  27.671   2.809  0.00  0.00    +0.031 C 
BRANCH  17  20
ATOM     19  O   ALA A   1     -33.341  26.850   6.647  0.00  0.00    -0.277 OA
ATOM     20  N   ALA A   2     -33.359  27.611   4.455  0.00  0.00    -0.300 N 
ATOM     21  C   ALA A   1     -32.821  27.480   5.728  0.00  0.00    +0.202 C 
ATOM     22  H   ALA A   2     -32.865  28.137   3.787  0.00  0.00    +0.150 HD
BRANCH  21  23
ATOM     23  CA  ALA A   1     -31.501  28.227   5.869  0.00  0.00    +0.013 C 
ATOM     24  CB  ALA A   1     -31.685  29.464   6.740  0.00  0.00    -0.015 C 
BRANCH  23  25
ATOM     25  N   ALA A   1     -31.046  28.610   4.535  0.00  0.00    +0.387 N 
ATOM     26  H1  ALA A   1     -30.028  28.580   4.501  0.00  0.00    -0.089 HD
ATOM     27  H2  ALA A   1     -31.365  29.556   4.326  0.00  0.00    -0.089 HD
ATOM     28  H3  ALA A   1     -31.430  27.963   3.846  0.00  0.00    -0.089 HD
ENDBRANCH  23  25
ENDBRANCH  21  23
ENDBRANCH  17  20
ENDBRANCH   3  17
TORSDOF 9
ENDMDL
MODEL 5
REMARK VINA RESULT:      -5.5      2.893      4.507
REMARK  Name = 5478846
REMARK  9 active torsions:
REMARK  status: ('A' for Active; 'I' for Inactive)
REMARK    1  A    between atoms: N_2  and  CA_5
REMARK    2  A    between atoms: C_3  and  CA_17
REMARK    3  A    between atoms: CA_5  and  C_9
REMARK    4  A    between atoms: N_8  and  CA_11
REMARK    5  A    between atoms: CA_11  and  C_14
REMARK    6  A    between atoms: C_14  and  O_15
REMARK    7  A    between atoms: CA_17  and  N_20
REMARK    8  A    between atoms: C_21  and  CA_23
REMARK    9  A    between atoms: CA_23  and  N_25
REMARK                            x       y       z     vdW  Elec       q    Type
REMARK                         _______ _______ _______ _____ _____    ______ ____
ROOT
ATOM      1  O   ALA A   2     -33.959  23.916   4.642  0.00  0.00    -0.273 OA
ATOM      2  N   ALA A   3     -35.747  25.109   5.515  0.00  0.00    -0.297 N 
ATOM      3  C   ALA A   2     -35.095  23.952   5.111  0.00  0.00    +0.241 C 
ATOM      4  H   ALA A   3     -36.658  25.034   5.879  0.00  0.00    +0.150 HD
ENDROOT
BRANCH   2   5
ATOM      5  CA  ALA A   3     -35.146  26.420   5.422  0.00  0.00    +0.149 C 
ATOM      6  CB  ALA A   3     -33.745  26.401   6.019  0.00  0.00    +0.031 C 
BRANCH   5   9
ATOM      7  O   ALA A   3     -34.112  27.357   3.437  0.00  0.00    -0.273 OA
ATOM      8  N   ALA A   4     -36.255  26.484   3.277  0.00  0.00    -0.295 N 
ATOM      9  C   ALA A   3     -35.088  26.817   3.952  0.00  0.00    +0.241 C 
ATOM     10  H   ALA A   4     -36.983  26.052   3.779  0.00  0.00    +0.150 HD
BRANCH   8  11
ATOM     11  CA  ALA A   4     -36.446  26.743   1.868  0.00  0.00    +0.171 C 
ATOM     12  CB  ALA A   4     -35.748  25.684   1.029  0.00  0.00    +0.033 C 
BRANCH  11  14
ATOM     13  OXT ALA A   4     -38.316  27.012   0.361  0.00  0.00    -0.248 OA
ATOM     14  C   ALA A   4     -37.919  26.819   1.506  0.00  0.00    +0.332 C 
BRANCH  14  15
ATOM     15  O   ALA A   4     -38.769  26.668   2.550  0.00  0.00    -0.479 OA
ATOM     16  H   ALA A   4     -39.667  26.916   2.462  0.00  0.00    +0.295 HD
ENDBRANCH  14  15
ENDBRANCH  11  14
ENDBRANCH   8  11
ENDBRANCH   5   9
ENDBRANCH   2   5
BRANCH   3  17
ATOM     17  CA  ALA A   2     -35.959  22.712   5.304  0.00  0.00    +0.149 C 
ATOM     18  CB  ALA A   2     -35.159  21.612   5.993  0.00  0.00    +0.031 C 
BRANCH  17  20
ATOM     19  O   ALA A   1     -37.913  23.989   3.620  0.00  0.00    -0.277 OA
ATOM     20  N   ALA A   2     -36.408  22.266   4.006  0.00  0.00    -0.300 N 
ATOM     21  C   ALA A   1     -37.360  22.951   3.263  0.00  0.00    +0.202 C 
ATOM     22  H   ALA A   2     -36.023  21.441   3.632  0.00  0.00    +0.150 HD
BRANCH  21  23
ATOM     23  CA  ALA A   1     -37.661  22.256   1.941  0.00  0.00    +0.013 C 
ATOM     24  CB  ALA A   1     -38.536  23.144   1.065  0.00  0.00    -0.015 C 
BRANCH  23  25
ATOM     25  N   ALA A   1     -38.345  20.998   2.230  0.00  0.00    +0.387 N 
ATOM     26  H1  ALA A   1     -39.209  20.949   1.689  0.00  0.00    -0.089 HD
ATOM     27  H2  ALA A   1     -38.564  20.950   3.225  0.00  0.00    -0.089 HD
ATOM     28  H3  ALA A   1     -37.741  20.216   1.977  0.00  0.00    -0.089 HD
ENDBRANCH  23  25
ENDBRANCH  21  23
ENDBRANCH  17  20
ENDBRANCH   3  17
TORSDOF 9
ENDMDL
MODEL 6
REMARK VINA RESULT:      -5.4      2.409      2.978
REMARK  Name = 5478846
REMARK  9 active torsions:
REMARK  status: ('A' for Active; 'I' for Inactive)
REMARK    1  A    between atoms: N_2  and  CA_5
REMARK    2  A    between atoms: C_3  and  CA_17
REMARK    3  A    between atoms: CA_5  and  C_9
REMARK    4  A    between atoms: N_8  and  CA_11
REMARK    5  A    between atoms: CA_11  and  C_14
REMARK    6  A    between atoms: C_14  and  O_15
REMARK    7  A    between atoms: CA_17  and  N_20
REMARK    8  A    between atoms: C_21  and  CA_23
REMARK    9  A    between atoms: CA_23  and  N_25
REMARK                            x       y       z     vdW  Elec       q    Type
REMARK                         _______ _______ _______ _____ _____    ______ ____
ROOT
ATOM      1  O   ALA A   2     -36.911  24.913   4.822  0.00  0.00    -0.273 OA
ATOM      2  N   ALA A   3     -34.708  24.769   5.534  0.00  0.00    -0.297 N 
ATOM      3  C   ALA A   2     -35.928  24.243   5.133  0.00  0.00    +0.241 C 
ATOM      4  H   ALA A   3     -33.979  24.148   5.762  0.00  0.00    +0.150 HD
ENDROOT
BRANCH   2   5
ATOM      5  CA  ALA A   3     -34.460  26.189   5.631  0.00  0.00    +0.149 C 
ATOM      6  CB  ALA A   3     -33.330  26.461   6.615  0.00  0.00    +0.031 C 
BRANCH   5   9
ATOM      7  O   ALA A   3     -32.993  26.515   3.726  0.00  0.00    -0.273 OA
ATOM      8  N   ALA A   4     -35.137  27.398   3.652  0.00  0.00    -0.295 N 
ATOM      9  C   ALA A   3     -34.090  26.706   4.246  0.00  0.00    +0.241 C 
ATOM     10  H   ALA A   4     -35.980  27.497   4.151  0.00  0.00    +0.150 HD
BRANCH   8  11
ATOM     11  CA  ALA A   4     -35.044  27.976   2.331  0.00  0.00    +0.171 C 
ATOM     12  CB  ALA A   4     -35.805  27.131   1.321  0.00  0.00    +0.033 C 
BRANCH  11  14
ATOM     13  OXT ALA A   4     -36.157  29.888   1.357  0.00  0.00    -0.248 OA
ATOM     14  C   ALA A   4     -35.549  29.409   2.309  0.00  0.00    +0.332 C 
BRANCH  14  15
ATOM     15  O   ALA A   4     -35.264  30.127   3.421  0.00  0.00    -0.479 OA
ATOM     16  H   ALA A   4     -34.953  31.007   3.343  0.00  0.00    +0.295 HD
ENDBRANCH  14  15
ENDBRANCH  11  14
ENDBRANCH   8  11
ENDBRANCH   5   9
ENDBRANCH   2   5
BRANCH   3  17
ATOM     17  CA  ALA A   2     -35.922  22.720   5.132  0.00  0.00    +0.149 C 
ATOM     18  CB  ALA A   2     -35.031  22.194   6.251  0.00  0.00    +0.031 C 
BRANCH  17  20
ATOM     19  O   ALA A   1     -37.467  22.322   2.737  0.00  0.00    -0.277 OA
ATOM     20  N   ALA A   2     -35.432  22.269   3.850  0.00  0.00    -0.300 N 
ATOM     21  C   ALA A   1     -36.258  22.106   2.745  0.00  0.00    +0.202 C 
ATOM     22  H   ALA A   2     -34.474  22.069   3.755  0.00  0.00    +0.150 HD
BRANCH  21  23
ATOM     23  CA  ALA A   1     -35.489  21.607   1.528  0.00  0.00    +0.013 C 
ATOM     24  CB  ALA A   1     -34.765  20.308   1.857  0.00  0.00    -0.015 C 
BRANCH  23  25
ATOM     25  N   ALA A   1     -34.529  22.637   1.138  0.00  0.00    +0.387 N 
ATOM     26  H1  ALA A   1     -33.582  22.274   1.238  0.00  0.00    -0.089 HD
ATOM     27  H2  ALA A   1     -34.645  23.454   1.736  0.00  0.00    -0.089 HD
ATOM     28  H3  ALA A   1     -34.691  22.902   0.166  0.00  0.00    -0.089 HD
ENDBRANCH  23  25
ENDBRANCH  21  23
ENDBRANCH  17  20
ENDBRANCH   3  17
TORSDOF 9
ENDMDL
MODEL 7
REMARK VINA RESULT:      -5.4      2.848      5.766
REMARK  Name = 5478846
REMARK  9 active torsions:
REMARK  status: ('A' for Active; 'I' for Inactive)
REMARK    1  A    between atoms: N_2  and  CA_5
REMARK    2  A    between atoms: C_3  and  CA_17
REMARK    3  A    between atoms: CA_5  and  C_9
REMARK    4  A    between atoms: N_8  and  CA_11
REMARK    5  A    between atoms: CA_11  and  C_14
REMARK    6  A    between atoms: C_14  and  O_15
REMARK    7  A    between atoms: CA_17  and  N_20
REMARK    8  A    between atoms: C_21  and  CA_23
REMARK    9  A    between atoms: CA_23  and  N_25
REMARK                            x       y       z     vdW  Elec       q    Type
REMARK                         _______ _______ _______ _____ _____    ______ ____
ROOT
ATOM      1  O   ALA A   2     -33.653  27.878   4.019  0.00  0.00    -0.273 OA
ATOM      2  N   ALA A   3     -34.667  25.943   3.239  0.00  0.00    -0.297 N 
ATOM      3  C   ALA A   2     -34.180  26.787   4.227  0.00  0.00    +0.241 C 
ATOM      4  H   ALA A   3     -35.074  25.087   3.508  0.00  0.00    +0.150 HD
ENDROOT
BRANCH   2   5
ATOM      5  CA  ALA A   3     -34.603  26.265   1.832  0.00  0.00    +0.149 C 
ATOM      6  CB  ALA A   3     -33.586  25.371   1.132  0.00  0.00    +0.031 C 
BRANCH   5   9
ATOM      7  O   ALA A   3     -36.289  26.416   0.093  0.00  0.00    -0.273 OA
ATOM      8  N   ALA A   4     -36.849  25.420   2.112  0.00  0.00    -0.295 N 
ATOM      9  C   ALA A   3     -35.988  26.060   1.231  0.00  0.00    +0.241 C 
ATOM     10  H   ALA A   4     -36.512  25.174   3.004  0.00  0.00    +0.150 HD
BRANCH   8  11
ATOM     11  CA  ALA A   4     -38.217  25.097   1.777  0.00  0.00    +0.171 C 
ATOM     12  CB  ALA A   4     -38.395  23.592   1.643  0.00  0.00    +0.033 C 
BRANCH  11  14
ATOM     13  OXT ALA A   4     -39.875  26.655   2.591  0.00  0.00    -0.248 OA
ATOM     14  C   ALA A   4     -39.192  25.657   2.798  0.00  0.00    +0.332 C 
BRANCH  14  15
ATOM     15  O   ALA A   4     -39.244  24.974   3.966  0.00  0.00    -0.479 OA
ATOM     16  H   ALA A   4     -38.767  24.174   4.062  0.00  0.00    +0.295 HD
ENDBRANCH  14  15
ENDBRANCH  11  14
ENDBRANCH   8  11
ENDBRANCH   5   9
ENDBRANCH   2   5
BRANCH   3  17
ATOM     17  CA  ALA A   2     -34.361  26.199   5.621  0.00  0.00    +0.149 C 
ATOM     18  CB  ALA A   2     -33.234  26.658   6.539  0.00  0.00    +0.031 C 
BRANCH  17  20
ATOM     19  O   ALA A   1     -36.636  24.503   5.140  0.00  0.00    -0.277 OA
ATOM     20  N   ALA A   2     -34.360  24.759   5.510  0.00  0.00    -0.300 N 
ATOM     21  C   ALA A   1     -35.513  24.022   5.275  0.00  0.00    +0.202 C 
ATOM     22  H   ALA A   2     -33.506  24.279   5.604  0.00  0.00    +0.150 HD
BRANCH  21  23
ATOM     23  CA  ALA A   1     -35.233  22.526   5.218  0.00  0.00    +0.013 C 
ATOM     24  CB  ALA A   1     -35.664  21.959   3.870  0.00  0.00    -0.015 C 
BRANCH  23  25
ATOM     25  N   ALA A   1     -35.973  21.879   6.299  0.00  0.00    +0.387 N 
ATOM     26  H1  ALA A   1     -35.863  20.867   6.228  0.00  0.00    -0.089 HD
ATOM     27  H2  ALA A   1     -36.961  22.120   6.227  0.00  0.00    -0.089 HD
ATOM     28  H3  ALA A   1     -35.610  22.198   7.198  0.00  0.00    -0.089 HD
ENDBRANCH  23  25
ENDBRANCH  21  23
ENDBRANCH  17  20
ENDBRANCH   3  17
TORSDOF 9
ENDMDL
MODEL 8
REMARK VINA RESULT:      -5.4      2.479      2.867
REMARK  Name = 5478846
REMARK  9 active torsions:
REMARK  status: ('A' for Active; 'I' for Inactive)
REMARK    1  A    between atoms: N_2  and  CA_5
REMARK    2  A    between atoms: C_3  and  CA_17
REMARK    3  A    between atoms: CA_5  and  C_9
REMARK    4  A    between atoms: N_8  and  CA_11
REMARK    5  A    between atoms: CA_11  and  C_14
REMARK    6  A    between atoms: C_14  and  O_15
REMARK    7  A    between atoms: CA_17  and  N_20
REMARK    8  A    between atoms: C_21  and  CA_23
REMARK    9  A    between atoms: CA_23  and  N_25
REMARK                            x       y       z     vdW  Elec       q    Type
REMARK                         _______ _______ _______ _____ _____    ______ ____
ROOT
ATOM      1  O   ALA A   2     -34.469  23.951   2.835  0.00  0.00    -0.273 OA
ATOM      2  N   ALA A   3     -34.886  25.482   4.527  0.00  0.00    -0.297 N 
ATOM      3  C   ALA A   2     -35.048  24.269   3.872  0.00  0.00    +0.241 C 
ATOM      4  H   ALA A   3     -35.395  25.642   5.355  0.00  0.00    +0.150 HD
ENDROOT
BRANCH   2   5
ATOM      5  CA  ALA A   3     -34.004  26.521   4.047  0.00  0.00    +0.149 C 
ATOM      6  CB  ALA A   3     -34.813  27.655   3.429  0.00  0.00    +0.031 C 
BRANCH   5   9
ATOM      7  O   ALA A   3     -33.448  26.768   6.396  0.00  0.00    -0.273 OA
ATOM      8  N   ALA A   4     -32.120  27.824   4.813  0.00  0.00    -0.295 N 
ATOM      9  C   ALA A   3     -33.187  27.036   5.225  0.00  0.00    +0.241 C 
ATOM     10  H   ALA A   4     -31.995  27.980   3.850  0.00  0.00    +0.150 HD
BRANCH   8  11
ATOM     11  CA  ALA A   4     -31.185  28.422   5.738  0.00  0.00    +0.171 C 
ATOM     12  CB  ALA A   4     -29.916  28.848   5.016  0.00  0.00    +0.033 C 
BRANCH  11  14
ATOM     13  OXT ALA A   4     -32.404  30.502   5.899  0.00  0.00    -0.248 OA
ATOM     14  C   ALA A   4     -31.798  29.602   6.472  0.00  0.00    +0.332 C 
BRANCH  14  15
ATOM     15  O   ALA A   4     -31.615  29.593   7.814  0.00  0.00    -0.479 OA
ATOM     16  H   ALA A   4     -30.811  29.276   8.174  0.00  0.00    +0.295 HD
ENDBRANCH  14  15
ENDBRANCH  11  14
ENDBRANCH   8  11
ENDBRANCH   5   9
ENDBRANCH   2   5
BRANCH   3  17
ATOM     17  CA  ALA A   2     -36.045  23.363   4.583  0.00  0.00    +0.149 C 
ATOM     18  CB  ALA A   2     -35.341  22.541   5.656  0.00  0.00    +0.031 C 
BRANCH  17  20
ATOM     19  O   ALA A   1     -38.440  23.865   3.068  0.00  0.00    -0.277 OA
ATOM     20  N   ALA A   2     -36.647  22.492   3.601  0.00  0.00    -0.300 N 
ATOM     21  C   ALA A   1     -37.810  22.821   2.916  0.00  0.00    +0.202 C 
ATOM     22  H   ALA A   2     -36.216  21.629   3.409  0.00  0.00    +0.150 HD
BRANCH  21  23
ATOM     23  CA  ALA A   1     -38.235  21.721   1.952  0.00  0.00    +0.013 C 
ATOM     24  CB  ALA A   1     -39.747  21.536   1.995  0.00  0.00    -0.015 C 
BRANCH  23  25
ATOM     25  N   ALA A   1     -37.563  20.484   2.343  0.00  0.00    +0.387 N 
ATOM     26  H1  ALA A   1     -38.193  19.920   2.913  0.00  0.00    -0.089 HD
ATOM     27  H2  ALA A   1     -36.725  20.707   2.880  0.00  0.00    -0.089 HD
ATOM     28  H3  ALA A   1     -37.301  19.961   1.506  0.00  0.00    -0.089 HD
ENDBRANCH  23  25
ENDBRANCH  21  23
ENDBRANCH  17  20
ENDBRANCH   3  17
TORSDOF 9
ENDMDL
MODEL 9
REMARK VINA RESULT:      -5.4      2.595      7.640
REMARK  Name = 5478846
REMARK  9 active torsions:
REMARK  status: ('A' for Active; 'I' for Inactive)
REMARK    1  A    between atoms: N_2  and  CA_5
REMARK    2  A    between atoms: C_3  and  CA_17
REMARK    3  A    between atoms: CA_5  and  C_9
REMARK    4  A    between atoms: N_8  and  CA_11
REMARK    5  A    between atoms: CA_11  and  C_14
REMARK    6  A    between atoms: C_14  and  O_15
REMARK    7  A    between atoms: CA_17  and  N_20
REMARK    8  A    between atoms: C_21  and  CA_23
REMARK    9  A    between atoms: CA_23  and  N_25
REMARK                            x       y       z     vdW  Elec       q    Type
REMARK                         _______ _______ _______ _____ _____    ______ ____
ROOT
ATOM      1  O   ALA A   2     -33.747  25.139   2.797  0.00  0.00    -0.273 OA
ATOM      2  N   ALA A   3     -34.571  24.571   4.890  0.00  0.00    -0.297 N 
ATOM      3  C   ALA A   2     -33.874  25.373   3.997  0.00  0.00    +0.241 C 
ATOM      4  H   ALA A   3     -34.616  24.846   5.834  0.00  0.00    +0.150 HD
ENDROOT
BRANCH   2   5
ATOM      5  CA  ALA A   3     -35.232  23.349   4.494  0.00  0.00    +0.149 C 
ATOM      6  CB  ALA A   3     -35.266  22.366   5.658  0.00  0.00    +0.031 C 
BRANCH   5   9
ATOM      7  O   ALA A   3     -37.298  24.619   4.532  0.00  0.00    -0.273 OA
ATOM      8  N   ALA A   4     -37.100  22.850   3.045  0.00  0.00    -0.295 N 
ATOM      9  C   ALA A   3     -36.649  23.693   4.052  0.00  0.00    +0.241 C 
ATOM     10  H   ALA A   4     -36.502  22.135   2.727  0.00  0.00    +0.150 HD
BRANCH   8  11
ATOM     11  CA  ALA A   4     -38.408  22.976   2.445  0.00  0.00    +0.171 C 
ATOM     12  CB  ALA A   4     -38.357  23.908   1.244  0.00  0.00    +0.033 C 
BRANCH  11  14
ATOM     13  OXT ALA A   4     -40.138  21.469   1.686  0.00  0.00    -0.248 OA
ATOM     14  C   ALA A   4     -38.974  21.625   2.043  0.00  0.00    +0.332 C 
BRANCH  14  15
ATOM     15  O   ALA A   4     -38.097  20.597   2.119  0.00  0.00    -0.479 OA
ATOM     16  H   ALA A   4     -37.203  20.725   1.872  0.00  0.00    +0.295 HD
ENDBRANCH  14  15
ENDBRANCH  11  14
ENDBRANCH   8  11
ENDBRANCH   5   9
ENDBRANCH   2   5
BRANCH   3  17
ATOM     17  CA  ALA A   2     -33.263  26.591   4.679  0.00  0.00    +0.149 C 
ATOM     18  CB  ALA A   2     -33.577  26.574   6.171  0.00  0.00    +0.031 C 
BRANCH  17  20
ATOM     19  O   ALA A   1     -31.812  28.630   3.259  0.00  0.00    -0.277 OA
ATOM     20  N   ALA A   2     -33.813  27.778   4.066  0.00  0.00    -0.300 N 
ATOM     21  C   ALA A   1     -33.030  28.710   3.398  0.00  0.00    +0.202 C 
ATOM     22  H   ALA A   2     -34.783  27.932   4.124  0.00  0.00    +0.150 HD
BRANCH  21  23
ATOM     23  CA  ALA A   1     -33.859  29.870   2.861  0.00  0.00    +0.013 C 
ATOM     24  CB  ALA A   1     -33.279  31.198   3.336  0.00  0.00    -0.015 C 
BRANCH  23  25
ATOM     25  N   ALA A   1     -35.229  29.717   3.342  0.00  0.00    +0.387 N 
ATOM     26  H1  ALA A   1     -35.796  29.275   2.618  0.00  0.00    -0.089 HD
ATOM     27  H2  ALA A   1     -35.617  30.633   3.564  0.00  0.00    -0.089 HD
ATOM     28  H3  ALA A   1     -35.232  29.134   4.180  0.00  0.00    -0.089 HD
ENDBRANCH  23  25
ENDBRANCH  21  23
ENDBRANCH  17  20
ENDBRANCH   3  17
TORSDOF 9
ENDMDL
