MODEL 1
REMARK VINA RESULT:      -6.4      0.000      0.000
REMARK  Name = 53437635
REMARK  13 active torsions:
REMARK  status: ('A' for Active; 'I' for Inactive)
REMARK    1  A    between atoms: C_1  and  N_3
REMARK    2  A    between atoms: C_1  and  C_15
REMARK    3  A    between atoms: C_1  and  C_28
REMARK    4  A    between atoms: C_4  and  O_6
REMARK    5  A    between atoms: O_6  and  C_7
REMARK    6  A    between atoms: C_7  and  C_8
REMARK    7  A    between atoms: C_15  and  C_16
REMARK    8  A    between atoms: C_16  and  O_17
REMARK    9  A    between atoms: O_17  and  C_19
REMARK   10  A    between atoms: C_19  and  C_22
REMARK   11  A    between atoms: C_28  and  C_29
REMARK   12  A    between atoms: C_29  and  C_31
REMARK   13  A    between atoms: C_31  and  O_32
REMARK                            x       y       z     vdW  Elec       q    Type
REMARK                         _______ _______ _______ _____ _____    ______ ____
ROOT
ATOM      1  C   UNL     1     -39.685  23.487   1.807  0.00  0.00    +0.137 C 
ENDROOT
BRANCH   1   3
ATOM      2  O   UNL     1     -41.535  25.723   1.945  0.00  0.00    -0.226 OA
ATOM      3  N   UNL     1     -41.005  23.575   1.244  0.00  0.00    -0.265 N 
ATOM      4  C   UNL     1     -41.822  24.684   1.359  0.00  0.00    +0.402 C 
ATOM      5  H   UNL     1     -41.348  22.796   0.747  0.00  0.00    +0.153 HD
BRANCH   4   6
ATOM      6  O   UNL     1     -43.008  24.457   0.720  0.00  0.00    -0.430 OA
BRANCH   6   7
ATOM      7  C   UNL     1     -43.980  25.504   0.818  0.00  0.00    +0.237 C 
BRANCH   7   8
ATOM      8  C   UNL     1     -45.009  25.124   1.843  0.00  0.00    +0.021 C 
ATOM      9  C   UNL     1     -45.873  24.057   1.601  0.00  0.00    -0.001 C 
ATOM     10  C   UNL     1     -45.098  25.838   3.038  0.00  0.00    -0.001 C 
ATOM     11  C   UNL     1     -46.829  23.703   2.554  0.00  0.00    -0.000 C 
ATOM     12  C   UNL     1     -46.054  25.485   3.991  0.00  0.00    -0.000 C 
ATOM     13  C   UNL     1     -46.918  24.417   3.749  0.00  0.00    -0.000 C 
ENDBRANCH   7   8
ENDBRANCH   6   7
ENDBRANCH   4   6
ENDBRANCH   1   3
BRANCH   1  15
ATOM     14  O   UNL     1     -40.229  21.142   1.997  0.00  0.00    -0.290 OA
ATOM     15  C   UNL     1     -39.353  22.004   1.916  0.00  0.00    +0.212 C 
BRANCH  15  16
ATOM     16  C   UNL     1     -37.881  21.644   1.876  0.00  0.00    +0.274 C 
BRANCH  16  17
ATOM     17  O   UNL     1     -37.278  21.867   3.133  0.00  0.00    -0.437 OA
BRANCH  17  19
ATOM     18  O   UNL     1     -35.339  20.632   3.014  0.00  0.00    -0.245 OA
ATOM     19  C   UNL     1     -35.925  21.686   3.199  0.00  0.00    +0.343 C 
BRANCH  19  22
ATOM     20 CL   UNL     1     -34.991  23.388   0.844  0.00  0.00    -0.082 Cl
ATOM     21 CL   UNL     1     -35.588  22.320   6.165  0.00  0.00    -0.082 Cl
ATOM     22  C   UNL     1     -35.232  22.956   3.532  0.00  0.00    +0.097 C 
ATOM     23  C   UNL     1     -34.774  23.789   2.511  0.00  0.00    +0.065 C 
ATOM     24  C   UNL     1     -35.037  23.316   4.865  0.00  0.00    +0.065 C 
ATOM     25  C   UNL     1     -34.121  24.982   2.824  0.00  0.00    +0.012 C 
ATOM     26  C   UNL     1     -34.385  24.509   5.178  0.00  0.00    +0.012 C 
ATOM     27  C   UNL     1     -33.927  25.342   4.157  0.00  0.00    +0.002 C 
ENDBRANCH  19  22
ENDBRANCH  17  19
ENDBRANCH  16  17
ENDBRANCH  15  16
ENDBRANCH   1  15
BRANCH   1  28
ATOM     28  C   UNL     1     -38.622  24.203   0.968  0.00  0.00    +0.039 C 
BRANCH  28  29
ATOM     29  C   UNL     1     -37.930  25.349   1.712  0.00  0.00    +0.112 C 
BRANCH  29  31
ATOM     30  O   UNL     1     -37.997  24.770   4.077  0.00  0.00    -0.250 OA
ATOM     31  C   UNL     1     -38.362  25.486   3.155  0.00  0.00    +0.314 C 
BRANCH  31  32
ATOM     32  O   UNL     1     -39.257  26.496   3.314  0.00  0.00    -0.480 OA
ATOM     33  H   UNL     1     -39.881  26.464   4.012  0.00  0.00    +0.295 HD
ENDBRANCH  31  32
ENDBRANCH  29  31
ENDBRANCH  28  29
ENDBRANCH   1  28
TORSDOF 13
ENDMDL
MODEL 2
REMARK VINA RESULT:      -6.3      5.048      8.561
REMARK  Name = 53437635
REMARK  13 active torsions:
REMARK  status: ('A' for Active; 'I' for Inactive)
REMARK    1  A    between atoms: C_1  and  N_3
REMARK    2  A    between atoms: C_1  and  C_15
REMARK    3  A    between atoms: C_1  and  C_28
REMARK    4  A    between atoms: C_4  and  O_6
REMARK    5  A    between atoms: O_6  and  C_7
REMARK    6  A    between atoms: C_7  and  C_8
REMARK    7  A    between atoms: C_15  and  C_16
REMARK    8  A    between atoms: C_16  and  O_17
REMARK    9  A    between atoms: O_17  and  C_19
REMARK   10  A    between atoms: C_19  and  C_22
REMARK   11  A    between atoms: C_28  and  C_29
REMARK   12  A    between atoms: C_29  and  C_31
REMARK   13  A    between atoms: C_31  and  O_32
REMARK                            x       y       z     vdW  Elec       q    Type
REMARK                         _______ _______ _______ _____ _____    ______ ____
ROOT
ATOM      1  C   UNL     1     -33.879  25.540   1.224  0.00  0.00    +0.137 C 
ENDROOT
BRANCH   1   3
ATOM      2  O   UNL     1     -31.485  24.580  -0.113  0.00  0.00    -0.226 OA
ATOM      3  N   UNL     1     -33.699  24.297   0.522  0.00  0.00    -0.265 N 
ATOM      4  C   UNL     1     -32.518  23.919  -0.089  0.00  0.00    +0.402 C 
ATOM      5  H   UNL     1     -34.465  23.679   0.474  0.00  0.00    +0.153 HD
BRANCH   4   6
ATOM      6  O   UNL     1     -32.667  22.691  -0.668  0.00  0.00    -0.430 OA
BRANCH   6   7
ATOM      7  C   UNL     1     -33.549  21.786   0.006  0.00  0.00    +0.237 C 
BRANCH   7   8
ATOM      8  C   UNL     1     -32.807  20.518   0.316  0.00  0.00    +0.021 C 
ATOM      9  C   UNL     1     -33.410  19.529   1.093  0.00  0.00    -0.001 C 
ATOM     10  C   UNL     1     -31.514  20.330  -0.173  0.00  0.00    -0.001 C 
ATOM     11  C   UNL     1     -32.720  18.351   1.380  0.00  0.00    -0.000 C 
ATOM     12  C   UNL     1     -30.824  19.152   0.115  0.00  0.00    -0.000 C 
ATOM     13  C   UNL     1     -31.428  18.163   0.891  0.00  0.00    -0.000 C 
ENDBRANCH   7   8
ENDBRANCH   6   7
ENDBRANCH   4   6
ENDBRANCH   1   3
BRANCH   1  15
ATOM     14  O   UNL     1     -35.829  26.912   1.605  0.00  0.00    -0.290 OA
ATOM     15  C   UNL     1     -35.372  25.843   1.201  0.00  0.00    +0.212 C 
BRANCH  15  16
ATOM     16  C   UNL     1     -36.263  24.766   0.612  0.00  0.00    +0.274 C 
BRANCH  16  17
ATOM     17  O   UNL     1     -36.258  23.613   1.427  0.00  0.00    -0.437 OA
BRANCH  17  19
ATOM     18  O   UNL     1     -38.190  24.052   2.600  0.00  0.00    -0.245 OA
ATOM     19  C   UNL     1     -37.035  23.660   2.551  0.00  0.00    +0.343 C 
BRANCH  19  22
ATOM     20 CL   UNL     1     -36.450  25.704   4.740  0.00  0.00    -0.082 Cl
ATOM     21 CL   UNL     1     -36.253  20.710   2.542  0.00  0.00    -0.082 Cl
ATOM     22  C   UNL     1     -36.290  23.167   3.736  0.00  0.00    +0.097 C 
ATOM     23  C   UNL     1     -35.983  24.041   4.779  0.00  0.00    +0.065 C 
ATOM     24  C   UNL     1     -35.895  21.831   3.807  0.00  0.00    +0.065 C 
ATOM     25  C   UNL     1     -35.281  23.578   5.893  0.00  0.00    +0.012 C 
ATOM     26  C   UNL     1     -35.194  21.369   4.921  0.00  0.00    +0.012 C 
ATOM     27  C   UNL     1     -34.888  22.242   5.964  0.00  0.00    +0.002 C 
ENDBRANCH  19  22
ENDBRANCH  17  19
ENDBRANCH  16  17
ENDBRANCH  15  16
ENDBRANCH   1  15
BRANCH   1  28
ATOM     28  C   UNL     1     -33.374  25.495   2.670  0.00  0.00    +0.039 C 
BRANCH  28  29
ATOM     29  C   UNL     1     -32.675  26.785   3.110  0.00  0.00    +0.112 C 
BRANCH  29  31
ATOM     30  O   UNL     1     -33.235  27.379   5.405  0.00  0.00    -0.250 OA
ATOM     31  C   UNL     1     -33.408  27.530   4.204  0.00  0.00    +0.314 C 
BRANCH  31  32
ATOM     32  O   UNL     1     -34.334  28.382   3.692  0.00  0.00    -0.480 OA
ATOM     33  H   UNL     1     -34.933  28.085   3.035  0.00  0.00    +0.295 HD
ENDBRANCH  31  32
ENDBRANCH  29  31
ENDBRANCH  28  29
ENDBRANCH   1  28
TORSDOF 13
ENDMDL
MODEL 3
REMARK VINA RESULT:      -6.3      5.367      8.475
REMARK  Name = 53437635
REMARK  13 active torsions:
REMARK  status: ('A' for Active; 'I' for Inactive)
REMARK    1  A    between atoms: C_1  and  N_3
REMARK    2  A    between atoms: C_1  and  C_15
REMARK    3  A    between atoms: C_1  and  C_28
REMARK    4  A    between atoms: C_4  and  O_6
REMARK    5  A    between atoms: O_6  and  C_7
REMARK    6  A    between atoms: C_7  and  C_8
REMARK    7  A    between atoms: C_15  and  C_16
REMARK    8  A    between atoms: C_16  and  O_17
REMARK    9  A    between atoms: O_17  and  C_19
REMARK   10  A    between atoms: C_19  and  C_22
REMARK   11  A    between atoms: C_28  and  C_29
REMARK   12  A    between atoms: C_29  and  C_31
REMARK   13  A    between atoms: C_31  and  O_32
REMARK                            x       y       z     vdW  Elec       q    Type
REMARK                         _______ _______ _______ _____ _____    ______ ____
ROOT
ATOM      1  C   UNL     1     -36.276  24.508   3.204  0.00  0.00    +0.137 C 
ENDROOT
BRANCH   1   3
ATOM      2  O   UNL     1     -35.463  26.549   5.105  0.00  0.00    -0.226 OA
ATOM      3  N   UNL     1     -34.939  24.932   3.524  0.00  0.00    -0.265 N 
ATOM      4  C   UNL     1     -34.642  25.918   4.447  0.00  0.00    +0.402 C 
ATOM      5  H   UNL     1     -34.191  24.494   3.057  0.00  0.00    +0.153 HD
BRANCH   4   6
ATOM      6  O   UNL     1     -33.289  26.089   4.524  0.00  0.00    -0.430 OA
BRANCH   6   7
ATOM      7  C   UNL     1     -32.744  27.128   3.703  0.00  0.00    +0.237 C 
BRANCH   7   8
ATOM      8  C   UNL     1     -32.432  28.319   4.562  0.00  0.00    +0.021 C 
ATOM      9  C   UNL     1     -32.002  28.138   5.876  0.00  0.00    -0.001 C 
ATOM     10  C   UNL     1     -32.571  29.608   4.044  0.00  0.00    -0.001 C 
ATOM     11  C   UNL     1     -31.711  29.245   6.674  0.00  0.00    -0.000 C 
ATOM     12  C   UNL     1     -32.281  30.714   4.843  0.00  0.00    -0.000 C 
ATOM     13  C   UNL     1     -31.851  30.532   6.157  0.00  0.00    -0.000 C 
ENDBRANCH   7   8
ENDBRANCH   6   7
ENDBRANCH   4   6
ENDBRANCH   1   3
BRANCH   1  15
ATOM     14  O   UNL     1     -37.456  24.463   1.097  0.00  0.00    -0.290 OA
ATOM     15  C   UNL     1     -36.373  24.482   1.683  0.00  0.00    +0.212 C 
BRANCH  15  16
ATOM     16  C   UNL     1     -35.058  24.523   0.929  0.00  0.00    +0.274 C 
BRANCH  16  17
ATOM     17  O   UNL     1     -34.351  23.312   1.092  0.00  0.00    -0.437 OA
BRANCH  17  19
ATOM     18  O   UNL     1     -35.421  22.400  -0.730  0.00  0.00    -0.245 OA
ATOM     19  C   UNL     1     -34.613  22.328   0.182  0.00  0.00    +0.343 C 
BRANCH  19  22
ATOM     20 CL   UNL     1     -31.783  22.362  -0.961  0.00  0.00    -0.082 Cl
ATOM     21 CL   UNL     1     -35.909  20.088   1.799  0.00  0.00    -0.082 Cl
ATOM     22  C   UNL     1     -33.779  21.127   0.438  0.00  0.00    +0.097 C 
ATOM     23  C   UNL     1     -32.475  21.065  -0.052  0.00  0.00    +0.065 C 
ATOM     24  C   UNL     1     -34.301  20.059   1.168  0.00  0.00    +0.065 C 
ATOM     25  C   UNL     1     -31.692  19.935   0.188  0.00  0.00    +0.012 C 
ATOM     26  C   UNL     1     -33.518  18.930   1.408  0.00  0.00    +0.012 C 
ATOM     27  C   UNL     1     -32.213  18.869   0.919  0.00  0.00    +0.002 C 
ENDBRANCH  19  22
ENDBRANCH  17  19
ENDBRANCH  16  17
ENDBRANCH  15  16
ENDBRANCH   1  15
BRANCH   1  28
ATOM     28  C   UNL     1     -36.626  23.132   3.777  0.00  0.00    +0.039 C 
BRANCH  28  29
ATOM     29  C   UNL     1     -35.403  22.335   4.239  0.00  0.00    +0.112 C 
BRANCH  29  31
ATOM     30  O   UNL     1     -35.732  22.585   6.639  0.00  0.00    -0.250 OA
ATOM     31  C   UNL     1     -35.487  21.871   5.677  0.00  0.00    +0.314 C 
BRANCH  31  32
ATOM     32  O   UNL     1     -35.215  20.545   5.790  0.00  0.00    -0.480 OA
ATOM     33  H   UNL     1     -35.203  20.139   6.634  0.00  0.00    +0.295 HD
ENDBRANCH  31  32
ENDBRANCH  29  31
ENDBRANCH  28  29
ENDBRANCH   1  28
TORSDOF 13
ENDMDL
MODEL 4
REMARK VINA RESULT:      -6.3      1.857      3.721
REMARK  Name = 53437635
REMARK  13 active torsions:
REMARK  status: ('A' for Active; 'I' for Inactive)
REMARK    1  A    between atoms: C_1  and  N_3
REMARK    2  A    between atoms: C_1  and  C_15
REMARK    3  A    between atoms: C_1  and  C_28
REMARK    4  A    between atoms: C_4  and  O_6
REMARK    5  A    between atoms: O_6  and  C_7
REMARK    6  A    between atoms: C_7  and  C_8
REMARK    7  A    between atoms: C_15  and  C_16
REMARK    8  A    between atoms: C_16  and  O_17
REMARK    9  A    between atoms: O_17  and  C_19
REMARK   10  A    between atoms: C_19  and  C_22
REMARK   11  A    between atoms: C_28  and  C_29
REMARK   12  A    between atoms: C_29  and  C_31
REMARK   13  A    between atoms: C_31  and  O_32
REMARK                            x       y       z     vdW  Elec       q    Type
REMARK                         _______ _______ _______ _____ _____    ______ ____
ROOT
ATOM      1  C   UNL     1     -39.217  25.290   2.287  0.00  0.00    +0.137 C 
ENDROOT
BRANCH   1   3
ATOM      2  O   UNL     1     -41.840  26.397   1.709  0.00  0.00    -0.226 OA
ATOM      3  N   UNL     1     -40.186  25.793   3.222  0.00  0.00    -0.265 N 
ATOM      4  C   UNL     1     -41.417  26.306   2.857  0.00  0.00    +0.402 C 
ATOM      5  H   UNL     1     -39.958  25.772   4.180  0.00  0.00    +0.153 HD
BRANCH   4   6
ATOM      6  O   UNL     1     -42.105  26.700   3.970  0.00  0.00    -0.430 OA
BRANCH   6   7
ATOM      7  C   UNL     1     -43.264  27.508   3.733  0.00  0.00    +0.237 C 
BRANCH   7   8
ATOM      8  C   UNL     1     -44.493  26.703   4.041  0.00  0.00    +0.021 C 
ATOM      9  C   UNL     1     -45.120  26.834   5.280  0.00  0.00    -0.001 C 
ATOM     10  C   UNL     1     -45.009  25.826   3.087  0.00  0.00    -0.001 C 
ATOM     11  C   UNL     1     -46.263  26.087   5.566  0.00  0.00    -0.000 C 
ATOM     12  C   UNL     1     -46.151  25.078   3.373  0.00  0.00    -0.000 C 
ATOM     13  C   UNL     1     -46.778  25.210   4.612  0.00  0.00    -0.000 C 
ENDBRANCH   7   8
ENDBRANCH   6   7
ENDBRANCH   4   6
ENDBRANCH   1   3
BRANCH   1  15
ATOM     14  O   UNL     1     -38.139  27.349   1.630  0.00  0.00    -0.290 OA
ATOM     15  C   UNL     1     -38.071  26.294   2.262  0.00  0.00    +0.212 C 
BRANCH  15  16
ATOM     16  C   UNL     1     -36.854  25.940   3.095  0.00  0.00    +0.274 C 
BRANCH  16  17
ATOM     17  O   UNL     1     -35.788  25.521   2.270  0.00  0.00    -0.437 OA
BRANCH  17  19
ATOM     18  O   UNL     1     -33.543  25.636   2.768  0.00  0.00    -0.245 OA
ATOM     19  C   UNL     1     -34.644  25.129   2.907  0.00  0.00    +0.343 C 
BRANCH  19  22
ATOM     20 CL   UNL     1     -34.552  25.706   5.902  0.00  0.00    -0.082 Cl
ATOM     21 CL   UNL     1     -35.219  22.443   1.576  0.00  0.00    -0.082 Cl
ATOM     22  C   UNL     1     -34.904  23.981   3.813  0.00  0.00    +0.097 C 
ATOM     23  C   UNL     1     -34.879  24.164   5.195  0.00  0.00    +0.065 C 
ATOM     24  C   UNL     1     -35.173  22.720   3.281  0.00  0.00    +0.065 C 
ATOM     25  C   UNL     1     -35.122  23.085   6.046  0.00  0.00    +0.012 C 
ATOM     26  C   UNL     1     -35.417  21.642   4.132  0.00  0.00    +0.012 C 
ATOM     27  C   UNL     1     -35.391  21.825   5.514  0.00  0.00    +0.002 C 
ENDBRANCH  19  22
ENDBRANCH  17  19
ENDBRANCH  16  17
ENDBRANCH  15  16
ENDBRANCH   1  15
BRANCH   1  28
ATOM     28  C   UNL     1     -38.689  23.900   2.653  0.00  0.00    +0.039 C 
BRANCH  28  29
ATOM     29  C   UNL     1     -38.794  22.887   1.509  0.00  0.00    +0.112 C 
BRANCH  29  31
ATOM     30  O   UNL     1     -40.439  21.168   2.031  0.00  0.00    -0.250 OA
ATOM     31  C   UNL     1     -39.271  21.520   1.949  0.00  0.00    +0.314 C 
BRANCH  31  32
ATOM     32  O   UNL     1     -38.231  20.716   2.291  0.00  0.00    -0.480 OA
ATOM     33  H   UNL     1     -37.467  21.082   2.694  0.00  0.00    +0.295 HD
ENDBRANCH  31  32
ENDBRANCH  29  31
ENDBRANCH  28  29
ENDBRANCH   1  28
TORSDOF 13
ENDMDL
MODEL 5
REMARK VINA RESULT:      -6.3      3.720      7.684
REMARK  Name = 53437635
REMARK  13 active torsions:
REMARK  status: ('A' for Active; 'I' for Inactive)
REMARK    1  A    between atoms: C_1  and  N_3
REMARK    2  A    between atoms: C_1  and  C_15
REMARK    3  A    between atoms: C_1  and  C_28
REMARK    4  A    between atoms: C_4  and  O_6
REMARK    5  A    between atoms: O_6  and  C_7
REMARK    6  A    between atoms: C_7  and  C_8
REMARK    7  A    between atoms: C_15  and  C_16
REMARK    8  A    between atoms: C_16  and  O_17
REMARK    9  A    between atoms: O_17  and  C_19
REMARK   10  A    between atoms: C_19  and  C_22
REMARK   11  A    between atoms: C_28  and  C_29
REMARK   12  A    between atoms: C_29  and  C_31
REMARK   13  A    between atoms: C_31  and  O_32
REMARK                            x       y       z     vdW  Elec       q    Type
REMARK                         _______ _______ _______ _____ _____    ______ ____
ROOT
ATOM      1  C   UNL     1     -38.091  24.449   3.118  0.00  0.00    +0.137 C 
ENDROOT
BRANCH   1   3
ATOM      2  O   UNL     1     -36.504  22.880   4.979  0.00  0.00    -0.226 OA
ATOM      3  N   UNL     1     -36.995  23.568   2.817  0.00  0.00    -0.265 N 
ATOM      4  C   UNL     1     -36.292  22.856   3.771  0.00  0.00    +0.402 C 
ATOM      5  H   UNL     1     -36.730  23.466   1.874  0.00  0.00    +0.153 HD
BRANCH   4   6
ATOM      6  O   UNL     1     -35.315  22.113   3.170  0.00  0.00    -0.430 OA
BRANCH   6   7
ATOM      7  C   UNL     1     -35.243  22.214   1.744  0.00  0.00    +0.237 C 
BRANCH   7   8
ATOM      8  C   UNL     1     -34.315  21.155   1.223  0.00  0.00    +0.021 C 
ATOM      9  C   UNL     1     -33.466  21.436   0.154  0.00  0.00    -0.001 C 
ATOM     10  C   UNL     1     -34.304  19.889   1.810  0.00  0.00    -0.001 C 
ATOM     11  C   UNL     1     -32.603  20.451  -0.329  0.00  0.00    -0.000 C 
ATOM     12  C   UNL     1     -33.442  18.905   1.327  0.00  0.00    -0.000 C 
ATOM     13  C   UNL     1     -32.592  19.187   0.257  0.00  0.00    -0.000 C 
ENDBRANCH   7   8
ENDBRANCH   6   7
ENDBRANCH   4   6
ENDBRANCH   1   3
BRANCH   1  15
ATOM     14  O   UNL     1     -38.628  26.645   2.269  0.00  0.00    -0.290 OA
ATOM     15  C   UNL     1     -37.766  25.788   2.465  0.00  0.00    +0.212 C 
BRANCH  15  16
ATOM     16  C   UNL     1     -36.311  26.023   2.110  0.00  0.00    +0.274 C 
BRANCH  16  17
ATOM     17  O   UNL     1     -35.569  26.384   3.256  0.00  0.00    -0.437 OA
BRANCH  17  19
ATOM     18  O   UNL     1     -33.733  25.206   2.520  0.00  0.00    -0.245 OA
ATOM     19  C   UNL     1     -34.251  26.022   3.265  0.00  0.00    +0.343 C 
BRANCH  19  22
ATOM     20 CL   UNL     1     -34.630  25.057   6.136  0.00  0.00    -0.082 Cl
ATOM     21 CL   UNL     1     -32.494  28.334   2.327  0.00  0.00    -0.082 Cl
ATOM     22  C   UNL     1     -33.503  26.756   4.317  0.00  0.00    +0.097 C 
ATOM     23  C   UNL     1     -33.624  26.376   5.653  0.00  0.00    +0.065 C 
ATOM     24  C   UNL     1     -32.679  27.826   3.968  0.00  0.00    +0.065 C 
ATOM     25  C   UNL     1     -32.922  27.067   6.641  0.00  0.00    +0.012 C 
ATOM     26  C   UNL     1     -31.977  28.516   4.956  0.00  0.00    +0.012 C 
ATOM     27  C   UNL     1     -32.098  28.136   6.292  0.00  0.00    +0.002 C 
ENDBRANCH  19  22
ENDBRANCH  17  19
ENDBRANCH  16  17
ENDBRANCH  15  16
ENDBRANCH   1  15
BRANCH   1  28
ATOM     28  C   UNL     1     -39.440  23.931   2.611  0.00  0.00    +0.039 C 
BRANCH  28  29
ATOM     29  C   UNL     1     -39.327  23.075   1.346  0.00  0.00    +0.112 C 
BRANCH  29  31
ATOM     30  O   UNL     1     -40.671  21.054   1.148  0.00  0.00    -0.250 OA
ATOM     31  C   UNL     1     -39.670  21.618   1.565  0.00  0.00    +0.314 C 
BRANCH  31  32
ATOM     32  O   UNL     1     -38.736  20.996   2.331  0.00  0.00    -0.480 OA
ATOM     33  H   UNL     1     -38.283  20.245   2.001  0.00  0.00    +0.295 HD
ENDBRANCH  31  32
ENDBRANCH  29  31
ENDBRANCH  28  29
ENDBRANCH   1  28
TORSDOF 13
ENDMDL
MODEL 6
REMARK VINA RESULT:      -6.3      4.697      8.198
REMARK  Name = 53437635
REMARK  13 active torsions:
REMARK  status: ('A' for Active; 'I' for Inactive)
REMARK    1  A    between atoms: C_1  and  N_3
REMARK    2  A    between atoms: C_1  and  C_15
REMARK    3  A    between atoms: C_1  and  C_28
REMARK    4  A    between atoms: C_4  and  O_6
REMARK    5  A    between atoms: O_6  and  C_7
REMARK    6  A    between atoms: C_7  and  C_8
REMARK    7  A    between atoms: C_15  and  C_16
REMARK    8  A    between atoms: C_16  and  O_17
REMARK    9  A    between atoms: O_17  and  C_19
REMARK   10  A    between atoms: C_19  and  C_22
REMARK   11  A    between atoms: C_28  and  C_29
REMARK   12  A    between atoms: C_29  and  C_31
REMARK   13  A    between atoms: C_31  and  O_32
REMARK                            x       y       z     vdW  Elec       q    Type
REMARK                         _______ _______ _______ _____ _____    ______ ____
ROOT
ATOM      1  C   UNL     1     -34.541  26.606   1.788  0.00  0.00    +0.137 C 
ENDROOT
BRANCH   1   3
ATOM      2  O   UNL     1     -33.582  24.822  -0.295  0.00  0.00    -0.226 OA
ATOM      3  N   UNL     1     -34.470  25.170   1.821  0.00  0.00    -0.265 N 
ATOM      4  C   UNL     1     -33.997  24.396   0.778  0.00  0.00    +0.402 C 
ATOM      5  H   UNL     1     -34.778  24.711   2.637  0.00  0.00    +0.153 HD
BRANCH   4   6
ATOM      6  O   UNL     1     -34.058  23.073   1.116  0.00  0.00    -0.430 OA
BRANCH   6   7
ATOM      7  C   UNL     1     -34.152  22.154   0.022  0.00  0.00    +0.237 C 
BRANCH   7   8
ATOM      8  C   UNL     1     -33.433  20.887   0.383  0.00  0.00    +0.021 C 
ATOM      9  C   UNL     1     -32.145  20.654  -0.100  0.00  0.00    -0.001 C 
ATOM     10  C   UNL     1     -34.053  19.942   1.202  0.00  0.00    -0.001 C 
ATOM     11  C   UNL     1     -31.477  19.476   0.237  0.00  0.00    -0.000 C 
ATOM     12  C   UNL     1     -33.384  18.765   1.537  0.00  0.00    -0.000 C 
ATOM     13  C   UNL     1     -32.096  18.533   1.055  0.00  0.00    -0.000 C 
ENDBRANCH   7   8
ENDBRANCH   6   7
ENDBRANCH   4   6
ENDBRANCH   1   3
BRANCH   1  15
ATOM     14  O   UNL     1     -36.055  27.505   0.135  0.00  0.00    -0.290 OA
ATOM     15  C   UNL     1     -35.914  26.963   1.231  0.00  0.00    +0.212 C 
BRANCH  15  16
ATOM     16  C   UNL     1     -37.104  26.572   2.087  0.00  0.00    +0.274 C 
BRANCH  16  17
ATOM     17  O   UNL     1     -37.268  25.169   2.102  0.00  0.00    -0.437 OA
BRANCH  17  19
ATOM     18  O   UNL     1     -38.897  24.771   3.680  0.00  0.00    -0.245 OA
ATOM     19  C   UNL     1     -37.761  24.628   3.256  0.00  0.00    +0.343 C 
BRANCH  19  22
ATOM     20 CL   UNL     1     -37.311  21.790   2.229  0.00  0.00    -0.082 Cl
ATOM     21 CL   UNL     1     -36.305  25.993   5.565  0.00  0.00    -0.082 Cl
ATOM     22  C   UNL     1     -36.726  23.826   3.955  0.00  0.00    +0.097 C 
ATOM     23  C   UNL     1     -36.462  22.519   3.545  0.00  0.00    +0.065 C 
ATOM     24  C   UNL     1     -36.017  24.378   5.022  0.00  0.00    +0.065 C 
ATOM     25  C   UNL     1     -35.489  21.765   4.202  0.00  0.00    +0.012 C 
ATOM     26  C   UNL     1     -35.045  23.624   5.678  0.00  0.00    +0.012 C 
ATOM     27  C   UNL     1     -34.781  22.318   5.268  0.00  0.00    +0.002 C 
ENDBRANCH  19  22
ENDBRANCH  17  19
ENDBRANCH  16  17
ENDBRANCH  15  16
ENDBRANCH   1  15
BRANCH   1  28
ATOM     28  C   UNL     1     -34.348  27.252   3.163  0.00  0.00    +0.039 C 
BRANCH  28  29
ATOM     29  C   UNL     1     -32.922  27.116   3.705  0.00  0.00    +0.112 C 
BRANCH  29  31
ATOM     30  O   UNL     1     -32.891  26.719   6.108  0.00  0.00    -0.250 OA
ATOM     31  C   UNL     1     -32.788  27.491   5.165  0.00  0.00    +0.314 C 
BRANCH  31  32
ATOM     32  O   UNL     1     -32.573  28.823   5.319  0.00  0.00    -0.480 OA
ATOM     33  H   UNL     1     -33.010  29.292   6.003  0.00  0.00    +0.295 HD
ENDBRANCH  31  32
ENDBRANCH  29  31
ENDBRANCH  28  29
ENDBRANCH   1  28
TORSDOF 13
ENDMDL
MODEL 7
REMARK VINA RESULT:      -6.3      4.318      8.127
REMARK  Name = 53437635
REMARK  13 active torsions:
REMARK  status: ('A' for Active; 'I' for Inactive)
REMARK    1  A    between atoms: C_1  and  N_3
REMARK    2  A    between atoms: C_1  and  C_15
REMARK    3  A    between atoms: C_1  and  C_28
REMARK    4  A    between atoms: C_4  and  O_6
REMARK    5  A    between atoms: O_6  and  C_7
REMARK    6  A    between atoms: C_7  and  C_8
REMARK    7  A    between atoms: C_15  and  C_16
REMARK    8  A    between atoms: C_16  and  O_17
REMARK    9  A    between atoms: O_17  and  C_19
REMARK   10  A    between atoms: C_19  and  C_22
REMARK   11  A    between atoms: C_28  and  C_29
REMARK   12  A    between atoms: C_29  and  C_31
REMARK   13  A    between atoms: C_31  and  O_32
REMARK                            x       y       z     vdW  Elec       q    Type
REMARK                         _______ _______ _______ _____ _____    ______ ____
ROOT
ATOM      1  C   UNL     1     -34.403  28.210   2.990  0.00  0.00    +0.137 C 
ENDROOT
BRANCH   1   3
ATOM      2  O   UNL     1     -33.132  26.001   4.385  0.00  0.00    -0.226 OA
ATOM      3  N   UNL     1     -34.900  27.482   4.126  0.00  0.00    -0.265 N 
ATOM      4  C   UNL     1     -34.225  26.438   4.730  0.00  0.00    +0.402 C 
ATOM      5  H   UNL     1     -35.775  27.744   4.495  0.00  0.00    +0.153 HD
BRANCH   4   6
ATOM      6  O   UNL     1     -34.956  25.957   5.779  0.00  0.00    -0.430 OA
BRANCH   6   7
ATOM      7  C   UNL     1     -36.180  25.297   5.435  0.00  0.00    +0.237 C 
BRANCH   7   8
ATOM      8  C   UNL     1     -35.879  23.881   5.037  0.00  0.00    +0.021 C 
ATOM      9  C   UNL     1     -35.375  22.984   5.978  0.00  0.00    -0.001 C 
ATOM     10  C   UNL     1     -36.104  23.464   3.725  0.00  0.00    -0.001 C 
ATOM     11  C   UNL     1     -35.095  21.668   5.607  0.00  0.00    -0.000 C 
ATOM     12  C   UNL     1     -35.824  22.148   3.354  0.00  0.00    -0.000 C 
ATOM     13  C   UNL     1     -35.320  21.251   4.296  0.00  0.00    -0.000 C 
ENDBRANCH   7   8
ENDBRANCH   6   7
ENDBRANCH   4   6
ENDBRANCH   1   3
BRANCH   1  15
ATOM     14  O   UNL     1     -36.038  29.429   1.695  0.00  0.00    -0.290 OA
ATOM     15  C   UNL     1     -35.564  28.337   2.010  0.00  0.00    +0.212 C 
BRANCH  15  16
ATOM     16  C   UNL     1     -36.077  27.042   1.411  0.00  0.00    +0.274 C 
BRANCH  16  17
ATOM     17  O   UNL     1     -37.186  26.559   2.140  0.00  0.00    -0.437 OA
BRANCH  17  19
ATOM     18  O   UNL     1     -39.052  27.190   0.948  0.00  0.00    -0.245 OA
ATOM     19  C   UNL     1     -38.329  26.330   1.426  0.00  0.00    +0.343 C 
BRANCH  19  22
ATOM     20 CL   UNL     1     -39.936  25.035   3.674  0.00  0.00    -0.082 Cl
ATOM     21 CL   UNL     1     -37.217  24.953  -1.060  0.00  0.00    -0.082 Cl
ATOM     22  C   UNL     1     -38.596  24.876   1.298  0.00  0.00    +0.097 C 
ATOM     23  C   UNL     1     -39.323  24.211   2.284  0.00  0.00    +0.065 C 
ATOM     24  C   UNL     1     -38.120  24.174   0.190  0.00  0.00    +0.065 C 
ATOM     25  C   UNL     1     -39.574  22.843   2.164  0.00  0.00    +0.012 C 
ATOM     26  C   UNL     1     -38.371  22.807   0.070  0.00  0.00    +0.012 C 
ATOM     27  C   UNL     1     -39.098  22.142   1.057  0.00  0.00    +0.002 C 
ENDBRANCH  19  22
ENDBRANCH  17  19
ENDBRANCH  16  17
ENDBRANCH  15  16
ENDBRANCH   1  15
BRANCH   1  28
ATOM     28  C   UNL     1     -33.865  29.598   3.349  0.00  0.00    +0.039 C 
BRANCH  28  29
ATOM     29  C   UNL     1     -32.350  29.624   3.573  0.00  0.00    +0.112 C 
BRANCH  29  31
ATOM     30  O   UNL     1     -32.226  29.828   5.997  0.00  0.00    -0.250 OA
ATOM     31  C   UNL     1     -31.936  29.226   4.973  0.00  0.00    +0.314 C 
BRANCH  31  32
ATOM     32  O   UNL     1     -31.153  28.116   4.965  0.00  0.00    -0.480 OA
ATOM     33  H   UNL     1     -30.735  27.842   4.171  0.00  0.00    +0.295 HD
ENDBRANCH  31  32
ENDBRANCH  29  31
ENDBRANCH  28  29
ENDBRANCH   1  28
TORSDOF 13
ENDMDL
MODEL 8
REMARK VINA RESULT:      -6.2      3.710      8.123
REMARK  Name = 53437635
REMARK  13 active torsions:
REMARK  status: ('A' for Active; 'I' for Inactive)
REMARK    1  A    between atoms: C_1  and  N_3
REMARK    2  A    between atoms: C_1  and  C_15
REMARK    3  A    between atoms: C_1  and  C_28
REMARK    4  A    between atoms: C_4  and  O_6
REMARK    5  A    between atoms: O_6  and  C_7
REMARK    6  A    between atoms: C_7  and  C_8
REMARK    7  A    between atoms: C_15  and  C_16
REMARK    8  A    between atoms: C_16  and  O_17
REMARK    9  A    between atoms: O_17  and  C_19
REMARK   10  A    between atoms: C_19  and  C_22
REMARK   11  A    between atoms: C_28  and  C_29
REMARK   12  A    between atoms: C_29  and  C_31
REMARK   13  A    between atoms: C_31  and  O_32
REMARK                            x       y       z     vdW  Elec       q    Type
REMARK                         _______ _______ _______ _____ _____    ______ ____
ROOT
ATOM      1  C   UNL     1     -37.238  24.775   4.136  0.00  0.00    +0.137 C 
ENDROOT
BRANCH   1   3
ATOM      2  O   UNL     1     -36.129  22.590   5.696  0.00  0.00    -0.226 OA
ATOM      3  N   UNL     1     -36.510  23.631   3.657  0.00  0.00    -0.265 N 
ATOM      4  C   UNL     1     -36.015  22.633   4.476  0.00  0.00    +0.402 C 
ATOM      5  H   UNL     1     -36.354  23.555   2.688  0.00  0.00    +0.153 HD
BRANCH   4   6
ATOM      6  O   UNL     1     -35.373  21.690   3.723  0.00  0.00    -0.430 OA
BRANCH   6   7
ATOM      7  C   UNL     1     -35.747  21.635   2.342  0.00  0.00    +0.237 C 
BRANCH   7   8
ATOM      8  C   UNL     1     -34.624  21.024   1.554  0.00  0.00    +0.021 C 
ATOM      9  C   UNL     1     -33.969  21.774   0.578  0.00  0.00    -0.001 C 
ATOM     10  C   UNL     1     -34.236  19.707   1.801  0.00  0.00    -0.001 C 
ATOM     11  C   UNL     1     -32.925  21.206  -0.154  0.00  0.00    -0.000 C 
ATOM     12  C   UNL     1     -33.193  19.139   1.069  0.00  0.00    -0.000 C 
ATOM     13  C   UNL     1     -32.537  19.890   0.092  0.00  0.00    -0.000 C 
ENDBRANCH   7   8
ENDBRANCH   6   7
ENDBRANCH   4   6
ENDBRANCH   1   3
BRANCH   1  15
ATOM     14  O   UNL     1     -36.043  26.078   5.781  0.00  0.00    -0.290 OA
ATOM     15  C   UNL     1     -36.201  25.794   4.593  0.00  0.00    +0.212 C 
BRANCH  15  16
ATOM     16  C   UNL     1     -35.343  26.408   3.504  0.00  0.00    +0.274 C 
BRANCH  16  17
ATOM     17  O   UNL     1     -34.519  27.426   4.032  0.00  0.00    -0.437 OA
BRANCH  17  19
ATOM     18  O   UNL     1     -32.633  26.188   3.569  0.00  0.00    -0.245 OA
ATOM     19  C   UNL     1     -33.173  27.185   4.020  0.00  0.00    +0.343 C 
BRANCH  19  22
ATOM     20 CL   UNL     1     -32.791  27.066   7.046  0.00  0.00    -0.082 Cl
ATOM     21 CL   UNL     1     -32.176  29.365   2.132  0.00  0.00    -0.082 Cl
ATOM     22  C   UNL     1     -32.424  28.308   4.639  0.00  0.00    +0.097 C 
ATOM     23  C   UNL     1     -32.208  28.326   6.017  0.00  0.00    +0.065 C 
ATOM     24  C   UNL     1     -31.937  29.344   3.843  0.00  0.00    +0.065 C 
ATOM     25  C   UNL     1     -31.506  29.382   6.599  0.00  0.00    +0.012 C 
ATOM     26  C   UNL     1     -31.234  30.399   4.425  0.00  0.00    +0.012 C 
ATOM     27  C   UNL     1     -31.018  30.418   5.802  0.00  0.00    +0.002 C 
ENDBRANCH  19  22
ENDBRANCH  17  19
ENDBRANCH  16  17
ENDBRANCH  15  16
ENDBRANCH   1  15
BRANCH   1  28
ATOM     28  C   UNL     1     -38.152  25.396   3.075  0.00  0.00    +0.039 C 
BRANCH  28  29
ATOM     29  C   UNL     1     -39.621  24.988   3.223  0.00  0.00    +0.112 C 
BRANCH  29  31
ATOM     30  O   UNL     1     -41.076  26.286   1.763  0.00  0.00    -0.250 OA
ATOM     31  C   UNL     1     -40.597  26.090   2.871  0.00  0.00    +0.314 C 
BRANCH  31  32
ATOM     32  O   UNL     1     -40.860  26.884   3.941  0.00  0.00    -0.480 OA
ATOM     33  H   UNL     1     -41.703  26.857   4.349  0.00  0.00    +0.295 HD
ENDBRANCH  31  32
ENDBRANCH  29  31
ENDBRANCH  28  29
ENDBRANCH   1  28
TORSDOF 13
ENDMDL
MODEL 9
REMARK VINA RESULT:      -6.2      4.519      8.631
REMARK  Name = 53437635
REMARK  13 active torsions:
REMARK  status: ('A' for Active; 'I' for Inactive)
REMARK    1  A    between atoms: C_1  and  N_3
REMARK    2  A    between atoms: C_1  and  C_15
REMARK    3  A    between atoms: C_1  and  C_28
REMARK    4  A    between atoms: C_4  and  O_6
REMARK    5  A    between atoms: O_6  and  C_7
REMARK    6  A    between atoms: C_7  and  C_8
REMARK    7  A    between atoms: C_15  and  C_16
REMARK    8  A    between atoms: C_16  and  O_17
REMARK    9  A    between atoms: O_17  and  C_19
REMARK   10  A    between atoms: C_19  and  C_22
REMARK   11  A    between atoms: C_28  and  C_29
REMARK   12  A    between atoms: C_29  and  C_31
REMARK   13  A    between atoms: C_31  and  O_32
REMARK                            x       y       z     vdW  Elec       q    Type
REMARK                         _______ _______ _______ _____ _____    ______ ____
ROOT
ATOM      1  C   UNL     1     -35.286  24.536   5.204  0.00  0.00    +0.137 C 
ENDROOT
BRANCH   1   3
ATOM      2  O   UNL     1     -35.904  21.926   6.321  0.00  0.00    -0.226 OA
ATOM      3  N   UNL     1     -35.129  23.250   4.579  0.00  0.00    -0.265 N 
ATOM      4  C   UNL     1     -35.450  22.051   5.188  0.00  0.00    +0.402 C 
ATOM      5  H   UNL     1     -34.770  23.222   3.662  0.00  0.00    +0.153 HD
BRANCH   4   6
ATOM      6  O   UNL     1     -35.187  21.013   4.339  0.00  0.00    -0.430 OA
BRANCH   6   7
ATOM      7  C   UNL     1     -35.832  21.074   3.062  0.00  0.00    +0.237 C 
BRANCH   7   8
ATOM      8  C   UNL     1     -34.804  20.885   1.984  0.00  0.00    +0.021 C 
ATOM      9  C   UNL     1     -34.496  21.937   1.122  0.00  0.00    -0.001 C 
ATOM     10  C   UNL     1     -34.156  19.658   1.847  0.00  0.00    -0.001 C 
ATOM     11  C   UNL     1     -33.540  21.761   0.121  0.00  0.00    -0.000 C 
ATOM     12  C   UNL     1     -33.200  19.482   0.846  0.00  0.00    -0.000 C 
ATOM     13  C   UNL     1     -32.893  20.534  -0.016  0.00  0.00    -0.000 C 
ENDBRANCH   7   8
ENDBRANCH   6   7
ENDBRANCH   4   6
ENDBRANCH   1   3
BRANCH   1  15
ATOM     14  O   UNL     1     -33.324  25.052   3.892  0.00  0.00    -0.290 OA
ATOM     15  C   UNL     1     -34.051  25.352   4.840  0.00  0.00    +0.212 C 
BRANCH  15  16
ATOM     16  C   UNL     1     -33.790  26.582   5.688  0.00  0.00    +0.274 C 
BRANCH  16  17
ATOM     17  O   UNL     1     -32.440  26.984   5.583  0.00  0.00    -0.437 OA
BRANCH  17  19
ATOM     18  O   UNL     1     -33.039  28.851   4.377  0.00  0.00    -0.245 OA
ATOM     19  C   UNL     1     -32.211  28.191   4.985  0.00  0.00    +0.343 C 
BRANCH  19  22
ATOM     20 CL   UNL     1     -31.561  29.708   7.552  0.00  0.00    -0.082 Cl
ATOM     21 CL   UNL     1     -30.268  27.455   2.750  0.00  0.00    -0.082 Cl
ATOM     22  C   UNL     1     -30.801  28.618   5.164  0.00  0.00    +0.097 C 
ATOM     23  C   UNL     1     -30.424  29.317   6.311  0.00  0.00    +0.065 C 
ATOM     24  C   UNL     1     -29.852  28.321   4.186  0.00  0.00    +0.065 C 
ATOM     25  C   UNL     1     -29.098  29.719   6.479  0.00  0.00    +0.012 C 
ATOM     26  C   UNL     1     -28.527  28.722   4.354  0.00  0.00    +0.012 C 
ATOM     27  C   UNL     1     -28.150  29.421   5.501  0.00  0.00    +0.002 C 
ENDBRANCH  19  22
ENDBRANCH  17  19
ENDBRANCH  16  17
ENDBRANCH  15  16
ENDBRANCH   1  15
BRANCH   1  28
ATOM     28  C   UNL     1     -36.552  25.273   4.758  0.00  0.00    +0.039 C 
BRANCH  28  29
ATOM     29  C   UNL     1     -37.286  24.581   3.606  0.00  0.00    +0.112 C 
BRANCH  29  31
ATOM     30  O   UNL     1     -39.686  24.261   3.336  0.00  0.00    -0.250 OA
ATOM     31  C   UNL     1     -38.729  25.013   3.458  0.00  0.00    +0.314 C 
BRANCH  31  32
ATOM     32  O   UNL     1     -38.844  26.366   3.436  0.00  0.00    -0.480 OA
ATOM     33  H   UNL     1     -38.083  26.904   3.538  0.00  0.00    +0.295 HD
ENDBRANCH  31  32
ENDBRANCH  29  31
ENDBRANCH  28  29
ENDBRANCH   1  28
TORSDOF 13
ENDMDL
