MODEL 1
REMARK VINA RESULT:      -5.6      0.000      0.000
REMARK  Name = 195199
REMARK  11 active torsions:
REMARK  status: ('A' for Active; 'I' for Inactive)
REMARK    1  A    between atoms: C_1  and  N_3
REMARK    2  A    between atoms: C_1  and  C_16
REMARK    3  A    between atoms: C_1  and  C_22
REMARK    4  A    between atoms: C_4  and  C_6
REMARK    5  A    between atoms: C_6  and  N_8
REMARK    6  A    between atoms: C_6  and  C_11
REMARK    7  A    between atoms: C_11  and  C_12
REMARK    8  A    between atoms: C_12  and  S_13
REMARK    9  A    between atoms: C_16  and  O_17
REMARK   10  A    between atoms: O_17  and  C_18
REMARK   11  A    between atoms: C_22  and  C_23
REMARK                            x       y       z     vdW  Elec       q    Type
REMARK                         _______ _______ _______ _____ _____    ______ ____
ROOT
ATOM      1  C   UNL     1     -35.966  22.480   3.459  0.00  0.00    +0.176 C 
ENDROOT
BRANCH   1   3
ATOM      2  O   UNL     1     -37.077  24.194   1.438  0.00  0.00    -0.273 OA
ATOM      3  N   UNL     1     -37.367  22.714   3.200  0.00  0.00    -0.295 N 
ATOM      4  C   UNL     1     -37.810  23.563   2.196  0.00  0.00    +0.241 C 
ATOM      5  H   UNL     1     -38.035  22.252   3.758  0.00  0.00    +0.150 HD
BRANCH   4   6
ATOM      6  C   UNL     1     -39.332  23.607   2.108  0.00  0.00    +0.150 C 
BRANCH   6   8
ATOM      7  O   UNL     1     -39.506  21.661  -0.080  0.00  0.00    -0.265 OA
ATOM      8  N   UNL     1     -39.837  22.259   2.156  0.00  0.00    -0.291 N 
ATOM      9  C   UNL     1     -39.875  21.420   1.061  0.00  0.00    +0.300 C 
ATOM     10  H   UNL     1     -40.174  21.918   3.016  0.00  0.00    +0.150 HD
ENDBRANCH   6   8
BRANCH   6  11
ATOM     11  C   UNL     1     -39.965  24.501   3.183  0.00  0.00    +0.041 C 
BRANCH  11  12
ATOM     12  C   UNL     1     -39.983  25.986   2.814  0.00  0.00    +0.060 C 
BRANCH  12  13
ATOM     13  S   UNL     1     -41.642  26.486   2.261  0.00  0.00    -0.139 S 
ATOM     14  C   UNL     1     -42.222  27.218   3.808  0.00  0.00    +0.069 C 
ENDBRANCH  12  13
ENDBRANCH  11  12
ENDBRANCH   6  11
ENDBRANCH   4   6
ENDBRANCH   1   3
BRANCH   1  16
ATOM     15  O   UNL     1     -36.127  22.583   5.868  0.00  0.00    -0.248 OA
ATOM     16  C   UNL     1     -35.553  22.950   4.848  0.00  0.00    +0.335 C 
BRANCH  16  17
ATOM     17  O   UNL     1     -34.505  23.819   4.806  0.00  0.00    -0.455 OA
BRANCH  17  18
ATOM     18  C   UNL     1     -34.852  25.208   4.770  0.00  0.00    +0.136 C 
ATOM     19  C   UNL     1     -34.554  25.747   3.371  0.00  0.00    +0.044 C 
ATOM     20  C   UNL     1     -33.996  25.922   5.814  0.00  0.00    +0.044 C 
ATOM     21  C   UNL     1     -36.336  25.348   5.103  0.00  0.00    +0.044 C 
ENDBRANCH  17  18
ENDBRANCH  16  17
ENDBRANCH   1  16
BRANCH   1  22
ATOM     22  C   UNL     1     -35.574  21.016   3.208  0.00  0.00    +0.057 C 
BRANCH  22  23
ATOM     23  C   UNL     1     -34.678  20.799   2.009  0.00  0.00    -0.020 C 
ATOM     24  C   UNL     1     -34.067  19.561   1.811  0.00  0.00    -0.004 C 
ATOM     25  C   UNL     1     -34.465  21.835   1.101  0.00  0.00    -0.004 C 
ATOM     26  C   UNL     1     -33.241  19.360   0.706  0.00  0.00    -0.000 C 
ATOM     27  C   UNL     1     -33.639  21.634  -0.005  0.00  0.00    -0.000 C 
ATOM     28  C   UNL     1     -33.027  20.397  -0.202  0.00  0.00    -0.000 C 
ENDBRANCH  22  23
ENDBRANCH   1  22
TORSDOF 11
ENDMDL
MODEL 2
REMARK VINA RESULT:      -5.6      1.915      2.970
REMARK  Name = 195199
REMARK  11 active torsions:
REMARK  status: ('A' for Active; 'I' for Inactive)
REMARK    1  A    between atoms: C_1  and  N_3
REMARK    2  A    between atoms: C_1  and  C_16
REMARK    3  A    between atoms: C_1  and  C_22
REMARK    4  A    between atoms: C_4  and  C_6
REMARK    5  A    between atoms: C_6  and  N_8
REMARK    6  A    between atoms: C_6  and  C_11
REMARK    7  A    between atoms: C_11  and  C_12
REMARK    8  A    between atoms: C_12  and  S_13
REMARK    9  A    between atoms: C_16  and  O_17
REMARK   10  A    between atoms: O_17  and  C_18
REMARK   11  A    between atoms: C_22  and  C_23
REMARK                            x       y       z     vdW  Elec       q    Type
REMARK                         _______ _______ _______ _____ _____    ______ ____
ROOT
ATOM      1  C   UNL     1     -36.266  21.969   2.964  0.00  0.00    +0.176 C 
ENDROOT
BRANCH   1   3
ATOM      2  O   UNL     1     -37.506  22.986   0.579  0.00  0.00    -0.273 OA
ATOM      3  N   UNL     1     -37.683  22.103   2.716  0.00  0.00    -0.295 N 
ATOM      4  C   UNL     1     -38.190  22.607   1.527  0.00  0.00    +0.241 C 
ATOM      5  H   UNL     1     -38.314  21.824   3.419  0.00  0.00    +0.150 HD
BRANCH   4   6
ATOM      6  C   UNL     1     -39.715  22.608   1.505  0.00  0.00    +0.150 C 
BRANCH   6   8
ATOM      7  O   UNL     1     -39.531  24.550   3.695  0.00  0.00    -0.265 OA
ATOM      8  N   UNL     1     -40.176  23.972   1.523  0.00  0.00    -0.291 N 
ATOM      9  C   UNL     1     -40.040  24.808   2.613  0.00  0.00    +0.300 C 
ATOM     10  H   UNL     1     -40.613  24.328   0.716  0.00  0.00    +0.150 HD
ENDBRANCH   6   8
BRANCH   6  11
ATOM     11  C   UNL     1     -40.294  21.817   0.324  0.00  0.00    +0.041 C 
BRANCH  11  12
ATOM     12  C   UNL     1     -40.972  22.695  -0.730  0.00  0.00    +0.060 C 
BRANCH  12  13
ATOM     13  S   UNL     1     -39.926  22.838  -2.211  0.00  0.00    -0.139 S 
ATOM     14  C   UNL     1     -39.417  24.559  -2.004  0.00  0.00    +0.069 C 
ENDBRANCH  12  13
ENDBRANCH  11  12
ENDBRANCH   6  11
ENDBRANCH   4   6
ENDBRANCH   1   3
BRANCH   1  16
ATOM     15  O   UNL     1     -35.148  21.749   5.094  0.00  0.00    -0.248 OA
ATOM     16  C   UNL     1     -35.887  22.410   4.372  0.00  0.00    +0.335 C 
BRANCH  16  17
ATOM     17  O   UNL     1     -36.473  23.590   4.717  0.00  0.00    -0.455 OA
BRANCH  17  18
ATOM     18  C   UNL     1     -35.686  24.764   4.490  0.00  0.00    +0.136 C 
ATOM     19  C   UNL     1     -35.994  25.776   5.592  0.00  0.00    +0.044 C 
ATOM     20  C   UNL     1     -36.077  25.322   3.123  0.00  0.00    +0.044 C 
ATOM     21  C   UNL     1     -34.210  24.372   4.508  0.00  0.00    +0.044 C 
ENDBRANCH  17  18
ENDBRANCH  16  17
ENDBRANCH   1  16
BRANCH   1  22
ATOM     22  C   UNL     1     -35.761  20.554   2.649  0.00  0.00    +0.057 C 
BRANCH  22  23
ATOM     23  C   UNL     1     -34.581  20.501   1.703  0.00  0.00    -0.020 C 
ATOM     24  C   UNL     1     -34.273  21.606   0.910  0.00  0.00    -0.004 C 
ATOM     25  C   UNL     1     -33.800  19.348   1.627  0.00  0.00    -0.004 C 
ATOM     26  C   UNL     1     -33.185  21.557   0.039  0.00  0.00    -0.000 C 
ATOM     27  C   UNL     1     -32.712  19.299   0.755  0.00  0.00    -0.000 C 
ATOM     28  C   UNL     1     -32.405  20.404  -0.039  0.00  0.00    -0.000 C 
ENDBRANCH  22  23
ENDBRANCH   1  22
TORSDOF 11
ENDMDL
MODEL 3
REMARK VINA RESULT:      -5.6      0.920      1.455
REMARK  Name = 195199
REMARK  11 active torsions:
REMARK  status: ('A' for Active; 'I' for Inactive)
REMARK    1  A    between atoms: C_1  and  N_3
REMARK    2  A    between atoms: C_1  and  C_16
REMARK    3  A    between atoms: C_1  and  C_22
REMARK    4  A    between atoms: C_4  and  C_6
REMARK    5  A    between atoms: C_6  and  N_8
REMARK    6  A    between atoms: C_6  and  C_11
REMARK    7  A    between atoms: C_11  and  C_12
REMARK    8  A    between atoms: C_12  and  S_13
REMARK    9  A    between atoms: C_16  and  O_17
REMARK   10  A    between atoms: O_17  and  C_18
REMARK   11  A    between atoms: C_22  and  C_23
REMARK                            x       y       z     vdW  Elec       q    Type
REMARK                         _______ _______ _______ _____ _____    ______ ____
ROOT
ATOM      1  C   UNL     1     -36.125  22.212   3.238  0.00  0.00    +0.176 C 
ENDROOT
BRANCH   1   3
ATOM      2  O   UNL     1     -37.173  23.924   1.181  0.00  0.00    -0.273 OA
ATOM      3  N   UNL     1     -37.514  22.533   3.005  0.00  0.00    -0.295 N 
ATOM      4  C   UNL     1     -37.926  23.374   1.981  0.00  0.00    +0.241 C 
ATOM      5  H   UNL     1     -38.196  22.139   3.597  0.00  0.00    +0.150 HD
BRANCH   4   6
ATOM      6  C   UNL     1     -39.443  23.519   1.929  0.00  0.00    +0.150 C 
BRANCH   6   8
ATOM      7  O   UNL     1     -39.719  21.636  -0.302  0.00  0.00    -0.265 OA
ATOM      8  N   UNL     1     -40.034  22.206   1.944  0.00  0.00    -0.291 N 
ATOM      9  C   UNL     1     -40.115  21.394   0.830  0.00  0.00    +0.300 C 
ATOM     10  H   UNL     1     -40.401  21.868   2.792  0.00  0.00    +0.150 HD
ENDBRANCH   6   8
BRANCH   6  11
ATOM     11  C   UNL     1     -39.993  24.413   3.049  0.00  0.00    +0.041 C 
BRANCH  11  12
ATOM     12  C   UNL     1     -40.442  25.794   2.567  0.00  0.00    +0.060 C 
BRANCH  12  13
ATOM     13  S   UNL     1     -40.476  25.856   0.750  0.00  0.00    -0.139 S 
ATOM     14  C   UNL     1     -39.048  26.935   0.500  0.00  0.00    +0.069 C 
ENDBRANCH  12  13
ENDBRANCH  11  12
ENDBRANCH   6  11
ENDBRANCH   4   6
ENDBRANCH   1   3
BRANCH   1  16
ATOM     15  O   UNL     1     -35.004  21.751   5.328  0.00  0.00    -0.248 OA
ATOM     16  C   UNL     1     -35.698  22.517   4.667  0.00  0.00    +0.335 C 
BRANCH  16  17
ATOM     17  O   UNL     1     -36.188  23.709   5.107  0.00  0.00    -0.455 OA
BRANCH  17  18
ATOM     18  C   UNL     1     -35.448  24.870   4.712  0.00  0.00    +0.136 C 
ATOM     19  C   UNL     1     -34.742  25.438   5.942  0.00  0.00    +0.044 C 
ATOM     20  C   UNL     1     -36.444  25.880   4.148  0.00  0.00    +0.044 C 
ATOM     21  C   UNL     1     -34.435  24.460   3.644  0.00  0.00    +0.044 C 
ENDBRANCH  17  18
ENDBRANCH  16  17
ENDBRANCH   1  16
BRANCH   1  22
ATOM     22  C   UNL     1     -35.796  20.767   2.836  0.00  0.00    +0.057 C 
BRANCH  22  23
ATOM     23  C   UNL     1     -34.671  20.631   1.834  0.00  0.00    -0.020 C 
ATOM     24  C   UNL     1     -33.951  19.439   1.753  0.00  0.00    -0.004 C 
ATOM     25  C   UNL     1     -34.356  21.695   0.990  0.00  0.00    -0.004 C 
ATOM     26  C   UNL     1     -32.914  19.313   0.829  0.00  0.00    -0.000 C 
ATOM     27  C   UNL     1     -33.318  21.569   0.066  0.00  0.00    -0.000 C 
ATOM     28  C   UNL     1     -32.597  20.378  -0.014  0.00  0.00    -0.000 C 
ENDBRANCH  22  23
ENDBRANCH   1  22
TORSDOF 11
ENDMDL
MODEL 4
REMARK VINA RESULT:      -5.6      1.792      3.070
REMARK  Name = 195199
REMARK  11 active torsions:
REMARK  status: ('A' for Active; 'I' for Inactive)
REMARK    1  A    between atoms: C_1  and  N_3
REMARK    2  A    between atoms: C_1  and  C_16
REMARK    3  A    between atoms: C_1  and  C_22
REMARK    4  A    between atoms: C_4  and  C_6
REMARK    5  A    between atoms: C_6  and  N_8
REMARK    6  A    between atoms: C_6  and  C_11
REMARK    7  A    between atoms: C_11  and  C_12
REMARK    8  A    between atoms: C_12  and  S_13
REMARK    9  A    between atoms: C_16  and  O_17
REMARK   10  A    between atoms: O_17  and  C_18
REMARK   11  A    between atoms: C_22  and  C_23
REMARK                            x       y       z     vdW  Elec       q    Type
REMARK                         _______ _______ _______ _____ _____    ______ ____
ROOT
ATOM      1  C   UNL     1     -35.971  22.551   3.562  0.00  0.00    +0.176 C 
ENDROOT
BRANCH   1   3
ATOM      2  O   UNL     1     -37.152  24.369   1.676  0.00  0.00    -0.273 OA
ATOM      3  N   UNL     1     -37.381  22.767   3.338  0.00  0.00    -0.295 N 
ATOM      4  C   UNL     1     -37.859  23.671   2.400  0.00  0.00    +0.241 C 
ATOM      5  H   UNL     1     -38.029  22.252   3.872  0.00  0.00    +0.150 HD
BRANCH   4   6
ATOM      6  C   UNL     1     -39.382  23.683   2.334  0.00  0.00    +0.150 C 
BRANCH   6   8
ATOM      7  O   UNL     1     -40.032  26.456   3.032  0.00  0.00    -0.265 OA
ATOM      8  N   UNL     1     -39.799  24.745   1.456  0.00  0.00    -0.291 N 
ATOM      9  C   UNL     1     -40.083  26.024   1.889  0.00  0.00    +0.300 C 
ATOM     10  H   UNL     1     -39.888  24.548   0.495  0.00  0.00    +0.150 HD
ENDBRANCH   6   8
BRANCH   6  11
ATOM     11  C   UNL     1     -39.970  22.326   1.922  0.00  0.00    +0.041 C 
BRANCH  11  12
ATOM     12  C   UNL     1     -39.740  21.978   0.450  0.00  0.00    +0.060 C 
BRANCH  12  13
ATOM     13  S   UNL     1     -38.428  20.730   0.286  0.00  0.00    -0.139 S 
ATOM     14  C   UNL     1     -39.201  19.705  -0.985  0.00  0.00    +0.069 C 
ENDBRANCH  12  13
ENDBRANCH  11  12
ENDBRANCH   6  11
ENDBRANCH   4   6
ENDBRANCH   1   3
BRANCH   1  16
ATOM     15  O   UNL     1     -36.102  22.647   5.973  0.00  0.00    -0.248 OA
ATOM     16  C   UNL     1     -35.533  23.008   4.948  0.00  0.00    +0.335 C 
BRANCH  16  17
ATOM     17  O   UNL     1     -34.472  23.859   4.897  0.00  0.00    -0.455 OA
BRANCH  17  18
ATOM     18  C   UNL     1     -34.795  25.254   4.867  0.00  0.00    +0.136 C 
ATOM     19  C   UNL     1     -36.274  25.418   5.212  0.00  0.00    +0.044 C 
ATOM     20  C   UNL     1     -34.513  25.761   3.454  0.00  0.00    +0.044 C 
ATOM     21  C   UNL     1     -33.914  25.979   5.884  0.00  0.00    +0.044 C 
ENDBRANCH  17  18
ENDBRANCH  16  17
ENDBRANCH   1  16
BRANCH   1  22
ATOM     22  C   UNL     1     -35.563  21.097   3.282  0.00  0.00    +0.057 C 
BRANCH  22  23
ATOM     23  C   UNL     1     -34.712  20.907   2.045  0.00  0.00    -0.020 C 
ATOM     24  C   UNL     1     -34.119  19.671   1.791  0.00  0.00    -0.004 C 
ATOM     25  C   UNL     1     -34.524  21.967   1.159  0.00  0.00    -0.004 C 
ATOM     26  C   UNL     1     -33.335  19.495   0.651  0.00  0.00    -0.000 C 
ATOM     27  C   UNL     1     -33.740  21.791   0.018  0.00  0.00    -0.000 C 
ATOM     28  C   UNL     1     -33.145  20.555  -0.235  0.00  0.00    -0.000 C 
ENDBRANCH  22  23
ENDBRANCH   1  22
TORSDOF 11
ENDMDL
MODEL 5
REMARK VINA RESULT:      -5.6      2.824      5.753
REMARK  Name = 195199
REMARK  11 active torsions:
REMARK  status: ('A' for Active; 'I' for Inactive)
REMARK    1  A    between atoms: C_1  and  N_3
REMARK    2  A    between atoms: C_1  and  C_16
REMARK    3  A    between atoms: C_1  and  C_22
REMARK    4  A    between atoms: C_4  and  C_6
REMARK    5  A    between atoms: C_6  and  N_8
REMARK    6  A    between atoms: C_6  and  C_11
REMARK    7  A    between atoms: C_11  and  C_12
REMARK    8  A    between atoms: C_12  and  S_13
REMARK    9  A    between atoms: C_16  and  O_17
REMARK   10  A    between atoms: O_17  and  C_18
REMARK   11  A    between atoms: C_22  and  C_23
REMARK                            x       y       z     vdW  Elec       q    Type
REMARK                         _______ _______ _______ _____ _____    ______ ____
ROOT
ATOM      1  C   UNL     1     -34.908  20.994   0.486  0.00  0.00    +0.176 C 
ENDROOT
BRANCH   1   3
ATOM      2  O   UNL     1     -35.459  20.276   3.214  0.00  0.00    -0.273 OA
ATOM      3  N   UNL     1     -35.313  21.884   1.549  0.00  0.00    -0.295 N 
ATOM      4  C   UNL     1     -35.558  21.443   2.842  0.00  0.00    +0.241 C 
ATOM      5  H   UNL     1     -35.420  22.842   1.348  0.00  0.00    +0.150 HD
BRANCH   4   6
ATOM      6  C   UNL     1     -35.935  22.585   3.779  0.00  0.00    +0.150 C 
BRANCH   6   8
ATOM      7  O   UNL     1     -37.305  24.431   1.959  0.00  0.00    -0.265 OA
ATOM      8  N   UNL     1     -37.349  22.830   3.663  0.00  0.00    -0.291 N 
ATOM      9  C   UNL     1     -37.895  23.727   2.767  0.00  0.00    +0.300 C 
ATOM     10  H   UNL     1     -37.960  22.333   4.254  0.00  0.00    +0.150 HD
ENDBRANCH   6   8
BRANCH   6  11
ATOM     11  C   UNL     1     -35.510  22.327   5.232  0.00  0.00    +0.041 C 
BRANCH  11  12
ATOM     12  C   UNL     1     -35.162  23.600   6.005  0.00  0.00    +0.060 C 
BRANCH  12  13
ATOM     13  S   UNL     1     -34.519  24.875   4.878  0.00  0.00    -0.139 S 
ATOM     14  C   UNL     1     -35.851  26.081   5.063  0.00  0.00    +0.069 C 
ENDBRANCH  12  13
ENDBRANCH  11  12
ENDBRANCH   6  11
ENDBRANCH   4   6
ENDBRANCH   1   3
BRANCH   1  16
ATOM     15  O   UNL     1     -36.829  21.799  -0.738  0.00  0.00    -0.248 OA
ATOM     16  C   UNL     1     -35.857  21.052  -0.704  0.00  0.00    +0.335 C 
BRANCH  16  17
ATOM     17  O   UNL     1     -35.502  20.179  -1.687  0.00  0.00    -0.455 OA
BRANCH  17  18
ATOM     18  C   UNL     1     -36.038  18.856  -1.566  0.00  0.00    +0.136 C 
ATOM     19  C   UNL     1     -34.919  17.851  -1.834  0.00  0.00    +0.044 C 
ATOM     20  C   UNL     1     -37.149  18.714  -2.604  0.00  0.00    +0.044 C 
ATOM     21  C   UNL     1     -36.597  18.686  -0.154  0.00  0.00    +0.044 C 
ENDBRANCH  17  18
ENDBRANCH  16  17
ENDBRANCH   1  16
BRANCH   1  22
ATOM     22  C   UNL     1     -33.449  21.228   0.069  0.00  0.00    +0.057 C 
BRANCH  22  23
ATOM     23  C   UNL     1     -32.519  20.066   0.343  0.00  0.00    -0.020 C 
ATOM     24  C   UNL     1     -32.960  18.987   1.108  0.00  0.00    -0.004 C 
ATOM     25  C   UNL     1     -31.224  20.073  -0.173  0.00  0.00    -0.004 C 
ATOM     26  C   UNL     1     -32.103  17.916   1.360  0.00  0.00    -0.000 C 
ATOM     27  C   UNL     1     -30.367  19.002   0.079  0.00  0.00    -0.000 C 
ATOM     28  C   UNL     1     -30.807  17.923   0.846  0.00  0.00    -0.000 C 
ENDBRANCH  22  23
ENDBRANCH   1  22
TORSDOF 11
ENDMDL
MODEL 6
REMARK VINA RESULT:      -5.5      2.413      5.668
REMARK  Name = 195199
REMARK  11 active torsions:
REMARK  status: ('A' for Active; 'I' for Inactive)
REMARK    1  A    between atoms: C_1  and  N_3
REMARK    2  A    between atoms: C_1  and  C_16
REMARK    3  A    between atoms: C_1  and  C_22
REMARK    4  A    between atoms: C_4  and  C_6
REMARK    5  A    between atoms: C_6  and  N_8
REMARK    6  A    between atoms: C_6  and  C_11
REMARK    7  A    between atoms: C_11  and  C_12
REMARK    8  A    between atoms: C_12  and  S_13
REMARK    9  A    between atoms: C_16  and  O_17
REMARK   10  A    between atoms: O_17  and  C_18
REMARK   11  A    between atoms: C_22  and  C_23
REMARK                            x       y       z     vdW  Elec       q    Type
REMARK                         _______ _______ _______ _____ _____    ______ ____
ROOT
ATOM      1  C   UNL     1     -35.280  20.986   0.606  0.00  0.00    +0.176 C 
ENDROOT
BRANCH   1   3
ATOM      2  O   UNL     1     -35.376  20.648   3.458  0.00  0.00    -0.273 OA
ATOM      3  N   UNL     1     -35.813  21.920   1.569  0.00  0.00    -0.295 N 
ATOM      4  C   UNL     1     -35.816  21.668   2.934  0.00  0.00    +0.241 C 
ATOM      5  H   UNL     1     -36.190  22.771   1.244  0.00  0.00    +0.150 HD
BRANCH   4   6
ATOM      6  C   UNL     1     -36.400  22.828   3.733  0.00  0.00    +0.150 C 
BRANCH   6   8
ATOM      7  O   UNL     1     -35.979  22.051   6.530  0.00  0.00    -0.265 OA
ATOM      8  N   UNL     1     -35.398  23.311   4.647  0.00  0.00    -0.291 N 
ATOM      9  C   UNL     1     -35.285  22.877   5.953  0.00  0.00    +0.300 C 
ATOM     10  H   UNL     1     -34.759  23.988   4.326  0.00  0.00    +0.150 HD
ENDBRANCH   6   8
BRANCH   6  11
ATOM     11  C   UNL     1     -36.956  23.946   2.840  0.00  0.00    +0.041 C 
BRANCH  11  12
ATOM     12  C   UNL     1     -38.006  24.819   3.530  0.00  0.00    +0.060 C 
BRANCH  12  13
ATOM     13  S   UNL     1     -39.528  24.890   2.539  0.00  0.00    -0.139 S 
ATOM     14  C   UNL     1     -39.666  23.131   2.148  0.00  0.00    +0.069 C 
ENDBRANCH  12  13
ENDBRANCH  11  12
ENDBRANCH   6  11
ENDBRANCH   4   6
ENDBRANCH   1   3
BRANCH   1  16
ATOM     15  O   UNL     1     -37.337  21.216  -0.641  0.00  0.00    -0.248 OA
ATOM     16  C   UNL     1     -36.158  20.877  -0.634  0.00  0.00    +0.335 C 
BRANCH  16  17
ATOM     17  O   UNL     1     -35.485  20.352  -1.695  0.00  0.00    -0.455 OA
BRANCH  17  18
ATOM     18  C   UNL     1     -35.727  18.966  -1.961  0.00  0.00    +0.136 C 
ATOM     19  C   UNL     1     -34.402  18.303  -2.333  0.00  0.00    +0.044 C 
ATOM     20  C   UNL     1     -36.713  18.886  -3.125  0.00  0.00    +0.044 C 
ATOM     21  C   UNL     1     -36.323  18.327  -0.707  0.00  0.00    +0.044 C 
ENDBRANCH  17  18
ENDBRANCH  16  17
ENDBRANCH   1  16
BRANCH   1  22
ATOM     22  C   UNL     1     -33.820  21.300   0.250  0.00  0.00    +0.057 C 
BRANCH  22  23
ATOM     23  C   UNL     1     -32.857  20.153   0.460  0.00  0.00    -0.020 C 
ATOM     24  C   UNL     1     -31.579  20.205  -0.097  0.00  0.00    -0.004 C 
ATOM     25  C   UNL     1     -33.246  19.046   1.213  0.00  0.00    -0.004 C 
ATOM     26  C   UNL     1     -30.692  19.147   0.097  0.00  0.00    -0.000 C 
ATOM     27  C   UNL     1     -32.358  17.987   1.407  0.00  0.00    -0.000 C 
ATOM     28  C   UNL     1     -31.080  18.038   0.849  0.00  0.00    -0.000 C 
ENDBRANCH  22  23
ENDBRANCH   1  22
TORSDOF 11
ENDMDL
MODEL 7
REMARK VINA RESULT:      -5.5      3.737      6.738
REMARK  Name = 195199
REMARK  11 active torsions:
REMARK  status: ('A' for Active; 'I' for Inactive)
REMARK    1  A    between atoms: C_1  and  N_3
REMARK    2  A    between atoms: C_1  and  C_16
REMARK    3  A    between atoms: C_1  and  C_22
REMARK    4  A    between atoms: C_4  and  C_6
REMARK    5  A    between atoms: C_6  and  N_8
REMARK    6  A    between atoms: C_6  and  C_11
REMARK    7  A    between atoms: C_11  and  C_12
REMARK    8  A    between atoms: C_12  and  S_13
REMARK    9  A    between atoms: C_16  and  O_17
REMARK   10  A    between atoms: O_17  and  C_18
REMARK   11  A    between atoms: C_22  and  C_23
REMARK                            x       y       z     vdW  Elec       q    Type
REMARK                         _______ _______ _______ _____ _____    ______ ____
ROOT
ATOM      1  C   UNL     1     -36.515  25.659   2.728  0.00  0.00    +0.176 C 
ENDROOT
BRANCH   1   3
ATOM      2  O   UNL     1     -35.035  27.089   4.733  0.00  0.00    -0.273 OA
ATOM      3  N   UNL     1     -35.625  26.775   2.512  0.00  0.00    -0.295 N 
ATOM      4  C   UNL     1     -34.950  27.404   3.549  0.00  0.00    +0.241 C 
ATOM      5  H   UNL     1     -35.491  27.102   1.593  0.00  0.00    +0.150 HD
BRANCH   4   6
ATOM      6  C   UNL     1     -34.047  28.528   3.050  0.00  0.00    +0.150 C 
BRANCH   6   8
ATOM      7  O   UNL     1     -35.759  30.113   1.273  0.00  0.00    -0.265 OA
ATOM      8  N   UNL     1     -34.685  29.790   3.325  0.00  0.00    -0.291 N 
ATOM      9  C   UNL     1     -35.476  30.457   2.412  0.00  0.00    +0.300 C 
ATOM     10  H   UNL     1     -34.549  30.199   4.210  0.00  0.00    +0.150 HD
ENDBRANCH   6   8
BRANCH   6  11
ATOM     11  C   UNL     1     -32.630  28.456   3.636  0.00  0.00    +0.041 C 
BRANCH  11  12
ATOM     12  C   UNL     1     -32.035  29.825   3.974  0.00  0.00    +0.060 C 
BRANCH  12  13
ATOM     13  S   UNL     1     -31.768  29.979   5.766  0.00  0.00    -0.139 S 
ATOM     14  C   UNL     1     -31.956  28.237   6.208  0.00  0.00    +0.069 C 
ENDBRANCH  12  13
ENDBRANCH  11  12
ENDBRANCH   6  11
ENDBRANCH   4   6
ENDBRANCH   1   3
BRANCH   1  16
ATOM     15  O   UNL     1     -38.431  26.895   1.930  0.00  0.00    -0.248 OA
ATOM     16  C   UNL     1     -37.835  25.825   1.985  0.00  0.00    +0.335 C 
BRANCH  16  17
ATOM     17  O   UNL     1     -38.258  24.660   1.422  0.00  0.00    -0.455 OA
BRANCH  17  18
ATOM     18  C   UNL     1     -39.434  24.082   2.001  0.00  0.00    +0.136 C 
ATOM     19  C   UNL     1     -39.644  24.691   3.386  0.00  0.00    +0.044 C 
ATOM     20  C   UNL     1     -39.203  22.577   2.105  0.00  0.00    +0.044 C 
ATOM     21  C   UNL     1     -40.622  24.382   1.088  0.00  0.00    +0.044 C 
ENDBRANCH  17  18
ENDBRANCH  16  17
ENDBRANCH   1  16
BRANCH   1  22
ATOM     22  C   UNL     1     -35.841  24.317   2.406  0.00  0.00    +0.057 C 
BRANCH  22  23
ATOM     23  C   UNL     1     -35.638  23.410   3.599  0.00  0.00    -0.020 C 
ATOM     24  C   UNL     1     -35.445  22.041   3.409  0.00  0.00    -0.004 C 
ATOM     25  C   UNL     1     -35.644  23.941   4.888  0.00  0.00    -0.004 C 
ATOM     26  C   UNL     1     -35.258  21.205   4.509  0.00  0.00    -0.000 C 
ATOM     27  C   UNL     1     -35.457  23.104   5.989  0.00  0.00    -0.000 C 
ATOM     28  C   UNL     1     -35.264  21.735   5.799  0.00  0.00    -0.000 C 
ENDBRANCH  22  23
ENDBRANCH   1  22
TORSDOF 11
ENDMDL
MODEL 8
REMARK VINA RESULT:      -5.5      2.887      4.413
REMARK  Name = 195199
REMARK  11 active torsions:
REMARK  status: ('A' for Active; 'I' for Inactive)
REMARK    1  A    between atoms: C_1  and  N_3
REMARK    2  A    between atoms: C_1  and  C_16
REMARK    3  A    between atoms: C_1  and  C_22
REMARK    4  A    between atoms: C_4  and  C_6
REMARK    5  A    between atoms: C_6  and  N_8
REMARK    6  A    between atoms: C_6  and  C_11
REMARK    7  A    between atoms: C_11  and  C_12
REMARK    8  A    between atoms: C_12  and  S_13
REMARK    9  A    between atoms: C_16  and  O_17
REMARK   10  A    between atoms: O_17  and  C_18
REMARK   11  A    between atoms: C_22  and  C_23
REMARK                            x       y       z     vdW  Elec       q    Type
REMARK                         _______ _______ _______ _____ _____    ______ ____
ROOT
ATOM      1  C   UNL     1     -36.800  25.664   3.430  0.00  0.00    +0.176 C 
ENDROOT
BRANCH   1   3
ATOM      2  O   UNL     1     -38.914  23.959   2.489  0.00  0.00    -0.273 OA
ATOM      3  N   UNL     1     -38.165  26.049   3.159  0.00  0.00    -0.295 N 
ATOM      4  C   UNL     1     -39.120  25.151   2.706  0.00  0.00    +0.241 C 
ATOM      5  H   UNL     1     -38.429  26.988   3.303  0.00  0.00    +0.150 HD
BRANCH   4   6
ATOM      6  C   UNL     1     -40.489  25.802   2.533  0.00  0.00    +0.150 C 
BRANCH   6   8
ATOM      7  O   UNL     1     -43.125  26.660   3.492  0.00  0.00    -0.265 OA
ATOM      8  N   UNL     1     -40.801  26.546   3.726  0.00  0.00    -0.291 N 
ATOM      9  C   UNL     1     -42.084  26.901   4.088  0.00  0.00    +0.300 C 
ATOM     10  H   UNL     1     -40.060  26.816   4.315  0.00  0.00    +0.150 HD
ENDBRANCH   6   8
BRANCH   6  11
ATOM     11  C   UNL     1     -40.580  26.669   1.270  0.00  0.00    +0.041 C 
BRANCH  11  12
ATOM     12  C   UNL     1     -40.492  25.869  -0.032  0.00  0.00    +0.060 C 
BRANCH  12  13
ATOM     13  S   UNL     1     -39.537  26.785  -1.279  0.00  0.00    -0.139 S 
ATOM     14  C   UNL     1     -37.882  26.457  -0.632  0.00  0.00    +0.069 C 
ENDBRANCH  12  13
ENDBRANCH  11  12
ENDBRANCH   6  11
ENDBRANCH   4   6
ENDBRANCH   1   3
BRANCH   1  16
ATOM     15  O   UNL     1     -35.651  27.257   2.022  0.00  0.00    -0.248 OA
ATOM     16  C   UNL     1     -35.818  26.793   3.146  0.00  0.00    +0.335 C 
BRANCH  16  17
ATOM     17  O   UNL     1     -35.159  27.195   4.267  0.00  0.00    -0.455 OA
BRANCH  17  18
ATOM     18  C   UNL     1     -33.750  26.936   4.286  0.00  0.00    +0.136 C 
ATOM     19  C   UNL     1     -33.335  26.608   5.719  0.00  0.00    +0.044 C 
ATOM     20  C   UNL     1     -33.044  28.199   3.797  0.00  0.00    +0.044 C 
ATOM     21  C   UNL     1     -33.460  25.762   3.352  0.00  0.00    +0.044 C 
ENDBRANCH  17  18
ENDBRANCH  16  17
ENDBRANCH   1  16
BRANCH   1  22
ATOM     22  C   UNL     1     -36.635  25.103   4.850  0.00  0.00    +0.057 C 
BRANCH  22  23
ATOM     23  C   UNL     1     -36.042  23.713   4.914  0.00  0.00    -0.020 C 
ATOM     24  C   UNL     1     -36.048  22.899   3.782  0.00  0.00    -0.004 C 
ATOM     25  C   UNL     1     -35.487  23.246   6.105  0.00  0.00    -0.004 C 
ATOM     26  C   UNL     1     -35.502  21.617   3.841  0.00  0.00    -0.000 C 
ATOM     27  C   UNL     1     -34.939  21.964   6.165  0.00  0.00    -0.000 C 
ATOM     28  C   UNL     1     -34.947  21.150   5.033  0.00  0.00    -0.000 C 
ENDBRANCH  22  23
ENDBRANCH   1  22
TORSDOF 11
ENDMDL
MODEL 9
REMARK VINA RESULT:      -5.4      2.975      4.220
REMARK  Name = 195199
REMARK  11 active torsions:
REMARK  status: ('A' for Active; 'I' for Inactive)
REMARK    1  A    between atoms: C_1  and  N_3
REMARK    2  A    between atoms: C_1  and  C_16
REMARK    3  A    between atoms: C_1  and  C_22
REMARK    4  A    between atoms: C_4  and  C_6
REMARK    5  A    between atoms: C_6  and  N_8
REMARK    6  A    between atoms: C_6  and  C_11
REMARK    7  A    between atoms: C_11  and  C_12
REMARK    8  A    between atoms: C_12  and  S_13
REMARK    9  A    between atoms: C_16  and  O_17
REMARK   10  A    between atoms: O_17  and  C_18
REMARK   11  A    between atoms: C_22  and  C_23
REMARK                            x       y       z     vdW  Elec       q    Type
REMARK                         _______ _______ _______ _____ _____    ______ ____
ROOT
ATOM      1  C   UNL     1     -36.588  25.931   3.130  0.00  0.00    +0.176 C 
ENDROOT
BRANCH   1   3
ATOM      2  O   UNL     1     -38.787  24.525   1.927  0.00  0.00    -0.273 OA
ATOM      3  N   UNL     1     -37.848  26.497   2.708  0.00  0.00    -0.295 N 
ATOM      4  C   UNL     1     -38.856  25.735   2.134  0.00  0.00    +0.241 C 
ATOM      5  H   UNL     1     -37.998  27.462   2.833  0.00  0.00    +0.150 HD
BRANCH   4   6
ATOM      6  C   UNL     1     -40.094  26.564   1.813  0.00  0.00    +0.150 C 
BRANCH   6   8
ATOM      7  O   UNL     1     -38.643  28.545   0.208  0.00  0.00    -0.265 OA
ATOM      8  N   UNL     1     -40.156  26.771   0.389  0.00  0.00    -0.291 N 
ATOM      9  C   UNL     1     -39.427  27.738  -0.273  0.00  0.00    +0.300 C 
ATOM     10  H   UNL     1     -40.751  26.192  -0.141  0.00  0.00    +0.150 HD
ENDBRANCH   6   8
BRANCH   6  11
ATOM     11  C   UNL     1     -41.385  25.944   2.365  0.00  0.00    +0.041 C 
BRANCH  11  12
ATOM     12  C   UNL     1     -41.756  26.439   3.764  0.00  0.00    +0.060 C 
BRANCH  12  13
ATOM     13  S   UNL     1     -43.484  27.003   3.804  0.00  0.00    -0.139 S 
ATOM     14  C   UNL     1     -43.183  28.738   4.207  0.00  0.00    +0.069 C 
ENDBRANCH  12  13
ENDBRANCH  11  12
ENDBRANCH   6  11
ENDBRANCH   4   6
ENDBRANCH   1   3
BRANCH   1  16
ATOM     15  O   UNL     1     -35.017  27.288   1.894  0.00  0.00    -0.248 OA
ATOM     16  C   UNL     1     -35.438  26.919   2.985  0.00  0.00    +0.335 C 
BRANCH  16  17
ATOM     17  O   UNL     1     -34.943  27.312   4.192  0.00  0.00    -0.455 OA
BRANCH  17  18
ATOM     18  C   UNL     1     -33.582  26.950   4.453  0.00  0.00    +0.136 C 
ATOM     19  C   UNL     1     -33.460  26.544   5.921  0.00  0.00    +0.044 C 
ATOM     20  C   UNL     1     -32.718  28.174   4.159  0.00  0.00    +0.044 C 
ATOM     21  C   UNL     1     -33.203  25.790   3.534  0.00  0.00    +0.044 C 
ENDBRANCH  17  18
ENDBRANCH  16  17
ENDBRANCH   1  16
BRANCH   1  22
ATOM     22  C   UNL     1     -36.669  25.347   4.548  0.00  0.00    +0.057 C 
BRANCH  22  23
ATOM     23  C   UNL     1     -36.100  23.953   4.691  0.00  0.00    -0.020 C 
ATOM     24  C   UNL     1     -36.117  23.079   3.605  0.00  0.00    -0.004 C 
ATOM     25  C   UNL     1     -35.558  23.543   5.908  0.00  0.00    -0.004 C 
ATOM     26  C   UNL     1     -35.592  21.793   3.737  0.00  0.00    -0.000 C 
ATOM     27  C   UNL     1     -35.033  22.257   6.040  0.00  0.00    -0.000 C 
ATOM     28  C   UNL     1     -35.050  21.382   4.954  0.00  0.00    -0.000 C 
ENDBRANCH  22  23
ENDBRANCH   1  22
TORSDOF 11
ENDMDL
