MODEL 1
REMARK VINA RESULT:      -6.0      0.000      0.000
REMARK  Name = 189810
REMARK  7 active torsions:
REMARK  status: ('A' for Active; 'I' for Inactive)
REMARK    1  A    between atoms: N_2  and  CA_11
REMARK    2  A    between atoms: C_3  and  CA_19
REMARK    3  A    between atoms: CA_10  and  C_16
REMARK    4  A    between atoms: C_16  and  O_17
REMARK    5  A    between atoms: CA_19  and  C_20
REMARK    6  A    between atoms: CA_19  and  N_27
REMARK    7  A    between atoms: C_28  and  C_30
REMARK                            x       y       z     vdW  Elec       q    Type
REMARK                         _______ _______ _______ _____ _____    ______ ____
ROOT
ATOM      1  O   UNL     1     -35.146  20.558   3.530  0.00  0.00    -0.273 OA
ATOM      2  N   UNL     1     -36.788  21.452   2.156  0.00  0.00    -0.295 N 
ATOM      3  C   UNL     1     -35.772  20.547   2.472  0.00  0.00    +0.245 C 
ATOM      4  H   UNL     1     -37.237  21.368   1.283  0.00  0.00    +0.150 HD
ENDROOT
BRANCH   2  11
ATOM      5  S   UNL     1     -35.457  24.132   1.471  0.00  0.00    -0.118 S 
ATOM      6  O   UNL     1     -39.617  22.940   2.298  0.00  0.00    -0.273 OA
ATOM      7  N   UNL     1     -37.809  24.440   2.522  0.00  0.00    -0.260 N 
ATOM      8  C   UNL     1     -36.519  23.882   2.941  0.00  0.00    +0.151 C 
ATOM      9  C   UNL     1     -36.391  25.677   1.011  0.00  0.00    +0.068 C 
ATOM     10  CA  UNL     1     -37.849  25.350   1.396  0.00  0.00    +0.184 C 
ATOM     11  CA  UNL     1     -37.218  22.523   3.065  0.00  0.00    +0.178 C 
ATOM     12  C   UNL     1     -38.492  23.260   2.607  0.00  0.00    +0.247 C 
ATOM     13  C   UNL     1     -35.775  26.850   1.787  0.00  0.00    +0.013 C 
ATOM     14  C   UNL     1     -36.251  25.914  -0.494  0.00  0.00    +0.013 C 
BRANCH  10  16
ATOM     15  OXT UNL     1     -39.113  27.378   1.048  0.00  0.00    -0.248 OA
ATOM     16  C   UNL     1     -38.681  26.523   1.807  0.00  0.00    +0.333 C 
BRANCH  16  17
ATOM     17  O   UNL     1     -38.894  26.513   3.145  0.00  0.00    -0.479 OA
ATOM     18  H   UNL     1     -38.495  25.853   3.678  0.00  0.00    +0.295 HD
ENDBRANCH  16  17
ENDBRANCH  10  16
ENDBRANCH   2  11
BRANCH   3  19
ATOM     19  CA  UNL     1     -35.481  19.566   1.342  0.00  0.00    +0.172 C 
BRANCH  19  20
ATOM     20  C   UNL     1     -34.025  19.588   0.940  0.00  0.00    +0.004 C 
ATOM     21  C   UNL     1     -33.223  18.497   1.233  0.00  0.00    -0.002 C 
ATOM     22  C   UNL     1     -33.520  20.699   0.284  0.00  0.00    -0.002 C 
ATOM     23  C   UNL     1     -31.879  18.518   0.861  0.00  0.00    -0.000 C 
ATOM     24  C   UNL     1     -32.175  20.719  -0.088  0.00  0.00    -0.000 C 
ATOM     25  C   UNL     1     -31.355  19.629   0.200  0.00  0.00    -0.000 C 
ENDBRANCH  19  20
BRANCH  19  27
ATOM     26  O   UNL     1     -37.268  17.780  -0.068  0.00  0.00    -0.275 OA
ATOM     27  N   UNL     1     -36.353  19.894   0.241  0.00  0.00    -0.295 N 
ATOM     28  C   UNL     1     -37.180  18.965  -0.377  0.00  0.00    +0.223 C 
ATOM     29  H   UNL     1     -36.363  20.821  -0.088  0.00  0.00    +0.150 HD
BRANCH  28  30
ATOM     30  C   UNL     1     -37.985  19.592  -1.500  0.00  0.00    +0.085 C 
ATOM     31  C   UNL     1     -38.128  21.094  -1.347  0.00  0.00    +0.010 C 
ENDBRANCH  28  30
ENDBRANCH  19  27
ENDBRANCH   3  19
TORSDOF 7
ENDMDL
MODEL 2
REMARK VINA RESULT:      -6.0      4.021      7.614
REMARK  Name = 189810
REMARK  7 active torsions:
REMARK  status: ('A' for Active; 'I' for Inactive)
REMARK    1  A    between atoms: N_2  and  CA_11
REMARK    2  A    between atoms: C_3  and  CA_19
REMARK    3  A    between atoms: CA_10  and  C_16
REMARK    4  A    between atoms: C_16  and  O_17
REMARK    5  A    between atoms: CA_19  and  C_20
REMARK    6  A    between atoms: CA_19  and  N_27
REMARK    7  A    between atoms: C_28  and  C_30
REMARK                            x       y       z     vdW  Elec       q    Type
REMARK                         _______ _______ _______ _____ _____    ______ ____
ROOT
ATOM      1  O   UNL     1     -34.978  27.032   4.827  0.00  0.00    -0.273 OA
ATOM      2  N   UNL     1     -34.596  25.763   2.923  0.00  0.00    -0.295 N 
ATOM      3  C   UNL     1     -34.208  26.600   3.972  0.00  0.00    +0.245 C 
ATOM      4  H   UNL     1     -33.911  25.464   2.282  0.00  0.00    +0.150 HD
ENDROOT
BRANCH   2  11
ATOM      5  S   UNL     1     -34.848  23.856   0.529  0.00  0.00    -0.118 S 
ATOM      6  O   UNL     1     -36.283  23.698   4.692  0.00  0.00    -0.273 OA
ATOM      7  N   UNL     1     -36.597  23.354   2.379  0.00  0.00    -0.260 N 
ATOM      8  C   UNL     1     -36.285  24.471   1.482  0.00  0.00    +0.151 C 
ATOM      9  C   UNL     1     -35.470  22.104   0.648  0.00  0.00    +0.068 C 
ATOM     10  CA  UNL     1     -36.094  22.033   2.058  0.00  0.00    +0.184 C 
ATOM     11  CA  UNL     1     -35.980  25.306   2.732  0.00  0.00    +0.178 C 
ATOM     12  C   UNL     1     -36.337  24.037   3.532  0.00  0.00    +0.247 C 
ATOM     13  C   UNL     1     -36.464  21.878  -0.500  0.00  0.00    +0.013 C 
ATOM     14  C   UNL     1     -34.286  21.145   0.513  0.00  0.00    +0.013 C 
BRANCH  10  16
ATOM     15  OXT UNL     1     -38.414  21.365   2.052  0.00  0.00    -0.248 OA
ATOM     16  C   UNL     1     -37.236  21.079   2.205  0.00  0.00    +0.333 C 
BRANCH  16  17
ATOM     17  O   UNL     1     -36.787  19.844   2.536  0.00  0.00    -0.479 OA
ATOM     18  H   UNL     1     -37.190  19.370   3.237  0.00  0.00    +0.295 HD
ENDBRANCH  16  17
ENDBRANCH  10  16
ENDBRANCH   2  11
BRANCH   3  19
ATOM     19  CA  UNL     1     -32.730  26.968   3.918  0.00  0.00    +0.172 C 
BRANCH  19  20
ATOM     20  C   UNL     1     -32.448  28.266   4.638  0.00  0.00    +0.004 C 
ATOM     21  C   UNL     1     -32.003  28.233   5.949  0.00  0.00    -0.002 C 
ATOM     22  C   UNL     1     -32.640  29.466   3.972  0.00  0.00    -0.002 C 
ATOM     23  C   UNL     1     -31.742  29.432   6.612  0.00  0.00    -0.000 C 
ATOM     24  C   UNL     1     -32.379  30.665   4.635  0.00  0.00    -0.000 C 
ATOM     25  C   UNL     1     -31.930  30.648   5.956  0.00  0.00    -0.000 C 
ENDBRANCH  19  20
BRANCH  19  27
ATOM     26  O   UNL     1     -30.251  26.031   2.758  0.00  0.00    -0.275 OA
ATOM     27  N   UNL     1     -32.341  27.021   2.531  0.00  0.00    -0.295 N 
ATOM     28  C   UNL     1     -31.123  26.545   2.063  0.00  0.00    +0.223 C 
ATOM     29  H   UNL     1     -32.969  27.415   1.883  0.00  0.00    +0.150 HD
BRANCH  28  30
ATOM     30  C   UNL     1     -30.988  26.729   0.563  0.00  0.00    +0.085 C 
ATOM     31  C   UNL     1     -32.326  26.946  -0.121  0.00  0.00    +0.010 C 
ENDBRANCH  28  30
ENDBRANCH  19  27
ENDBRANCH   3  19
TORSDOF 7
ENDMDL
MODEL 3
REMARK VINA RESULT:      -5.9      3.915      7.239
REMARK  Name = 189810
REMARK  7 active torsions:
REMARK  status: ('A' for Active; 'I' for Inactive)
REMARK    1  A    between atoms: N_2  and  CA_11
REMARK    2  A    between atoms: C_3  and  CA_19
REMARK    3  A    between atoms: CA_10  and  C_16
REMARK    4  A    between atoms: C_16  and  O_17
REMARK    5  A    between atoms: CA_19  and  C_20
REMARK    6  A    between atoms: CA_19  and  N_27
REMARK    7  A    between atoms: C_28  and  C_30
REMARK                            x       y       z     vdW  Elec       q    Type
REMARK                         _______ _______ _______ _____ _____    ______ ____
ROOT
ATOM      1  O   UNL     1     -34.704  26.266   5.924  0.00  0.00    -0.273 OA
ATOM      2  N   UNL     1     -35.256  26.220   3.671  0.00  0.00    -0.295 N 
ATOM      3  C   UNL     1     -34.377  26.382   4.745  0.00  0.00    +0.245 C 
ATOM      4  H   UNL     1     -34.907  26.331   2.758  0.00  0.00    +0.150 HD
ENDROOT
BRANCH   2  11
ATOM      5  S   UNL     1     -36.584  25.479   1.004  0.00  0.00    -0.118 S 
ATOM      6  O   UNL     1     -36.560  23.617   4.997  0.00  0.00    -0.273 OA
ATOM      7  N   UNL     1     -37.675  24.264   3.020  0.00  0.00    -0.260 N 
ATOM      8  C   UNL     1     -37.508  25.651   2.575  0.00  0.00    +0.151 C 
ATOM      9  C   UNL     1     -37.397  23.839   0.660  0.00  0.00    +0.068 C 
ATOM     10  CA  UNL     1     -37.520  23.193   2.056  0.00  0.00    +0.184 C 
ATOM     11  CA  UNL     1     -36.677  25.891   3.843  0.00  0.00    +0.178 C 
ATOM     12  C   UNL     1     -36.943  24.406   4.164  0.00  0.00    +0.247 C 
ATOM     13  C   UNL     1     -38.738  24.114  -0.034  0.00  0.00    +0.013 C 
ATOM     14  C   UNL     1     -36.491  23.016  -0.257  0.00  0.00    +0.013 C 
BRANCH  10  16
ATOM     15  OXT UNL     1     -39.847  22.621   2.354  0.00  0.00    -0.248 OA
ATOM     16  C   UNL     1     -38.683  22.269   2.234  0.00  0.00    +0.333 C 
BRANCH  16  17
ATOM     17  O   UNL     1     -38.270  20.978   2.246  0.00  0.00    -0.479 OA
ATOM     18  H   UNL     1     -37.440  20.748   1.878  0.00  0.00    +0.295 HD
ENDBRANCH  16  17
ENDBRANCH  10  16
ENDBRANCH   2  11
BRANCH   3  19
ATOM     19  CA  UNL     1     -32.970  26.769   4.305  0.00  0.00    +0.172 C 
BRANCH  19  20
ATOM     20  C   UNL     1     -32.562  28.118   4.849  0.00  0.00    +0.004 C 
ATOM     21  C   UNL     1     -32.012  28.199   6.118  0.00  0.00    -0.002 C 
ATOM     22  C   UNL     1     -32.745  29.248   4.069  0.00  0.00    -0.002 C 
ATOM     23  C   UNL     1     -31.635  29.445   6.620  0.00  0.00    -0.000 C 
ATOM     24  C   UNL     1     -32.368  30.493   4.571  0.00  0.00    -0.000 C 
ATOM     25  C   UNL     1     -31.813  30.592   5.847  0.00  0.00    -0.000 C 
ENDBRANCH  19  20
BRANCH  19  27
ATOM     26  O   UNL     1     -30.790  25.875   2.625  0.00  0.00    -0.275 OA
ATOM     27  N   UNL     1     -32.937  26.734   2.863  0.00  0.00    -0.295 N 
ATOM     28  C   UNL     1     -31.840  26.286   2.138  0.00  0.00    +0.223 C 
ATOM     29  H   UNL     1     -33.730  27.042   2.369  0.00  0.00    +0.150 HD
BRANCH  28  30
ATOM     30  C   UNL     1     -32.089  26.359   0.643  0.00  0.00    +0.085 C 
ATOM     31  C   UNL     1     -33.290  27.217   0.293  0.00  0.00    +0.010 C 
ENDBRANCH  28  30
ENDBRANCH  19  27
ENDBRANCH   3  19
TORSDOF 7
ENDMDL
MODEL 4
REMARK VINA RESULT:      -5.8      2.177      6.948
REMARK  Name = 189810
REMARK  7 active torsions:
REMARK  status: ('A' for Active; 'I' for Inactive)
REMARK    1  A    between atoms: N_2  and  CA_11
REMARK    2  A    between atoms: C_3  and  CA_19
REMARK    3  A    between atoms: CA_10  and  C_16
REMARK    4  A    between atoms: C_16  and  O_17
REMARK    5  A    between atoms: CA_19  and  C_20
REMARK    6  A    between atoms: CA_19  and  N_27
REMARK    7  A    between atoms: C_28  and  C_30
REMARK                            x       y       z     vdW  Elec       q    Type
REMARK                         _______ _______ _______ _____ _____    ______ ____
ROOT
ATOM      1  O   UNL     1     -39.088  22.819   2.991  0.00  0.00    -0.273 OA
ATOM      2  N   UNL     1     -36.895  22.805   2.232  0.00  0.00    -0.295 N 
ATOM      3  C   UNL     1     -38.045  23.418   2.735  0.00  0.00    +0.245 C 
ATOM      4  H   UNL     1     -36.103  23.363   2.057  0.00  0.00    +0.150 HD
ENDROOT
BRANCH   2  11
ATOM      5  S   UNL     1     -35.296  22.229  -0.325  0.00  0.00    -0.118 S 
ATOM      6  O   UNL     1     -35.189  20.567   3.755  0.00  0.00    -0.273 OA
ATOM      7  N   UNL     1     -35.106  20.309   1.410  0.00  0.00    -0.260 N 
ATOM      8  C   UNL     1     -36.175  20.935   0.625  0.00  0.00    +0.151 C 
ATOM      9  C   UNL     1     -33.749  21.192  -0.380  0.00  0.00    +0.068 C 
ATOM     10  CA  UNL     1     -33.730  20.491   0.995  0.00  0.00    +0.184 C 
ATOM     11  CA  UNL     1     -36.812  21.365   1.953  0.00  0.00    +0.178 C 
ATOM     12  C   UNL     1     -35.615  20.663   2.627  0.00  0.00    +0.247 C 
ATOM     13  C   UNL     1     -33.863  20.239  -1.579  0.00  0.00    +0.013 C 
ATOM     14  C   UNL     1     -32.539  22.111  -0.554  0.00  0.00    +0.013 C 
BRANCH  10  16
ATOM     15  OXT UNL     1     -31.877  18.944   0.974  0.00  0.00    -0.248 OA
ATOM     16  C   UNL     1     -33.081  19.144   1.018  0.00  0.00    +0.333 C 
BRANCH  16  17
ATOM     17  O   UNL     1     -34.015  18.165   1.093  0.00  0.00    -0.479 OA
ATOM     18  H   UNL     1     -34.022  17.473   0.460  0.00  0.00    +0.295 HD
ENDBRANCH  16  17
ENDBRANCH  10  16
ENDBRANCH   2  11
BRANCH   3  19
ATOM     19  CA  UNL     1     -37.891  24.926   2.890  0.00  0.00    +0.172 C 
BRANCH  19  20
ATOM     20  C   UNL     1     -36.658  25.287   3.685  0.00  0.00    +0.004 C 
ATOM     21  C   UNL     1     -36.416  24.650   4.890  0.00  0.00    -0.002 C 
ATOM     22  C   UNL     1     -35.792  26.250   3.192  0.00  0.00    -0.002 C 
ATOM     23  C   UNL     1     -35.277  24.983   5.622  0.00  0.00    -0.000 C 
ATOM     24  C   UNL     1     -34.653  26.584   3.924  0.00  0.00    -0.000 C 
ATOM     25  C   UNL     1     -34.396  25.950   5.140  0.00  0.00    -0.000 C 
ENDBRANCH  19  20
BRANCH  19  27
ATOM     26  O   UNL     1     -39.899  26.616   1.671  0.00  0.00    -0.275 OA
ATOM     27  N   UNL     1     -39.097  25.429   3.501  0.00  0.00    -0.295 N 
ATOM     28  C   UNL     1     -40.007  26.239   2.835  0.00  0.00    +0.223 C 
ATOM     29  H   UNL     1     -39.284  25.187   4.437  0.00  0.00    +0.150 HD
BRANCH  28  30
ATOM     30  C   UNL     1     -41.180  26.613   3.723  0.00  0.00    +0.085 C 
ATOM     31  C   UNL     1     -42.492  26.665   2.964  0.00  0.00    +0.010 C 
ENDBRANCH  28  30
ENDBRANCH  19  27
ENDBRANCH   3  19
TORSDOF 7
ENDMDL
MODEL 5
REMARK VINA RESULT:      -5.7      2.349      3.570
REMARK  Name = 189810
REMARK  7 active torsions:
REMARK  status: ('A' for Active; 'I' for Inactive)
REMARK    1  A    between atoms: N_2  and  CA_11
REMARK    2  A    between atoms: C_3  and  CA_19
REMARK    3  A    between atoms: CA_10  and  C_16
REMARK    4  A    between atoms: C_16  and  O_17
REMARK    5  A    between atoms: CA_19  and  C_20
REMARK    6  A    between atoms: CA_19  and  N_27
REMARK    7  A    between atoms: C_28  and  C_30
REMARK                            x       y       z     vdW  Elec       q    Type
REMARK                         _______ _______ _______ _____ _____    ______ ____
ROOT
ATOM      1  O   UNL     1     -35.779  20.204   0.014  0.00  0.00    -0.273 OA
ATOM      2  N   UNL     1     -34.948  21.677   1.602  0.00  0.00    -0.295 N 
ATOM      3  C   UNL     1     -34.872  20.922   0.429  0.00  0.00    +0.245 C 
ATOM      4  H   UNL     1     -34.171  22.225   1.859  0.00  0.00    +0.150 HD
ENDROOT
BRANCH   2  11
ATOM      5  S   UNL     1     -34.828  23.956   3.656  0.00  0.00    -0.118 S 
ATOM      6  O   UNL     1     -37.944  22.538   0.882  0.00  0.00    -0.273 OA
ATOM      7  N   UNL     1     -37.262  23.358   2.988  0.00  0.00    -0.260 N 
ATOM      8  C   UNL     1     -36.140  22.680   3.644  0.00  0.00    +0.151 C 
ATOM      9  C   UNL     1     -36.096  25.314   3.787  0.00  0.00    +0.068 C 
ATOM     10  CA  UNL     1     -37.267  24.805   2.919  0.00  0.00    +0.184 C 
ATOM     11  CA  UNL     1     -36.133  21.692   2.470  0.00  0.00    +0.178 C 
ATOM     12  C   UNL     1     -37.309  22.518   1.911  0.00  0.00    +0.247 C 
ATOM     13  C   UNL     1     -36.438  25.499   5.272  0.00  0.00    +0.013 C 
ATOM     14  C   UNL     1     -35.503  26.606   3.221  0.00  0.00    +0.013 C 
BRANCH  10  16
ATOM     15  OXT UNL     1     -39.492  24.542   3.819  0.00  0.00    -0.248 OA
ATOM     16  C   UNL     1     -38.626  25.262   3.346  0.00  0.00    +0.333 C 
BRANCH  16  17
ATOM     17  O   UNL     1     -38.771  26.593   3.134  0.00  0.00    -0.479 OA
ATOM     18  H   UNL     1     -39.406  26.903   2.519  0.00  0.00    +0.295 HD
ENDBRANCH  16  17
ENDBRANCH  10  16
ENDBRANCH   2  11
BRANCH   3  19
ATOM     19  CA  UNL     1     -33.520  21.039  -0.264  0.00  0.00    +0.172 C 
BRANCH  19  20
ATOM     20  C   UNL     1     -32.567  19.952   0.175  0.00  0.00    +0.004 C 
ATOM     21  C   UNL     1     -31.256  19.979  -0.270  0.00  0.00    -0.002 C 
ATOM     22  C   UNL     1     -33.023  18.948   1.014  0.00  0.00    -0.002 C 
ATOM     23  C   UNL     1     -30.376  18.974   0.135  0.00  0.00    -0.000 C 
ATOM     24  C   UNL     1     -32.144  17.944   1.419  0.00  0.00    -0.000 C 
ATOM     25  C   UNL     1     -30.820  17.957   0.979  0.00  0.00    -0.000 C 
ENDBRANCH  19  20
BRANCH  19  27
ATOM     26  O   UNL     1     -32.649  23.011  -2.194  0.00  0.00    -0.275 OA
ATOM     27  N   UNL     1     -33.001  22.357   0.008  0.00  0.00    -0.295 N 
ATOM     28  C   UNL     1     -32.605  23.240  -0.989  0.00  0.00    +0.223 C 
ATOM     29  H   UNL     1     -32.923  22.645   0.946  0.00  0.00    +0.150 HD
BRANCH  28  30
ATOM     30  C   UNL     1     -32.105  24.551  -0.410  0.00  0.00    +0.085 C 
ATOM     31  C   UNL     1     -33.087  25.170   0.566  0.00  0.00    +0.010 C 
ENDBRANCH  28  30
ENDBRANCH  19  27
ENDBRANCH   3  19
TORSDOF 7
ENDMDL
MODEL 6
REMARK VINA RESULT:      -5.6      4.107      6.230
REMARK  Name = 189810
REMARK  7 active torsions:
REMARK  status: ('A' for Active; 'I' for Inactive)
REMARK    1  A    between atoms: N_2  and  CA_11
REMARK    2  A    between atoms: C_3  and  CA_19
REMARK    3  A    between atoms: CA_10  and  C_16
REMARK    4  A    between atoms: C_16  and  O_17
REMARK    5  A    between atoms: CA_19  and  C_20
REMARK    6  A    between atoms: CA_19  and  N_27
REMARK    7  A    between atoms: C_28  and  C_30
REMARK                            x       y       z     vdW  Elec       q    Type
REMARK                         _______ _______ _______ _____ _____    ______ ____
ROOT
ATOM      1  O   UNL     1     -35.419  24.610   0.967  0.00  0.00    -0.273 OA
ATOM      2  N   UNL     1     -34.622  25.924   2.706  0.00  0.00    -0.295 N 
ATOM      3  C   UNL     1     -35.482  24.980   2.138  0.00  0.00    +0.245 C 
ATOM      4  H   UNL     1     -34.745  26.160   3.654  0.00  0.00    +0.150 HD
ENDROOT
BRANCH   2  11
ATOM      5  S   UNL     1     -35.449  28.711   1.719  0.00  0.00    -0.118 S 
ATOM      6  O   UNL     1     -31.888  27.168   3.807  0.00  0.00    -0.273 OA
ATOM      7  N   UNL     1     -32.901  28.542   2.176  0.00  0.00    -0.260 N 
ATOM      8  C   UNL     1     -33.865  27.912   1.268  0.00  0.00    +0.151 C 
ATOM      9  C   UNL     1     -34.568  30.287   2.178  0.00  0.00    +0.068 C 
ATOM     10  CA  UNL     1     -33.249  29.796   2.812  0.00  0.00    +0.184 C 
ATOM     11  CA  UNL     1     -33.543  26.578   1.954  0.00  0.00    +0.178 C 
ATOM     12  C   UNL     1     -32.571  27.391   2.833  0.00  0.00    +0.247 C 
ATOM     13  C   UNL     1     -34.391  31.118   0.900  0.00  0.00    +0.013 C 
ATOM     14  C   UNL     1     -35.420  31.057   3.190  0.00  0.00    +0.013 C 
BRANCH  10  16
ATOM     15  OXT UNL     1     -31.202  30.589   1.805  0.00  0.00    -0.248 OA
ATOM     16  C   UNL     1     -32.079  30.714   2.646  0.00  0.00    +0.333 C 
BRANCH  16  17
ATOM     17  O   UNL     1     -32.122  31.712   3.563  0.00  0.00    -0.479 OA
ATOM     18  H   UNL     1     -31.325  32.086   3.886  0.00  0.00    +0.295 HD
ENDBRANCH  16  17
ENDBRANCH  10  16
ENDBRANCH   2  11
BRANCH   3  19
ATOM     19  CA  UNL     1     -36.546  24.488   3.111  0.00  0.00    +0.172 C 
BRANCH  19  20
ATOM     20  C   UNL     1     -35.987  23.489   4.098  0.00  0.00    +0.004 C 
ATOM     21  C   UNL     1     -35.729  22.194   3.681  0.00  0.00    -0.002 C 
ATOM     22  C   UNL     1     -35.743  23.889   5.402  0.00  0.00    -0.002 C 
ATOM     23  C   UNL     1     -35.213  21.273   4.593  0.00  0.00    -0.000 C 
ATOM     24  C   UNL     1     -35.227  22.968   6.313  0.00  0.00    -0.000 C 
ATOM     25  C   UNL     1     -34.962  21.660   5.909  0.00  0.00    -0.000 C 
ENDBRANCH  19  20
BRANCH  19  27
ATOM     26  O   UNL     1     -39.371  24.578   3.732  0.00  0.00    -0.275 OA
ATOM     27  N   UNL     1     -37.629  23.935   2.335  0.00  0.00    -0.295 N 
ATOM     28  C   UNL     1     -38.961  24.027   2.714  0.00  0.00    +0.223 C 
ATOM     29  H   UNL     1     -37.412  23.469   1.495  0.00  0.00    +0.150 HD
BRANCH  28  30
ATOM     30  C   UNL     1     -39.878  23.360   1.705  0.00  0.00    +0.085 C 
ATOM     31  C   UNL     1     -39.704  21.853   1.667  0.00  0.00    +0.010 C 
ENDBRANCH  28  30
ENDBRANCH  19  27
ENDBRANCH   3  19
TORSDOF 7
ENDMDL
MODEL 7
REMARK VINA RESULT:      -5.6      2.375      4.352
REMARK  Name = 189810
REMARK  7 active torsions:
REMARK  status: ('A' for Active; 'I' for Inactive)
REMARK    1  A    between atoms: N_2  and  CA_11
REMARK    2  A    between atoms: C_3  and  CA_19
REMARK    3  A    between atoms: CA_10  and  C_16
REMARK    4  A    between atoms: C_16  and  O_17
REMARK    5  A    between atoms: CA_19  and  C_20
REMARK    6  A    between atoms: CA_19  and  N_27
REMARK    7  A    between atoms: C_28  and  C_30
REMARK                            x       y       z     vdW  Elec       q    Type
REMARK                         _______ _______ _______ _____ _____    ______ ____
ROOT
ATOM      1  O   UNL     1     -37.046  19.646   1.182  0.00  0.00    -0.273 OA
ATOM      2  N   UNL     1     -37.616  21.572   2.345  0.00  0.00    -0.295 N 
ATOM      3  C   UNL     1     -36.739  20.559   1.946  0.00  0.00    +0.245 C 
ATOM      4  H   UNL     1     -37.284  22.264   2.960  0.00  0.00    +0.150 HD
ENDROOT
BRANCH   2  11
ATOM      5  S   UNL     1     -38.838  24.335   2.885  0.00  0.00    -0.118 S 
ATOM      6  O   UNL     1     -38.733  21.708  -0.651  0.00  0.00    -0.273 OA
ATOM      7  N   UNL     1     -39.863  23.197   0.792  0.00  0.00    -0.260 N 
ATOM      8  C   UNL     1     -39.798  22.921   2.230  0.00  0.00    +0.151 C 
ATOM      9  C   UNL     1     -39.515  25.458   1.561  0.00  0.00    +0.068 C 
ATOM     10  CA  UNL     1     -39.609  24.543   0.321  0.00  0.00    +0.184 C 
ATOM     11  CA  UNL     1     -39.009  21.650   1.887  0.00  0.00    +0.178 C 
ATOM     12  C   UNL     1     -39.162  22.086   0.416  0.00  0.00    +0.247 C 
ATOM     13  C   UNL     1     -40.862  26.007   2.051  0.00  0.00    +0.013 C 
ATOM     14  C   UNL     1     -38.531  26.607   1.333  0.00  0.00    +0.013 C 
BRANCH  10  16
ATOM     15  OXT UNL     1     -40.660  25.804  -1.450  0.00  0.00    -0.248 OA
ATOM     16  C   UNL     1     -40.698  24.885  -0.645  0.00  0.00    +0.333 C 
BRANCH  16  17
ATOM     17  O   UNL     1     -41.744  24.035  -0.507  0.00  0.00    -0.479 OA
ATOM     18  H   UNL     1     -41.764  23.233  -0.992  0.00  0.00    +0.295 HD
ENDBRANCH  16  17
ENDBRANCH  10  16
ENDBRANCH   2  11
BRANCH   3  19
ATOM     19  CA  UNL     1     -35.367  20.674   2.599  0.00  0.00    +0.172 C 
BRANCH  19  20
ATOM     20  C   UNL     1     -35.319  21.790   3.616  0.00  0.00    +0.004 C 
ATOM     21  C   UNL     1     -35.195  23.099   3.181  0.00  0.00    -0.002 C 
ATOM     22  C   UNL     1     -35.401  21.482   4.964  0.00  0.00    -0.002 C 
ATOM     23  C   UNL     1     -35.152  24.129   4.121  0.00  0.00    -0.000 C 
ATOM     24  C   UNL     1     -35.358  22.512   5.904  0.00  0.00    -0.000 C 
ATOM     25  C   UNL     1     -35.233  23.836   5.482  0.00  0.00    -0.000 C 
ENDBRANCH  19  20
BRANCH  19  27
ATOM     26  O   UNL     1     -33.451  18.733   1.632  0.00  0.00    -0.275 OA
ATOM     27  N   UNL     1     -34.395  20.855   1.549  0.00  0.00    -0.295 N 
ATOM     28  C   UNL     1     -33.511  19.861   1.150  0.00  0.00    +0.223 C 
ATOM     29  H   UNL     1     -34.356  21.726   1.092  0.00  0.00    +0.150 HD
BRANCH  28  30
ATOM     30  C   UNL     1     -32.608  20.332   0.025  0.00  0.00    +0.085 C 
ATOM     31  C   UNL     1     -31.241  19.675   0.061  0.00  0.00    +0.010 C 
ENDBRANCH  28  30
ENDBRANCH  19  27
ENDBRANCH   3  19
TORSDOF 7
ENDMDL
MODEL 8
REMARK VINA RESULT:      -5.5      2.527      5.747
REMARK  Name = 189810
REMARK  7 active torsions:
REMARK  status: ('A' for Active; 'I' for Inactive)
REMARK    1  A    between atoms: N_2  and  CA_11
REMARK    2  A    between atoms: C_3  and  CA_19
REMARK    3  A    between atoms: CA_10  and  C_16
REMARK    4  A    between atoms: C_16  and  O_17
REMARK    5  A    between atoms: CA_19  and  C_20
REMARK    6  A    between atoms: CA_19  and  N_27
REMARK    7  A    between atoms: C_28  and  C_30
REMARK                            x       y       z     vdW  Elec       q    Type
REMARK                         _______ _______ _______ _____ _____    ______ ____
ROOT
ATOM      1  O   UNL     1     -38.088  24.193   3.699  0.00  0.00    -0.273 OA
ATOM      2  N   UNL     1     -37.694  22.829   1.864  0.00  0.00    -0.295 N 
ATOM      3  C   UNL     1     -37.354  23.424   3.081  0.00  0.00    +0.245 C 
ATOM      4  H   UNL     1     -37.043  22.224   1.439  0.00  0.00    +0.150 HD
ENDROOT
BRANCH   2  11
ATOM      5  S   UNL     1     -37.564  22.096  -1.115  0.00  0.00    -0.118 S 
ATOM      6  O   UNL     1     -40.418  21.169   2.111  0.00  0.00    -0.273 OA
ATOM      7  N   UNL     1     -39.937  21.766  -0.121  0.00  0.00    -0.260 N 
ATOM      8  C   UNL     1     -39.018  22.889  -0.336  0.00  0.00    +0.151 C 
ATOM      9  C   UNL     1     -38.647  20.816  -1.926  0.00  0.00    +0.068 C 
ATOM     10  CA  UNL     1     -39.740  20.543  -0.872  0.00  0.00    +0.184 C 
ATOM     11  CA  UNL     1     -38.977  23.063   1.188  0.00  0.00    +0.178 C 
ATOM     12  C   UNL     1     -39.942  21.862   1.241  0.00  0.00    +0.247 C 
ATOM     13  C   UNL     1     -39.166  21.405  -3.245  0.00  0.00    +0.013 C 
ATOM     14  C   UNL     1     -37.814  19.563  -2.204  0.00  0.00    +0.013 C 
BRANCH  10  16
ATOM     15  OXT UNL     1     -41.343  19.043  -1.878  0.00  0.00    -0.248 OA
ATOM     16  C   UNL     1     -41.073  20.143  -1.421  0.00  0.00    +0.333 C 
BRANCH  16  17
ATOM     17  O   UNL     1     -41.949  21.174  -1.345  0.00  0.00    -0.479 OA
ATOM     18  H   UNL     1     -41.700  21.972  -0.922  0.00  0.00    +0.295 HD
ENDBRANCH  16  17
ENDBRANCH  10  16
ENDBRANCH   2  11
BRANCH   3  19
ATOM     19  CA  UNL     1     -35.950  23.059   3.547  0.00  0.00    +0.172 C 
BRANCH  19  20
ATOM     20  C   UNL     1     -35.169  24.275   3.987  0.00  0.00    +0.004 C 
ATOM     21  C   UNL     1     -35.146  24.617   5.329  0.00  0.00    -0.002 C 
ATOM     22  C   UNL     1     -34.492  25.026   3.040  0.00  0.00    -0.002 C 
ATOM     23  C   UNL     1     -34.425  25.740   5.735  0.00  0.00    -0.000 C 
ATOM     24  C   UNL     1     -33.771  26.149   3.446  0.00  0.00    -0.000 C 
ATOM     25  C   UNL     1     -33.738  26.506   4.794  0.00  0.00    -0.000 C 
ENDBRANCH  19  20
BRANCH  19  27
ATOM     26  O   UNL     1     -35.242  20.255   3.454  0.00  0.00    -0.275 OA
ATOM     27  N   UNL     1     -35.298  22.358   2.467  0.00  0.00    -0.295 N 
ATOM     28  C   UNL     1     -34.996  21.003   2.512  0.00  0.00    +0.223 C 
ATOM     29  H   UNL     1     -35.055  22.865   1.659  0.00  0.00    +0.150 HD
BRANCH  28  30
ATOM     30  C   UNL     1     -34.316  20.538   1.238  0.00  0.00    +0.085 C 
ATOM     31  C   UNL     1     -33.647  19.186   1.395  0.00  0.00    +0.010 C 
ENDBRANCH  28  30
ENDBRANCH  19  27
ENDBRANCH   3  19
TORSDOF 7
ENDMDL
MODEL 9
REMARK VINA RESULT:      -5.5      2.118      3.245
REMARK  Name = 189810
REMARK  7 active torsions:
REMARK  status: ('A' for Active; 'I' for Inactive)
REMARK    1  A    between atoms: N_2  and  CA_11
REMARK    2  A    between atoms: C_3  and  CA_19
REMARK    3  A    between atoms: CA_10  and  C_16
REMARK    4  A    between atoms: C_16  and  O_17
REMARK    5  A    between atoms: CA_19  and  C_20
REMARK    6  A    between atoms: CA_19  and  N_27
REMARK    7  A    between atoms: C_28  and  C_30
REMARK                            x       y       z     vdW  Elec       q    Type
REMARK                         _______ _______ _______ _____ _____    ______ ____
ROOT
ATOM      1  O   UNL     1     -36.007  19.538   1.191  0.00  0.00    -0.273 OA
ATOM      2  N   UNL     1     -35.088  21.210   2.512  0.00  0.00    -0.295 N 
ATOM      3  C   UNL     1     -35.034  20.199   1.549  0.00  0.00    +0.245 C 
ATOM      4  H   UNL     1     -34.258  21.688   2.737  0.00  0.00    +0.150 HD
ENDROOT
BRANCH   2  11
ATOM      5  S   UNL     1     -34.749  23.813   4.103  0.00  0.00    -0.118 S 
ATOM      6  O   UNL     1     -37.796  22.372   1.265  0.00  0.00    -0.273 OA
ATOM      7  N   UNL     1     -37.177  23.488   3.251  0.00  0.00    -0.260 N 
ATOM      8  C   UNL     1     -36.264  22.789   4.161  0.00  0.00    +0.151 C 
ATOM      9  C   UNL     1     -35.754  25.355   3.815  0.00  0.00    +0.068 C 
ATOM     10  CA  UNL     1     -36.911  24.872   2.914  0.00  0.00    +0.184 C 
ATOM     11  CA  UNL     1     -36.327  21.593   3.202  0.00  0.00    +0.178 C 
ATOM     12  C   UNL     1     -37.275  22.464   2.353  0.00  0.00    +0.247 C 
ATOM     13  C   UNL     1     -36.195  25.893   5.183  0.00  0.00    +0.013 C 
ATOM     14  C   UNL     1     -34.885  26.390   3.099  0.00  0.00    +0.013 C 
BRANCH  10  16
ATOM     15  OXT UNL     1     -38.478  26.662   2.499  0.00  0.00    -0.248 OA
ATOM     16  C   UNL     1     -38.198  25.619   3.071  0.00  0.00    +0.333 C 
BRANCH  16  17
ATOM     17  O   UNL     1     -39.019  24.979   3.939  0.00  0.00    -0.479 OA
ATOM     18  H   UNL     1     -38.804  24.947   4.851  0.00  0.00    +0.295 HD
ENDBRANCH  16  17
ENDBRANCH  10  16
ENDBRANCH   2  11
BRANCH   3  19
ATOM     19  CA  UNL     1     -33.625  19.961   1.020  0.00  0.00    +0.172 C 
BRANCH  19  20
ATOM     20  C   UNL     1     -33.199  21.039   0.051  0.00  0.00    +0.004 C 
ATOM     21  C   UNL     1     -34.141  21.935  -0.425  0.00  0.00    -0.002 C 
ATOM     22  C   UNL     1     -31.872  21.110  -0.343  0.00  0.00    -0.002 C 
ATOM     23  C   UNL     1     -33.747  22.930  -1.319  0.00  0.00    -0.000 C 
ATOM     24  C   UNL     1     -31.478  22.105  -1.238  0.00  0.00    -0.000 C 
ATOM     25  C   UNL     1     -32.416  23.015  -1.726  0.00  0.00    -0.000 C 
ENDBRANCH  19  20
BRANCH  19  27
ATOM     26  O   UNL     1     -31.918  17.739   1.743  0.00  0.00    -0.275 OA
ATOM     27  N   UNL     1     -33.597  18.650   0.420  0.00  0.00    -0.295 N 
ATOM     28  C   UNL     1     -32.738  17.640   0.835  0.00  0.00    +0.223 C 
ATOM     29  H   UNL     1     -34.217  18.461  -0.321  0.00  0.00    +0.150 HD
BRANCH  28  30
ATOM     30  C   UNL     1     -32.933  16.371   0.026  0.00  0.00    +0.085 C 
ATOM     31  C   UNL     1     -33.958  16.536  -1.080  0.00  0.00    +0.010 C 
ENDBRANCH  28  30
ENDBRANCH  19  27
ENDBRANCH   3  19
TORSDOF 7
ENDMDL
