MODEL 1
REMARK VINA RESULT:      -6.5      0.000      0.000
REMARK  Name = 5273568
REMARK  9 active torsions:
REMARK  status: ('A' for Active; 'I' for Inactive)
REMARK    1  A    between atoms: O_1  and  C_4
REMARK    2  A    between atoms: O_1  and  C_22
REMARK    3  A    between atoms: C_6  and  O_13
REMARK    4  A    between atoms: C_8  and  O_15
REMARK    5  A    between atoms: C_18  and  O_23
REMARK    6  A    between atoms: C_19  and  O_25
REMARK    7  A    between atoms: C_20  and  O_27
REMARK    8  A    between atoms: C_21  and  C_29
REMARK    9  A    between atoms: C_29  and  O_30
REMARK                            x       y       z     vdW  Elec       q    Type
REMARK                         _______ _______ _______ _____ _____    ______ ____
ROOT
ATOM      1  O   UNL     1     -39.058  24.011   3.325  0.00  0.00    -0.444 OA
ENDROOT
BRANCH   1   4
ATOM      2  O   UNL     1     -40.420  25.788   1.741  0.00  0.00    -0.418 OA
ATOM      3  O   UNL     1     -41.204  27.899   1.326  0.00  0.00    -0.244 OA
ATOM      4  C   UNL     1     -39.609  23.568   2.153  0.00  0.00    +0.212 C 
ATOM      5  C   UNL     1     -40.306  24.444   1.329  0.00  0.00    +0.186 C 
ATOM      6  C   UNL     1     -39.476  22.237   1.779  0.00  0.00    +0.206 C 
ATOM      7  C   UNL     1     -40.875  24.019   0.132  0.00  0.00    +0.041 C 
ATOM      8  C   UNL     1     -40.042  21.792   0.582  0.00  0.00    +0.175 C 
ATOM      9  C   UNL     1     -40.740  22.680  -0.241  0.00  0.00    +0.043 C 
ATOM     10  C   UNL     1     -41.590  24.984  -0.686  0.00  0.00    +0.010 C 
ATOM     11  C   UNL     1     -41.694  26.255  -0.289  0.00  0.00    +0.082 C 
ATOM     12  C   UNL     1     -41.100  26.730   0.974  0.00  0.00    +0.346 C 
BRANCH   6  13
ATOM     13  O   UNL     1     -38.797  21.363   2.577  0.00  0.00    -0.501 OA
ATOM     14  H   UNL     1     -38.014  20.956   2.264  0.00  0.00    +0.292 HD
ENDBRANCH   6  13
BRANCH   8  15
ATOM     15  O   UNL     1     -39.919  20.488   0.203  0.00  0.00    -0.468 OA
ATOM     16  C   UNL     1     -38.880  20.178  -0.721  0.00  0.00    +0.253 C 
ENDBRANCH   8  15
ENDBRANCH   1   4
BRANCH   1  22
ATOM     17  O   UNL     1     -37.056  23.211   4.218  0.00  0.00    -0.316 OA
ATOM     18  C   UNL     1     -35.832  25.801   4.018  0.00  0.00    +0.173 C 
ATOM     19  C   UNL     1     -35.213  24.662   4.828  0.00  0.00    +0.169 C 
ATOM     20  C   UNL     1     -37.334  25.592   3.825  0.00  0.00    +0.210 C 
ATOM     21  C   UNL     1     -35.631  23.303   4.262  0.00  0.00    +0.177 C 
ATOM     22  C   UNL     1     -37.640  24.174   3.342  0.00  0.00    +0.318 C 
BRANCH  18  23
ATOM     23  O   UNL     1     -35.609  27.020   4.728  0.00  0.00    -0.379 OA
ATOM     24  H   UNL     1     -35.921  26.924   5.642  0.00  0.00    +0.211 HD
ENDBRANCH  18  23
BRANCH  19  25
ATOM     25  O   UNL     1     -33.793  24.772   4.788  0.00  0.00    -0.379 OA
ATOM     26  H   UNL     1     -33.398  24.029   5.272  0.00  0.00    +0.211 HD
ENDBRANCH  19  25
BRANCH  20  27
ATOM     27  O   UNL     1     -37.820  26.510   2.848  0.00  0.00    -0.377 OA
ATOM     28  H   UNL     1     -37.478  26.264   1.973  0.00  0.00    +0.211 HD
ENDBRANCH  20  27
BRANCH  21  29
ATOM     29  C   UNL     1     -35.122  22.152   5.122  0.00  0.00    +0.169 C 
BRANCH  29  30
ATOM     30  O   UNL     1     -36.038  21.941   6.182  0.00  0.00    -0.379 OA
ATOM     31  H   UNL     1     -36.621  21.197   5.963  0.00  0.00    +0.211 HD
ENDBRANCH  29  30
ENDBRANCH  21  29
ENDBRANCH   1  22
TORSDOF 9
ENDMDL
MODEL 2
REMARK VINA RESULT:      -6.0      2.065      2.765
REMARK  Name = 5273568
REMARK  9 active torsions:
REMARK  status: ('A' for Active; 'I' for Inactive)
REMARK    1  A    between atoms: O_1  and  C_4
REMARK    2  A    between atoms: O_1  and  C_22
REMARK    3  A    between atoms: C_6  and  O_13
REMARK    4  A    between atoms: C_8  and  O_15
REMARK    5  A    between atoms: C_18  and  O_23
REMARK    6  A    between atoms: C_19  and  O_25
REMARK    7  A    between atoms: C_20  and  O_27
REMARK    8  A    between atoms: C_21  and  C_29
REMARK    9  A    between atoms: C_29  and  O_30
REMARK                            x       y       z     vdW  Elec       q    Type
REMARK                         _______ _______ _______ _____ _____    ______ ____
ROOT
ATOM      1  O   UNL     1     -38.081  22.356   2.582  0.00  0.00    -0.444 OA
ENDROOT
BRANCH   1   4
ATOM      2  O   UNL     1     -38.897  23.503   0.229  0.00  0.00    -0.418 OA
ATOM      3  O   UNL     1     -39.882  25.224  -0.918  0.00  0.00    -0.244 OA
ATOM      4  C   UNL     1     -37.863  21.688   1.407  0.00  0.00    +0.212 C 
ATOM      5  C   UNL     1     -38.265  22.243   0.198  0.00  0.00    +0.186 C 
ATOM      6  C   UNL     1     -37.236  20.448   1.416  0.00  0.00    +0.206 C 
ATOM      7  C   UNL     1     -38.055  21.585  -1.010  0.00  0.00    +0.041 C 
ATOM      8  C   UNL     1     -37.018  19.773   0.212  0.00  0.00    +0.175 C 
ATOM      9  C   UNL     1     -37.425  20.339  -0.998  0.00  0.00    +0.043 C 
ATOM     10  C   UNL     1     -38.498  22.219  -2.240  0.00  0.00    +0.010 C 
ATOM     11  C   UNL     1     -39.097  23.412  -2.203  0.00  0.00    +0.082 C 
ATOM     12  C   UNL     1     -39.331  24.130  -0.936  0.00  0.00    +0.346 C 
BRANCH   6  13
ATOM     13  O   UNL     1     -36.836  19.888   2.593  0.00  0.00    -0.501 OA
ATOM     14  H   UNL     1     -36.672  18.968   2.641  0.00  0.00    +0.292 HD
ENDBRANCH   6  13
BRANCH   8  15
ATOM     15  O   UNL     1     -36.405  18.555   0.207  0.00  0.00    -0.468 OA
ATOM     16  C   UNL     1     -37.146  17.460  -0.326  0.00  0.00    +0.253 C 
ENDBRANCH   8  15
ENDBRANCH   1   4
BRANCH   1  22
ATOM     17  O   UNL     1     -36.516  22.366   4.312  0.00  0.00    -0.316 OA
ATOM     18  C   UNL     1     -36.315  25.229   4.230  0.00  0.00    +0.173 C 
ATOM     19  C   UNL     1     -35.749  24.400   5.383  0.00  0.00    +0.169 C 
ATOM     20  C   UNL     1     -37.411  24.466   3.485  0.00  0.00    +0.210 C 
ATOM     21  C   UNL     1     -35.380  22.992   4.910  0.00  0.00    +0.177 C 
ATOM     22  C   UNL     1     -36.964  23.045   3.141  0.00  0.00    +0.318 C 
BRANCH  18  23
ATOM     23  O   UNL     1     -36.859  26.431   4.777  0.00  0.00    -0.379 OA
ATOM     24  H   UNL     1     -37.816  26.456   4.616  0.00  0.00    +0.211 HD
ENDBRANCH  18  23
BRANCH  19  25
ATOM     25  O   UNL     1     -34.586  25.043   5.900  0.00  0.00    -0.379 OA
ATOM     26  H   UNL     1     -34.145  24.452   6.531  0.00  0.00    +0.211 HD
ENDBRANCH  19  25
BRANCH  20  27
ATOM     27  O   UNL     1     -37.718  25.145   2.268  0.00  0.00    -0.377 OA
ATOM     28  H   UNL     1     -37.339  26.039   2.292  0.00  0.00    +0.211 HD
ENDBRANCH  20  27
BRANCH  21  29
ATOM     29  C   UNL     1     -34.922  22.110   6.065  0.00  0.00    +0.169 C 
BRANCH  29  30
ATOM     30  O   UNL     1     -35.302  20.773   5.791  0.00  0.00    -0.379 OA
ATOM     31  H   UNL     1     -36.189  20.763   5.399  0.00  0.00    +0.211 HD
ENDBRANCH  29  30
ENDBRANCH  21  29
ENDBRANCH   1  22
TORSDOF 9
ENDMDL
MODEL 3
REMARK VINA RESULT:      -5.9      2.101      6.026
REMARK  Name = 5273568
REMARK  9 active torsions:
REMARK  status: ('A' for Active; 'I' for Inactive)
REMARK    1  A    between atoms: O_1  and  C_4
REMARK    2  A    between atoms: O_1  and  C_22
REMARK    3  A    between atoms: C_6  and  O_13
REMARK    4  A    between atoms: C_8  and  O_15
REMARK    5  A    between atoms: C_18  and  O_23
REMARK    6  A    between atoms: C_19  and  O_25
REMARK    7  A    between atoms: C_20  and  O_27
REMARK    8  A    between atoms: C_21  and  C_29
REMARK    9  A    between atoms: C_29  and  O_30
REMARK                            x       y       z     vdW  Elec       q    Type
REMARK                         _______ _______ _______ _____ _____    ______ ____
ROOT
ATOM      1  O   UNL     1     -37.621  24.454   1.597  0.00  0.00    -0.444 OA
ENDROOT
BRANCH   1   4
ATOM      2  O   UNL     1     -36.438  24.885   4.033  0.00  0.00    -0.418 OA
ATOM      3  O   UNL     1     -35.937  26.260   5.795  0.00  0.00    -0.244 OA
ATOM      4  C   UNL     1     -36.950  23.425   2.200  0.00  0.00    +0.212 C 
ATOM      5  C   UNL     1     -36.339  23.612   3.435  0.00  0.00    +0.186 C 
ATOM      6  C   UNL     1     -36.874  22.184   1.580  0.00  0.00    +0.206 C 
ATOM      7  C   UNL     1     -35.651  22.582   4.069  0.00  0.00    +0.041 C 
ATOM      8  C   UNL     1     -36.186  21.139   2.202  0.00  0.00    +0.175 C 
ATOM      9  C   UNL     1     -35.576  21.336   3.443  0.00  0.00    +0.043 C 
ATOM     10  C   UNL     1     -35.035  22.841   5.359  0.00  0.00    +0.010 C 
ATOM     11  C   UNL     1     -35.132  24.049   5.920  0.00  0.00    +0.082 C 
ATOM     12  C   UNL     1     -35.856  25.156   5.268  0.00  0.00    +0.346 C 
BRANCH   6  13
ATOM     13  O   UNL     1     -37.465  21.984   0.368  0.00  0.00    -0.501 OA
ATOM     14  H   UNL     1     -36.982  21.586  -0.328  0.00  0.00    +0.292 HD
ENDBRANCH   6  13
BRANCH   8  15
ATOM     15  O   UNL     1     -36.103  19.916   1.604  0.00  0.00    -0.468 OA
ATOM     16  C   UNL     1     -34.859  19.576   0.996  0.00  0.00    +0.253 C 
ENDBRANCH   8  15
ENDBRANCH   1   4
BRANCH   1  22
ATOM     17  O   UNL     1     -39.715  24.050   0.650  0.00  0.00    -0.316 OA
ATOM     18  C   UNL     1     -40.919  26.139   2.210  0.00  0.00    +0.173 C 
ATOM     19  C   UNL     1     -41.628  25.490   1.021  0.00  0.00    +0.169 C 
ATOM     20  C   UNL     1     -39.403  25.962   2.114  0.00  0.00    +0.210 C 
ATOM     21  C   UNL     1     -41.134  24.058   0.809  0.00  0.00    +0.177 C 
ATOM     22  C   UNL     1     -39.031  24.511   1.813  0.00  0.00    +0.318 C 
BRANCH  18  23
ATOM     23  O   UNL     1     -41.237  27.531   2.208  0.00  0.00    -0.379 OA
ATOM     24  H   UNL     1     -41.577  27.787   3.080  0.00  0.00    +0.211 HD
ENDBRANCH  18  23
BRANCH  19  25
ATOM     25  O   UNL     1     -43.033  25.473   1.262  0.00  0.00    -0.379 OA
ATOM     26  H   UNL     1     -43.494  25.880   0.511  0.00  0.00    +0.211 HD
ENDBRANCH  19  25
BRANCH  20  27
ATOM     27  O   UNL     1     -38.804  26.329   3.356  0.00  0.00    -0.377 OA
ATOM     28  H   UNL     1     -39.075  27.231   3.592  0.00  0.00    +0.211 HD
ENDBRANCH  20  27
BRANCH  21  29
ATOM     29  C   UNL     1     -41.741  23.430  -0.441  0.00  0.00    +0.169 C 
BRANCH  29  30
ATOM     30  O   UNL     1     -43.042  22.966  -0.127  0.00  0.00    -0.379 OA
ATOM     31  H   UNL     1     -42.990  22.325   0.599  0.00  0.00    +0.211 HD
ENDBRANCH  29  30
ENDBRANCH  21  29
ENDBRANCH   1  22
TORSDOF 9
ENDMDL
MODEL 4
REMARK VINA RESULT:      -5.9      2.700      6.522
REMARK  Name = 5273568
REMARK  9 active torsions:
REMARK  status: ('A' for Active; 'I' for Inactive)
REMARK    1  A    between atoms: O_1  and  C_4
REMARK    2  A    between atoms: O_1  and  C_22
REMARK    3  A    between atoms: C_6  and  O_13
REMARK    4  A    between atoms: C_8  and  O_15
REMARK    5  A    between atoms: C_18  and  O_23
REMARK    6  A    between atoms: C_19  and  O_25
REMARK    7  A    between atoms: C_20  and  O_27
REMARK    8  A    between atoms: C_21  and  C_29
REMARK    9  A    between atoms: C_29  and  O_30
REMARK                            x       y       z     vdW  Elec       q    Type
REMARK                         _______ _______ _______ _____ _____    ______ ____
ROOT
ATOM      1  O   UNL     1     -36.400  25.393   4.046  0.00  0.00    -0.444 OA
ENDROOT
BRANCH   1   4
ATOM      2  O   UNL     1     -34.135  26.730   4.819  0.00  0.00    -0.418 OA
ATOM      3  O   UNL     1     -32.354  26.988   6.236  0.00  0.00    -0.244 OA
ATOM      4  C   UNL     1     -35.992  26.480   3.322  0.00  0.00    +0.212 C 
ATOM      5  C   UNL     1     -34.847  27.179   3.689  0.00  0.00    +0.186 C 
ATOM      6  C   UNL     1     -36.719  26.893   2.213  0.00  0.00    +0.206 C 
ATOM      7  C   UNL     1     -34.410  28.287   2.970  0.00  0.00    +0.041 C 
ATOM      8  C   UNL     1     -36.296  28.004   1.480  0.00  0.00    +0.175 C 
ATOM      9  C   UNL     1     -35.144  28.700   1.856  0.00  0.00    +0.043 C 
ATOM     10  C   UNL     1     -33.206  28.974   3.404  0.00  0.00    +0.010 C 
ATOM     11  C   UNL     1     -32.536  28.543   4.476  0.00  0.00    +0.082 C 
ATOM     12  C   UNL     1     -32.979  27.371   5.254  0.00  0.00    +0.346 C 
BRANCH   6  13
ATOM     13  O   UNL     1     -37.845  26.221   1.840  0.00  0.00    -0.501 OA
ATOM     14  H   UNL     1     -37.921  25.304   2.013  0.00  0.00    +0.292 HD
ENDBRANCH   6  13
BRANCH   8  15
ATOM     15  O   UNL     1     -37.001  28.421   0.390  0.00  0.00    -0.468 OA
ATOM     16  C   UNL     1     -36.514  28.019  -0.888  0.00  0.00    +0.253 C 
ENDBRANCH   8  15
ENDBRANCH   1   4
BRANCH   1  22
ATOM     17  O   UNL     1     -37.112  23.533   2.830  0.00  0.00    -0.316 OA
ATOM     18  C   UNL     1     -35.360  21.795   4.298  0.00  0.00    +0.173 C 
ATOM     19  C   UNL     1     -36.478  21.265   3.401  0.00  0.00    +0.169 C 
ATOM     20  C   UNL     1     -35.635  23.235   4.734  0.00  0.00    +0.210 C 
ATOM     21  C   UNL     1     -36.790  22.256   2.277  0.00  0.00    +0.177 C 
ATOM     22  C   UNL     1     -36.022  24.112   3.544  0.00  0.00    +0.318 C 
BRANCH  18  23
ATOM     23  O   UNL     1     -35.283  20.956   5.451  0.00  0.00    -0.379 OA
ATOM     24  H   UNL     1     -36.062  21.100   6.010  0.00  0.00    +0.211 HD
ENDBRANCH  18  23
BRANCH  19  25
ATOM     25  O   UNL     1     -36.078  20.020   2.834  0.00  0.00    -0.379 OA
ATOM     26  H   UNL     1     -35.366  20.173   2.192  0.00  0.00    +0.211 HD
ENDBRANCH  19  25
BRANCH  20  27
ATOM     27  O   UNL     1     -34.460  23.783   5.330  0.00  0.00    -0.377 OA
ATOM     28  H   UNL     1     -34.619  23.935   6.276  0.00  0.00    +0.211 HD
ENDBRANCH  20  27
BRANCH  21  29
ATOM     29  C   UNL     1     -37.980  21.803   1.439  0.00  0.00    +0.169 C 
BRANCH  29  30
ATOM     30  O   UNL     1     -38.846  21.039   2.259  0.00  0.00    -0.379 OA
ATOM     31  H   UNL     1     -38.483  20.146   2.369  0.00  0.00    +0.211 HD
ENDBRANCH  29  30
ENDBRANCH  21  29
ENDBRANCH   1  22
TORSDOF 9
ENDMDL
MODEL 5
REMARK VINA RESULT:      -5.8      4.427      6.121
REMARK  Name = 5273568
REMARK  9 active torsions:
REMARK  status: ('A' for Active; 'I' for Inactive)
REMARK    1  A    between atoms: O_1  and  C_4
REMARK    2  A    between atoms: O_1  and  C_22
REMARK    3  A    between atoms: C_6  and  O_13
REMARK    4  A    between atoms: C_8  and  O_15
REMARK    5  A    between atoms: C_18  and  O_23
REMARK    6  A    between atoms: C_19  and  O_25
REMARK    7  A    between atoms: C_20  and  O_27
REMARK    8  A    between atoms: C_21  and  C_29
REMARK    9  A    between atoms: C_29  and  O_30
REMARK                            x       y       z     vdW  Elec       q    Type
REMARK                         _______ _______ _______ _____ _____    ______ ____
ROOT
ATOM      1  O   UNL     1     -35.401  22.260   1.405  0.00  0.00    -0.444 OA
ENDROOT
BRANCH   1   4
ATOM      2  O   UNL     1     -33.455  23.337  -0.199  0.00  0.00    -0.418 OA
ATOM      3  O   UNL     1     -32.570  25.109  -1.350  0.00  0.00    -0.244 OA
ATOM      4  C   UNL     1     -34.362  21.467   0.998  0.00  0.00    +0.212 C 
ATOM      5  C   UNL     1     -33.361  21.984   0.184  0.00  0.00    +0.186 C 
ATOM      6  C   UNL     1     -34.302  20.138   1.396  0.00  0.00    +0.206 C 
ATOM      7  C   UNL     1     -32.294  21.200  -0.243  0.00  0.00    +0.041 C 
ATOM      8  C   UNL     1     -33.238  19.335   0.976  0.00  0.00    +0.175 C 
ATOM      9  C   UNL     1     -32.236  19.863   0.159  0.00  0.00    +0.043 C 
ATOM     10  C   UNL     1     -31.278  21.799  -1.092  0.00  0.00    +0.010 C 
ATOM     11  C   UNL     1     -31.374  23.082  -1.451  0.00  0.00    +0.082 C 
ATOM     12  C   UNL     1     -32.495  23.934  -1.011  0.00  0.00    +0.346 C 
BRANCH   6  13
ATOM     13  O   UNL     1     -35.277  19.614   2.193  0.00  0.00    -0.501 OA
ATOM     14  H   UNL     1     -35.059  19.276   3.038  0.00  0.00    +0.292 HD
ENDBRANCH   6  13
BRANCH   8  15
ATOM     15  O   UNL     1     -33.168  18.028   1.359  0.00  0.00    -0.468 OA
ATOM     16  C   UNL     1     -33.334  17.046   0.339  0.00  0.00    +0.253 C 
ENDBRANCH   8  15
ENDBRANCH   1   4
BRANCH   1  22
ATOM     17  O   UNL     1     -35.508  22.444   3.728  0.00  0.00    -0.316 OA
ATOM     18  C   UNL     1     -35.905  25.283   3.572  0.00  0.00    +0.173 C 
ATOM     19  C   UNL     1     -36.134  24.494   4.860  0.00  0.00    +0.169 C 
ATOM     20  C   UNL     1     -35.994  24.378   2.343  0.00  0.00    +0.210 C 
ATOM     21  C   UNL     1     -35.260  23.237   4.890  0.00  0.00    +0.177 C 
ATOM     22  C   UNL     1     -35.153  23.114   2.521  0.00  0.00    +0.318 C 
BRANCH  18  23
ATOM     23  O   UNL     1     -36.908  26.296   3.490  0.00  0.00    -0.379 OA
ATOM     24  H   UNL     1     -36.600  27.095   3.948  0.00  0.00    +0.211 HD
ENDBRANCH  18  23
BRANCH  19  25
ATOM     25  O   UNL     1     -35.816  25.315   5.980  0.00  0.00    -0.379 OA
ATOM     26  H   UNL     1     -35.666  24.755   6.759  0.00  0.00    +0.211 HD
ENDBRANCH  19  25
BRANCH  20  27
ATOM     27  O   UNL     1     -35.510  25.080   1.199  0.00  0.00    -0.377 OA
ATOM     28  H   UNL     1     -35.710  24.570   0.398  0.00  0.00    +0.211 HD
ENDBRANCH  20  27
BRANCH  21  29
ATOM     29  C   UNL     1     -35.556  22.372   6.110  0.00  0.00    +0.169 C 
BRANCH  29  30
ATOM     30  O   UNL     1     -35.333  21.017   5.767  0.00  0.00    -0.379 OA
ATOM     31  H   UNL     1     -34.930  20.967   4.886  0.00  0.00    +0.211 HD
ENDBRANCH  29  30
ENDBRANCH  21  29
ENDBRANCH   1  22
TORSDOF 9
ENDMDL
MODEL 6
REMARK VINA RESULT:      -5.8      2.592      6.978
REMARK  Name = 5273568
REMARK  9 active torsions:
REMARK  status: ('A' for Active; 'I' for Inactive)
REMARK    1  A    between atoms: O_1  and  C_4
REMARK    2  A    between atoms: O_1  and  C_22
REMARK    3  A    between atoms: C_6  and  O_13
REMARK    4  A    between atoms: C_8  and  O_15
REMARK    5  A    between atoms: C_18  and  O_23
REMARK    6  A    between atoms: C_19  and  O_25
REMARK    7  A    between atoms: C_20  and  O_27
REMARK    8  A    between atoms: C_21  and  C_29
REMARK    9  A    between atoms: C_29  and  O_30
REMARK                            x       y       z     vdW  Elec       q    Type
REMARK                         _______ _______ _______ _____ _____    ______ ____
ROOT
ATOM      1  O   UNL     1     -38.110  22.309   2.166  0.00  0.00    -0.444 OA
ENDROOT
BRANCH   1   4
ATOM      2  O   UNL     1     -36.371  22.253   4.285  0.00  0.00    -0.418 OA
ATOM      3  O   UNL     1     -35.185  21.094   5.865  0.00  0.00    -0.244 OA
ATOM      4  C   UNL     1     -37.603  23.489   2.639  0.00  0.00    +0.212 C 
ATOM      5  C   UNL     1     -36.719  23.493   3.712  0.00  0.00    +0.186 C 
ATOM      6  C   UNL     1     -37.968  24.692   2.049  0.00  0.00    +0.206 C 
ATOM      7  C   UNL     1     -36.188  24.679   4.212  0.00  0.00    +0.041 C 
ATOM      8  C   UNL     1     -37.446  25.892   2.538  0.00  0.00    +0.175 C 
ATOM      9  C   UNL     1     -36.558  25.887   3.616  0.00  0.00    +0.043 C 
ATOM     10  C   UNL     1     -35.269  24.616   5.335  0.00  0.00    +0.010 C 
ATOM     11  C   UNL     1     -34.944  23.438   5.873  0.00  0.00    +0.082 C 
ATOM     12  C   UNL     1     -35.492  22.169   5.361  0.00  0.00    +0.346 C 
BRANCH   6  13
ATOM     13  O   UNL     1     -38.835  24.706   0.996  0.00  0.00    -0.501 OA
ATOM     14  H   UNL     1     -39.672  24.293   1.073  0.00  0.00    +0.292 HD
ENDBRANCH   6  13
BRANCH   8  15
ATOM     15  O   UNL     1     -37.797  27.080   1.968  0.00  0.00    -0.468 OA
ATOM     16  C   UNL     1     -36.773  27.796   1.281  0.00  0.00    +0.253 C 
ENDBRANCH   8  15
ENDBRANCH   1   4
BRANCH   1  22
ATOM     17  O   UNL     1     -37.888  21.920  -0.124  0.00  0.00    -0.316 OA
ATOM     18  C   UNL     1     -36.727  19.335   0.340  0.00  0.00    +0.173 C 
ATOM     19  C   UNL     1     -37.221  19.777  -1.037  0.00  0.00    +0.169 C 
ATOM     20  C   UNL     1     -37.397  20.141   1.454  0.00  0.00    +0.210 C 
ATOM     21  C   UNL     1     -37.151  21.299  -1.178  0.00  0.00    +0.177 C 
ATOM     22  C   UNL     1     -37.344  21.641   1.164  0.00  0.00    +0.318 C 
BRANCH  18  23
ATOM     23  O   UNL     1     -37.041  17.951   0.499  0.00  0.00    -0.379 OA
ATOM     24  H   UNL     1     -36.297  17.412   0.186  0.00  0.00    +0.211 HD
ENDBRANCH  18  23
BRANCH  19  25
ATOM     25  O   UNL     1     -36.413  19.173  -2.044  0.00  0.00    -0.379 OA
ATOM     26  H   UNL     1     -36.737  18.276  -2.223  0.00  0.00    +0.211 HD
ENDBRANCH  19  25
BRANCH  20  27
ATOM     27  O   UNL     1     -36.721  19.900   2.687  0.00  0.00    -0.377 OA
ATOM     28  H   UNL     1     -36.724  18.947   2.876  0.00  0.00    +0.211 HD
ENDBRANCH  20  27
BRANCH  21  29
ATOM     29  C   UNL     1     -37.747  21.773  -2.499  0.00  0.00    +0.169 C 
BRANCH  29  30
ATOM     30  O   UNL     1     -38.691  20.812  -2.938  0.00  0.00    -0.379 OA
ATOM     31  H   UNL     1     -38.253  20.169  -3.517  0.00  0.00    +0.211 HD
ENDBRANCH  29  30
ENDBRANCH  21  29
ENDBRANCH   1  22
TORSDOF 9
ENDMDL
MODEL 7
REMARK VINA RESULT:      -5.7      1.219      3.576
REMARK  Name = 5273568
REMARK  9 active torsions:
REMARK  status: ('A' for Active; 'I' for Inactive)
REMARK    1  A    between atoms: O_1  and  C_4
REMARK    2  A    between atoms: O_1  and  C_22
REMARK    3  A    between atoms: C_6  and  O_13
REMARK    4  A    between atoms: C_8  and  O_15
REMARK    5  A    between atoms: C_18  and  O_23
REMARK    6  A    between atoms: C_19  and  O_25
REMARK    7  A    between atoms: C_20  and  O_27
REMARK    8  A    between atoms: C_21  and  C_29
REMARK    9  A    between atoms: C_29  and  O_30
REMARK                            x       y       z     vdW  Elec       q    Type
REMARK                         _______ _______ _______ _____ _____    ______ ____
ROOT
ATOM      1  O   UNL     1     -38.895  24.434   3.740  0.00  0.00    -0.444 OA
ENDROOT
BRANCH   1   4
ATOM      2  O   UNL     1     -38.251  22.201   2.284  0.00  0.00    -0.418 OA
ATOM      3  O   UNL     1     -36.995  20.311   1.978  0.00  0.00    -0.244 OA
ATOM      4  C   UNL     1     -39.580  24.175   2.583  0.00  0.00    +0.212 C 
ATOM      5  C   UNL     1     -39.276  23.051   1.823  0.00  0.00    +0.186 C 
ATOM      6  C   UNL     1     -40.585  25.036   2.160  0.00  0.00    +0.206 C 
ATOM      7  C   UNL     1     -39.958  22.766   0.644  0.00  0.00    +0.041 C 
ATOM      8  C   UNL     1     -41.279  24.765   0.978  0.00  0.00    +0.175 C 
ATOM      9  C   UNL     1     -40.967  23.633   0.221  0.00  0.00    +0.043 C 
ATOM     10  C   UNL     1     -39.594  21.575  -0.105  0.00  0.00    +0.010 C 
ATOM     11  C   UNL     1     -38.621  20.774   0.338  0.00  0.00    +0.082 C 
ATOM     12  C   UNL     1     -37.885  21.055   1.584  0.00  0.00    +0.346 C 
BRANCH   6  13
ATOM     13  O   UNL     1     -40.895  26.144   2.893  0.00  0.00    -0.501 OA
ATOM     14  H   UNL     1     -40.813  26.995   2.511  0.00  0.00    +0.292 HD
ENDBRANCH   6  13
BRANCH   8  15
ATOM     15  O   UNL     1     -42.267  25.602   0.551  0.00  0.00    -0.468 OA
ATOM     16  C   UNL     1     -43.610  25.208   0.820  0.00  0.00    +0.253 C 
ENDBRANCH   8  15
ENDBRANCH   1   4
BRANCH   1  22
ATOM     17  O   UNL     1     -36.869  23.698   4.633  0.00  0.00    -0.316 OA
ATOM     18  C   UNL     1     -35.554  26.138   3.884  0.00  0.00    +0.173 C 
ATOM     19  C   UNL     1     -34.927  25.131   4.848  0.00  0.00    +0.169 C 
ATOM     20  C   UNL     1     -37.074  25.980   3.830  0.00  0.00    +0.210 C 
ATOM     21  C   UNL     1     -35.442  23.718   4.568  0.00  0.00    +0.177 C 
ATOM     22  C   UNL     1     -37.474  24.518   3.636  0.00  0.00    +0.318 C 
BRANCH  18  23
ATOM     23  O   UNL     1     -35.228  27.451   4.343  0.00  0.00    -0.379 OA
ATOM     24  H   UNL     1     -34.807  27.949   3.626  0.00  0.00    +0.211 HD
ENDBRANCH  18  23
BRANCH  19  25
ATOM     25  O   UNL     1     -33.510  25.154   4.697  0.00  0.00    -0.379 OA
ATOM     26  H   UNL     1     -33.091  25.111   5.572  0.00  0.00    +0.211 HD
ENDBRANCH  19  25
BRANCH  20  27
ATOM     27  O   UNL     1     -37.591  26.734   2.734  0.00  0.00    -0.377 OA
ATOM     28  H   UNL     1     -38.517  26.488   2.580  0.00  0.00    +0.211 HD
ENDBRANCH  20  27
BRANCH  21  29
ATOM     29  C   UNL     1     -34.921  22.714   5.590  0.00  0.00    +0.169 C 
BRANCH  29  30
ATOM     30  O   UNL     1     -36.026  22.057   6.182  0.00  0.00    -0.379 OA
ATOM     31  H   UNL     1     -35.717  21.492   6.909  0.00  0.00    +0.211 HD
ENDBRANCH  29  30
ENDBRANCH  21  29
ENDBRANCH   1  22
TORSDOF 9
ENDMDL
MODEL 8
REMARK VINA RESULT:      -5.6      2.556      5.297
REMARK  Name = 5273568
REMARK  9 active torsions:
REMARK  status: ('A' for Active; 'I' for Inactive)
REMARK    1  A    between atoms: O_1  and  C_4
REMARK    2  A    between atoms: O_1  and  C_22
REMARK    3  A    between atoms: C_6  and  O_13
REMARK    4  A    between atoms: C_8  and  O_15
REMARK    5  A    between atoms: C_18  and  O_23
REMARK    6  A    between atoms: C_19  and  O_25
REMARK    7  A    between atoms: C_20  and  O_27
REMARK    8  A    between atoms: C_21  and  C_29
REMARK    9  A    between atoms: C_29  and  O_30
REMARK                            x       y       z     vdW  Elec       q    Type
REMARK                         _______ _______ _______ _____ _____    ______ ____
ROOT
ATOM      1  O   UNL     1     -40.352  24.638   0.993  0.00  0.00    -0.444 OA
ENDROOT
BRANCH   1   4
ATOM      2  O   UNL     1     -42.962  24.124   0.330  0.00  0.00    -0.418 OA
ATOM      3  O   UNL     1     -44.523  22.999  -0.914  0.00  0.00    -0.244 OA
ATOM      4  C   UNL     1     -41.347  25.314   1.644  0.00  0.00    +0.212 C 
ATOM      5  C   UNL     1     -42.681  25.076   1.331  0.00  0.00    +0.186 C 
ATOM      6  C   UNL     1     -41.032  26.245   2.626  0.00  0.00    +0.206 C 
ATOM      7  C   UNL     1     -43.712  25.749   1.979  0.00  0.00    +0.041 C 
ATOM      8  C   UNL     1     -42.054  26.931   3.286  0.00  0.00    +0.175 C 
ATOM      9  C   UNL     1     -43.391  26.685   2.965  0.00  0.00    +0.043 C 
ATOM     10  C   UNL     1     -45.084  25.455   1.606  0.00  0.00    +0.010 C 
ATOM     11  C   UNL     1     -45.344  24.552   0.657  0.00  0.00    +0.082 C 
ATOM     12  C   UNL     1     -44.269  23.825  -0.044  0.00  0.00    +0.346 C 
BRANCH   6  13
ATOM     13  O   UNL     1     -39.729  26.493   2.945  0.00  0.00    -0.501 OA
ATOM     14  H   UNL     1     -39.260  25.896   3.494  0.00  0.00    +0.292 HD
ENDBRANCH   6  13
BRANCH   8  15
ATOM     15  O   UNL     1     -41.758  27.849   4.251  0.00  0.00    -0.468 OA
ATOM     16  C   UNL     1     -42.755  28.825   4.543  0.00  0.00    +0.253 C 
ENDBRANCH   8  15
ENDBRANCH   1   4
BRANCH   1  22
ATOM     17  O   UNL     1     -38.499  23.743   2.092  0.00  0.00    -0.316 OA
ATOM     18  C   UNL     1     -39.159  21.087   1.224  0.00  0.00    +0.173 C 
ATOM     19  C   UNL     1     -37.801  21.436   1.834  0.00  0.00    +0.169 C 
ATOM     20  C   UNL     1     -39.844  22.327   0.650  0.00  0.00    +0.210 C 
ATOM     21  C   UNL     1     -37.923  22.632   2.781  0.00  0.00    +0.177 C 
ATOM     22  C   UNL     1     -39.829  23.484   1.649  0.00  0.00    +0.318 C 
BRANCH  18  23
ATOM     23  O   UNL     1     -38.942  20.136   0.181  0.00  0.00    -0.379 OA
ATOM     24  H   UNL     1     -39.642  19.464   0.204  0.00  0.00    +0.211 HD
ENDBRANCH  18  23
BRANCH  19  25
ATOM     25  O   UNL     1     -37.305  20.313   2.557  0.00  0.00    -0.379 OA
ATOM     26  H   UNL     1     -37.555  20.394   3.491  0.00  0.00    +0.211 HD
ENDBRANCH  19  25
BRANCH  20  27
ATOM     27  O   UNL     1     -41.203  22.019   0.344  0.00  0.00    -0.377 OA
ATOM     28  H   UNL     1     -41.404  22.308  -0.561  0.00  0.00    +0.211 HD
ENDBRANCH  20  27
BRANCH  21  29
ATOM     29  C   UNL     1     -36.564  23.073   3.312  0.00  0.00    +0.169 C 
BRANCH  29  30
ATOM     30  O   UNL     1     -36.337  22.439   4.558  0.00  0.00    -0.379 OA
ATOM     31  H   UNL     1     -36.004  21.540   4.408  0.00  0.00    +0.211 HD
ENDBRANCH  29  30
ENDBRANCH  21  29
ENDBRANCH   1  22
TORSDOF 9
ENDMDL
MODEL 9
REMARK VINA RESULT:      -5.6      1.570      4.225
REMARK  Name = 5273568
REMARK  9 active torsions:
REMARK  status: ('A' for Active; 'I' for Inactive)
REMARK    1  A    between atoms: O_1  and  C_4
REMARK    2  A    between atoms: O_1  and  C_22
REMARK    3  A    between atoms: C_6  and  O_13
REMARK    4  A    between atoms: C_8  and  O_15
REMARK    5  A    between atoms: C_18  and  O_23
REMARK    6  A    between atoms: C_19  and  O_25
REMARK    7  A    between atoms: C_20  and  O_27
REMARK    8  A    between atoms: C_21  and  C_29
REMARK    9  A    between atoms: C_29  and  O_30
REMARK                            x       y       z     vdW  Elec       q    Type
REMARK                         _______ _______ _______ _____ _____    ______ ____
ROOT
ATOM      1  O   UNL     1     -37.641  24.399   1.960  0.00  0.00    -0.444 OA
ENDROOT
BRANCH   1   4
ATOM      2  O   UNL     1     -39.208  22.970   0.222  0.00  0.00    -0.418 OA
ATOM      3  O   UNL     1     -39.474  21.278  -1.298  0.00  0.00    -0.244 OA
ATOM      4  C   UNL     1     -38.956  24.749   1.811  0.00  0.00    +0.212 C 
ATOM      5  C   UNL     1     -39.776  24.044   0.938  0.00  0.00    +0.186 C 
ATOM      6  C   UNL     1     -39.481  25.813   2.534  0.00  0.00    +0.206 C 
ATOM      7  C   UNL     1     -41.116  24.379   0.768  0.00  0.00    +0.041 C 
ATOM      8  C   UNL     1     -40.823  26.164   2.376  0.00  0.00    +0.175 C 
ATOM      9  C   UNL     1     -41.640  25.450   1.496  0.00  0.00    +0.043 C 
ATOM     10  C   UNL     1     -41.921  23.603  -0.159  0.00  0.00    +0.010 C 
ATOM     11  C   UNL     1     -41.377  22.587  -0.834  0.00  0.00    +0.082 C 
ATOM     12  C   UNL     1     -39.959  22.212  -0.671  0.00  0.00    +0.346 C 
BRANCH   6  13
ATOM     13  O   UNL     1     -38.690  26.517   3.394  0.00  0.00    -0.501 OA
ATOM     14  H   UNL     1     -38.047  26.071   3.909  0.00  0.00    +0.292 HD
ENDBRANCH   6  13
BRANCH   8  15
ATOM     15  O   UNL     1     -41.351  27.207   3.078  0.00  0.00    -0.468 OA
ATOM     16  C   UNL     1     -42.581  26.973   3.758  0.00  0.00    +0.253 C 
ENDBRANCH   8  15
ENDBRANCH   1   4
BRANCH   1  22
ATOM     17  O   UNL     1     -36.297  24.745   3.836  0.00  0.00    -0.316 OA
ATOM     18  C   UNL     1     -36.091  21.921   4.316  0.00  0.00    +0.173 C 
ATOM     19  C   UNL     1     -35.189  22.939   5.014  0.00  0.00    +0.169 C 
ATOM     20  C   UNL     1     -36.667  22.489   3.018  0.00  0.00    +0.210 C 
ATOM     21  C   UNL     1     -35.888  24.296   5.129  0.00  0.00    +0.177 C 
ATOM     22  C   UNL     1     -37.258  23.881   3.234  0.00  0.00    +0.318 C 
BRANCH  18  23
ATOM     23  O   UNL     1     -35.307  20.765   4.023  0.00  0.00    -0.379 OA
ATOM     24  H   UNL     1     -34.947  20.400   4.847  0.00  0.00    +0.211 HD
ENDBRANCH  18  23
BRANCH  19  25
ATOM     25  O   UNL     1     -34.863  22.466   6.318  0.00  0.00    -0.379 OA
ATOM     26  H   UNL     1     -33.905  22.326   6.379  0.00  0.00    +0.211 HD
ENDBRANCH  19  25
BRANCH  20  27
ATOM     27  O   UNL     1     -37.704  21.631   2.544  0.00  0.00    -0.377 OA
ATOM     28  H   UNL     1     -38.563  21.962   2.852  0.00  0.00    +0.211 HD
ENDBRANCH  20  27
BRANCH  21  29
ATOM     29  C   UNL     1     -34.966  25.359   5.716  0.00  0.00    +0.169 C 
BRANCH  29  30
ATOM     30  O   UNL     1     -35.329  26.618   5.178  0.00  0.00    -0.379 OA
ATOM     31  H   UNL     1     -34.934  26.719   4.297  0.00  0.00    +0.211 HD
ENDBRANCH  29  30
ENDBRANCH  21  29
ENDBRANCH   1  22
TORSDOF 9
ENDMDL
