MODEL 1
REMARK VINA RESULT:      -5.8      0.000      0.000
REMARK  Name = 5271916
REMARK  6 active torsions:
REMARK  status: ('A' for Active; 'I' for Inactive)
REMARK    1  A    between atoms: C_1  and  N_16
REMARK    2  A    between atoms: C_2  and  N_7
REMARK    3  A    between atoms: C_3  and  C_22
REMARK    4  A    between atoms: N_7  and  C_10
REMARK    5  A    between atoms: C_17  and  O_19
REMARK    6  A    between atoms: C_22  and  O_23
REMARK                            x       y       z     vdW  Elec       q    Type
REMARK                         _______ _______ _______ _____ _____    ______ ____
ROOT
ATOM      1  C   UNL     1     -36.711  24.725   4.076  0.00  0.00    +0.071 C 
ATOM      2  C   UNL     1     -35.902  24.214   5.090  0.00  0.00    +0.098 C 
ATOM      3  C   UNL     1     -34.512  26.188   4.977  0.00  0.00    +0.077 C 
ATOM      4  C   UNL     1     -34.803  24.945   5.541  0.00  0.00    +0.027 C 
ATOM      5  C   UNL     1     -36.421  25.967   3.512  0.00  0.00    +0.016 C 
ATOM      6  C   UNL     1     -35.321  26.699   3.962  0.00  0.00    +0.008 C 
ENDROOT
BRANCH   1   8
ATOM      7  O   UNL     1     -36.988  22.782   1.781  0.00  0.00    -0.226 OA
ATOM      8  N   UNL     1     -37.817  24.009   3.610  0.00  0.00    -0.249 N 
ATOM      9  C   UNL     1     -37.882  23.124   2.543  0.00  0.00    +0.402 C 
ATOM     10  H   UNL     1     -38.657  24.151   4.102  0.00  0.00    +0.158 HD
BRANCH   9  11
ATOM     11  O   UNL     1     -39.146  22.632   2.417  0.00  0.00    -0.466 OA
ATOM     12  H   UNL     1     -39.882  23.178   2.609  0.00  0.00    +0.297 HD
ENDBRANCH   9  11
ENDBRANCH   1   8
BRANCH   3  14
ATOM     13  O   UNL     1     -32.704  26.698   6.458  0.00  0.00    -0.245 OA
ATOM     14  C   UNL     1     -33.366  26.950   5.446  0.00  0.00    +0.338 C 
BRANCH  14  15
ATOM     15  O   UNL     1     -33.078  28.007   4.638  0.00  0.00    -0.477 OA
ATOM     16  H   UNL     1     -32.260  28.040   4.183  0.00  0.00    +0.295 HD
ENDBRANCH  14  15
ENDBRANCH   3  14
BRANCH   2  17
ATOM     17  N   UNL     1     -36.175  22.969   5.672  0.00  0.00    -0.213 NA
BRANCH  17  20
ATOM     18  N   UNL     1     -34.563  21.364   6.193  0.00  0.00    -0.370 N 
ATOM     19  N   UNL     1     -35.466  21.286   4.098  0.00  0.00    -0.370 N 
ATOM     20  C   UNL     1     -35.455  21.934   5.315  0.00  0.00    +0.193 C 
ATOM     21  H   UNL     1     -34.459  21.734   7.099  0.00  0.00    +0.159 HD
ATOM     22  H   UNL     1     -34.027  20.587   5.914  0.00  0.00    +0.159 HD
ATOM     23  H   UNL     1     -36.063  21.598   3.381  0.00  0.00    +0.159 HD
ATOM     24  H   UNL     1     -34.876  20.513   3.947  0.00  0.00    +0.159 HD
ENDBRANCH  17  20
ENDBRANCH   2  17
TORSDOF 6
ENDMDL
MODEL 2
REMARK VINA RESULT:      -5.6      2.269      3.810
REMARK  Name = 5271916
REMARK  6 active torsions:
REMARK  status: ('A' for Active; 'I' for Inactive)
REMARK    1  A    between atoms: C_1  and  N_16
REMARK    2  A    between atoms: C_2  and  N_7
REMARK    3  A    between atoms: C_3  and  C_22
REMARK    4  A    between atoms: N_7  and  C_10
REMARK    5  A    between atoms: C_17  and  O_19
REMARK    6  A    between atoms: C_22  and  O_23
REMARK                            x       y       z     vdW  Elec       q    Type
REMARK                         _______ _______ _______ _____ _____    ______ ____
ROOT
ATOM      1  C   UNL     1     -36.440  22.254   3.554  0.00  0.00    +0.071 C 
ATOM      2  C   UNL     1     -37.041  23.439   3.129  0.00  0.00    +0.098 C 
ATOM      3  C   UNL     1     -35.857  24.658   4.847  0.00  0.00    +0.077 C 
ATOM      4  C   UNL     1     -36.750  24.641   3.775  0.00  0.00    +0.027 C 
ATOM      5  C   UNL     1     -35.548  22.271   4.626  0.00  0.00    +0.016 C 
ATOM      6  C   UNL     1     -35.256  23.473   5.273  0.00  0.00    +0.008 C 
ENDROOT
BRANCH   1   8
ATOM      7  O   UNL     1     -34.846  20.659   1.547  0.00  0.00    -0.226 OA
ATOM      8  N   UNL     1     -36.718  21.040   2.921  0.00  0.00    -0.249 N 
ATOM      9  C   UNL     1     -35.940  20.352   2.001  0.00  0.00    +0.402 C 
ATOM     10  H   UNL     1     -37.576  20.620   3.157  0.00  0.00    +0.158 HD
BRANCH   9  11
ATOM     11  O   UNL     1     -36.566  19.203   1.622  0.00  0.00    -0.466 OA
ATOM     12  H   UNL     1     -36.704  19.023   0.713  0.00  0.00    +0.297 HD
ENDBRANCH   9  11
ENDBRANCH   1   8
BRANCH   3  14
ATOM     13  O   UNL     1     -34.461  26.212   6.012  0.00  0.00    -0.245 OA
ATOM     14  C   UNL     1     -35.554  25.910   5.522  0.00  0.00    +0.338 C 
BRANCH  14  15
ATOM     15  O   UNL     1     -36.623  26.750   5.566  0.00  0.00    -0.477 OA
ATOM     16  H   UNL     1     -36.723  27.416   4.915  0.00  0.00    +0.295 HD
ENDBRANCH  14  15
ENDBRANCH   3  14
BRANCH   2  17
ATOM     17  N   UNL     1     -37.940  23.446   2.055  0.00  0.00    -0.213 NA
BRANCH  17  20
ATOM     18  N   UNL     1     -39.953  22.269   2.155  0.00  0.00    -0.370 N 
ATOM     19  N   UNL     1     -40.011  24.477   2.733  0.00  0.00    -0.370 N 
ATOM     20  C   UNL     1     -39.226  23.427   2.307  0.00  0.00    +0.193 C 
ATOM     21  H   UNL     1     -39.509  21.444   1.855  0.00  0.00    +0.159 HD
ATOM     22  H   UNL     1     -40.919  22.266   2.347  0.00  0.00    +0.159 HD
ATOM     23  H   UNL     1     -39.609  25.363   2.880  0.00  0.00    +0.159 HD
ATOM     24  H   UNL     1     -40.973  24.340   2.890  0.00  0.00    +0.159 HD
ENDBRANCH  17  20
ENDBRANCH   2  17
TORSDOF 6
ENDMDL
MODEL 3
REMARK VINA RESULT:      -5.5      2.990      5.157
REMARK  Name = 5271916
REMARK  6 active torsions:
REMARK  status: ('A' for Active; 'I' for Inactive)
REMARK    1  A    between atoms: C_1  and  N_16
REMARK    2  A    between atoms: C_2  and  N_7
REMARK    3  A    between atoms: C_3  and  C_22
REMARK    4  A    between atoms: N_7  and  C_10
REMARK    5  A    between atoms: C_17  and  O_19
REMARK    6  A    between atoms: C_22  and  O_23
REMARK                            x       y       z     vdW  Elec       q    Type
REMARK                         _______ _______ _______ _____ _____    ______ ____
ROOT
ATOM      1  C   UNL     1     -35.572  25.572   4.205  0.00  0.00    +0.071 C 
ATOM      2  C   UNL     1     -36.398  24.751   3.438  0.00  0.00    +0.098 C 
ATOM      3  C   UNL     1     -35.427  22.799   4.480  0.00  0.00    +0.077 C 
ATOM      4  C   UNL     1     -36.326  23.364   3.575  0.00  0.00    +0.027 C 
ATOM      5  C   UNL     1     -34.673  25.006   5.109  0.00  0.00    +0.016 C 
ATOM      6  C   UNL     1     -34.600  23.620   5.247  0.00  0.00    +0.008 C 
ENDROOT
BRANCH   1   8
ATOM      7  O   UNL     1     -33.992  27.473   2.471  0.00  0.00    -0.226 OA
ATOM      8  N   UNL     1     -35.629  26.963   4.083  0.00  0.00    -0.249 N 
ATOM      9  C   UNL     1     -34.871  27.786   3.262  0.00  0.00    +0.402 C 
ATOM     10  H   UNL     1     -36.291  27.416   4.653  0.00  0.00    +0.158 HD
BRANCH   9  11
ATOM     11  O   UNL     1     -35.234  29.087   3.438  0.00  0.00    -0.466 OA
ATOM     12  H   UNL     1     -35.781  29.510   2.806  0.00  0.00    +0.297 HD
ENDBRANCH   9  11
ENDBRANCH   1   8
BRANCH   3  14
ATOM     13  O   UNL     1     -35.238  20.547   3.694  0.00  0.00    -0.245 OA
ATOM     14  C   UNL     1     -35.351  21.353   4.623  0.00  0.00    +0.338 C 
BRANCH  14  15
ATOM     15  O   UNL     1     -35.416  20.955   5.923  0.00  0.00    -0.477 OA
ATOM     16  H   UNL     1     -35.606  20.061   6.130  0.00  0.00    +0.295 HD
ENDBRANCH  14  15
ENDBRANCH   3  14
BRANCH   2  17
ATOM     17  N   UNL     1     -37.308  25.297   2.524  0.00  0.00    -0.213 NA
BRANCH  17  20
ATOM     18  N   UNL     1     -39.408  24.834   1.616  0.00  0.00    -0.370 N 
ATOM     19  N   UNL     1     -39.279  25.030   3.886  0.00  0.00    -0.370 N 
ATOM     20  C   UNL     1     -38.588  25.070   2.694  0.00  0.00    +0.193 C 
ATOM     21  H   UNL     1     -39.035  24.834   0.705  0.00  0.00    +0.159 HD
ATOM     22  H   UNL     1     -40.368  24.664   1.755  0.00  0.00    +0.159 HD
ATOM     23  H   UNL     1     -38.806  25.184   4.735  0.00  0.00    +0.159 HD
ATOM     24  H   UNL     1     -40.247  24.848   3.888  0.00  0.00    +0.159 HD
ENDBRANCH  17  20
ENDBRANCH   2  17
TORSDOF 6
ENDMDL
MODEL 4
REMARK VINA RESULT:      -5.5      1.786      3.358
REMARK  Name = 5271916
REMARK  6 active torsions:
REMARK  status: ('A' for Active; 'I' for Inactive)
REMARK    1  A    between atoms: C_1  and  N_16
REMARK    2  A    between atoms: C_2  and  N_7
REMARK    3  A    between atoms: C_3  and  C_22
REMARK    4  A    between atoms: N_7  and  C_10
REMARK    5  A    between atoms: C_17  and  O_19
REMARK    6  A    between atoms: C_22  and  O_23
REMARK                            x       y       z     vdW  Elec       q    Type
REMARK                         _______ _______ _______ _____ _____    ______ ____
ROOT
ATOM      1  C   UNL     1     -35.908  22.987   4.132  0.00  0.00    +0.071 C 
ATOM      2  C   UNL     1     -36.227  24.226   3.579  0.00  0.00    +0.098 C 
ATOM      3  C   UNL     1     -34.643  25.295   5.059  0.00  0.00    +0.077 C 
ATOM      4  C   UNL     1     -35.594  25.381   4.042  0.00  0.00    +0.027 C 
ATOM      5  C   UNL     1     -34.957  22.901   5.149  0.00  0.00    +0.016 C 
ATOM      6  C   UNL     1     -34.325  24.055   5.612  0.00  0.00    +0.008 C 
ENDROOT
BRANCH   1   8
ATOM      7  O   UNL     1     -34.951  20.838   2.239  0.00  0.00    -0.226 OA
ATOM      8  N   UNL     1     -36.530  21.819   3.682  0.00  0.00    -0.249 N 
ATOM      9  C   UNL     1     -36.035  20.863   2.806  0.00  0.00    +0.402 C 
ATOM     10  H   UNL     1     -37.435  21.653   4.032  0.00  0.00    +0.158 HD
BRANCH   9  11
ATOM     11  O   UNL     1     -36.951  19.872   2.625  0.00  0.00    -0.466 OA
ATOM     12  H   UNL     1     -37.073  19.496   1.775  0.00  0.00    +0.297 HD
ENDBRANCH   9  11
ENDBRANCH   1   8
BRANCH   3  14
ATOM     13  O   UNL     1     -33.451  26.625   6.650  0.00  0.00    -0.245 OA
ATOM     14  C   UNL     1     -33.984  26.497   5.543  0.00  0.00    +0.338 C 
BRANCH  14  15
ATOM     15  O   UNL     1     -34.008  27.507   4.631  0.00  0.00    -0.477 OA
ATOM     16  H   UNL     1     -34.664  28.173   4.686  0.00  0.00    +0.295 HD
ENDBRANCH  14  15
ENDBRANCH   3  14
BRANCH   2  17
ATOM     17  N   UNL     1     -37.178  24.337   2.557  0.00  0.00    -0.213 NA
BRANCH  17  20
ATOM     18  N   UNL     1     -38.598  26.113   2.032  0.00  0.00    -0.370 N 
ATOM     19  N   UNL     1     -39.232  24.750   3.750  0.00  0.00    -0.370 N 
ATOM     20  C   UNL     1     -38.279  25.009   2.788  0.00  0.00    +0.193 C 
ATOM     21  H   UNL     1     -37.998  26.405   1.309  0.00  0.00    +0.159 HD
ATOM     22  H   UNL     1     -39.428  26.611   2.214  0.00  0.00    +0.159 HD
ATOM     23  H   UNL     1     -39.121  23.985   4.358  0.00  0.00    +0.159 HD
ATOM     24  H   UNL     1     -40.023  25.330   3.827  0.00  0.00    +0.159 HD
ENDBRANCH  17  20
ENDBRANCH   2  17
TORSDOF 6
ENDMDL
MODEL 5
REMARK VINA RESULT:      -5.4      3.203      4.640
REMARK  Name = 5271916
REMARK  6 active torsions:
REMARK  status: ('A' for Active; 'I' for Inactive)
REMARK    1  A    between atoms: C_1  and  N_16
REMARK    2  A    between atoms: C_2  and  N_7
REMARK    3  A    between atoms: C_3  and  C_22
REMARK    4  A    between atoms: N_7  and  C_10
REMARK    5  A    between atoms: C_17  and  O_19
REMARK    6  A    between atoms: C_22  and  O_23
REMARK                            x       y       z     vdW  Elec       q    Type
REMARK                         _______ _______ _______ _____ _____    ______ ____
ROOT
ATOM      1  C   UNL     1     -36.341  25.403   3.586  0.00  0.00    +0.071 C 
ATOM      2  C   UNL     1     -35.515  25.366   4.709  0.00  0.00    +0.098 C 
ATOM      3  C   UNL     1     -35.591  22.951   4.687  0.00  0.00    +0.077 C 
ATOM      4  C   UNL     1     -35.140  24.140   5.260  0.00  0.00    +0.027 C 
ATOM      5  C   UNL     1     -36.792  24.214   3.013  0.00  0.00    +0.016 C 
ATOM      6  C   UNL     1     -36.417  22.988   3.563  0.00  0.00    +0.008 C 
ENDROOT
BRANCH   1   8
ATOM      7  O   UNL     1     -34.975  27.158   1.543  0.00  0.00    -0.226 OA
ATOM      8  N   UNL     1     -36.727  26.621   3.018  0.00  0.00    -0.249 N 
ATOM      9  C   UNL     1     -36.052  27.384   2.077  0.00  0.00    +0.402 C 
ATOM     10  H   UNL     1     -37.589  26.982   3.327  0.00  0.00    +0.158 HD
BRANCH   9  11
ATOM     11  O   UNL     1     -36.767  28.505   1.781  0.00  0.00    -0.466 OA
ATOM     12  H   UNL     1     -37.193  28.983   2.464  0.00  0.00    +0.297 HD
ENDBRANCH   9  11
ENDBRANCH   1   8
BRANCH   3  14
ATOM     13  O   UNL     1     -35.049  20.622   4.629  0.00  0.00    -0.245 OA
ATOM     14  C   UNL     1     -35.202  21.673   5.260  0.00  0.00    +0.338 C 
BRANCH  14  15
ATOM     15  O   UNL     1     -35.014  21.742   6.606  0.00  0.00    -0.477 OA
ATOM     16  H   UNL     1     -35.086  22.565   7.048  0.00  0.00    +0.295 HD
ENDBRANCH  14  15
ENDBRANCH   3  14
BRANCH   2  17
ATOM     17  N   UNL     1     -35.050  26.548   5.301  0.00  0.00    -0.213 NA
BRANCH  17  20
ATOM     18  N   UNL     1     -33.018  27.100   6.307  0.00  0.00    -0.370 N 
ATOM     19  N   UNL     1     -33.046  26.968   4.029  0.00  0.00    -0.370 N 
ATOM     20  C   UNL     1     -33.780  26.853   5.190  0.00  0.00    +0.193 C 
ATOM     21  H   UNL     1     -33.425  27.049   7.202  0.00  0.00    +0.159 HD
ATOM     22  H   UNL     1     -32.065  27.329   6.212  0.00  0.00    +0.159 HD
ATOM     23  H   UNL     1     -33.477  26.815   3.157  0.00  0.00    +0.159 HD
ATOM     24  H   UNL     1     -32.092  27.204   4.072  0.00  0.00    +0.159 HD
ENDBRANCH  17  20
ENDBRANCH   2  17
TORSDOF 6
ENDMDL
MODEL 6
REMARK VINA RESULT:      -5.3      2.530      5.674
REMARK  Name = 5271916
REMARK  6 active torsions:
REMARK  status: ('A' for Active; 'I' for Inactive)
REMARK    1  A    between atoms: C_1  and  N_16
REMARK    2  A    between atoms: C_2  and  N_7
REMARK    3  A    between atoms: C_3  and  C_22
REMARK    4  A    between atoms: N_7  and  C_10
REMARK    5  A    between atoms: C_17  and  O_19
REMARK    6  A    between atoms: C_22  and  O_23
REMARK                            x       y       z     vdW  Elec       q    Type
REMARK                         _______ _______ _______ _____ _____    ______ ____
ROOT
ATOM      1  C   UNL     1     -36.414  23.402   4.083  0.00  0.00    +0.071 C 
ATOM      2  C   UNL     1     -37.086  23.210   2.876  0.00  0.00    +0.098 C 
ATOM      3  C   UNL     1     -35.933  21.109   2.566  0.00  0.00    +0.077 C 
ATOM      4  C   UNL     1     -36.846  22.064   2.118  0.00  0.00    +0.027 C 
ATOM      5  C   UNL     1     -35.502  22.447   4.532  0.00  0.00    +0.016 C 
ATOM      6  C   UNL     1     -35.261  21.301   3.774  0.00  0.00    +0.008 C 
ENDROOT
BRANCH   1   8
ATOM      7  O   UNL     1     -35.202  26.164   3.942  0.00  0.00    -0.226 OA
ATOM      8  N   UNL     1     -36.641  24.543   4.858  0.00  0.00    -0.249 N 
ATOM      9  C   UNL     1     -36.048  25.792   4.743  0.00  0.00    +0.402 C 
ATOM     10  H   UNL     1     -37.305  24.446   5.577  0.00  0.00    +0.158 HD
BRANCH   9  11
ATOM     11  O   UNL     1     -36.545  26.636   5.690  0.00  0.00    -0.466 OA
ATOM     12  H   UNL     1     -37.468  26.785   5.747  0.00  0.00    +0.297 HD
ENDBRANCH   9  11
ENDBRANCH   1   8
BRANCH   3  14
ATOM     13  O   UNL     1     -34.569  19.519   1.412  0.00  0.00    -0.245 OA
ATOM     14  C   UNL     1     -35.681  19.915   1.776  0.00  0.00    +0.338 C 
BRANCH  14  15
ATOM     15  O   UNL     1     -36.825  19.247   1.463  0.00  0.00    -0.477 OA
ATOM     16  H   UNL     1     -37.549  19.708   1.087  0.00  0.00    +0.295 HD
ENDBRANCH  14  15
ENDBRANCH   3  14
BRANCH   2  17
ATOM     17  N   UNL     1     -38.007  24.155   2.406  0.00  0.00    -0.213 NA
BRANCH  17  20
ATOM     18  N   UNL     1     -39.817  24.781   3.741  0.00  0.00    -0.370 N 
ATOM     19  N   UNL     1     -40.195  23.173   2.166  0.00  0.00    -0.370 N 
ATOM     20  C   UNL     1     -39.270  24.023   2.732  0.00  0.00    +0.193 C 
ATOM     21  H   UNL     1     -39.259  25.430   4.227  0.00  0.00    +0.159 HD
ATOM     22  H   UNL     1     -40.766  24.673   3.977  0.00  0.00    +0.159 HD
ATOM     23  H   UNL     1     -39.929  22.576   1.431  0.00  0.00    +0.159 HD
ATOM     24  H   UNL     1     -41.122  23.163   2.497  0.00  0.00    +0.159 HD
ENDBRANCH  17  20
ENDBRANCH   2  17
TORSDOF 6
ENDMDL
MODEL 7
REMARK VINA RESULT:      -5.3      1.569      3.118
REMARK  Name = 5271916
REMARK  6 active torsions:
REMARK  status: ('A' for Active; 'I' for Inactive)
REMARK    1  A    between atoms: C_1  and  N_16
REMARK    2  A    between atoms: C_2  and  N_7
REMARK    3  A    between atoms: C_3  and  C_22
REMARK    4  A    between atoms: N_7  and  C_10
REMARK    5  A    between atoms: C_17  and  O_19
REMARK    6  A    between atoms: C_22  and  O_23
REMARK                            x       y       z     vdW  Elec       q    Type
REMARK                         _______ _______ _______ _____ _____    ______ ____
ROOT
ATOM      1  C   UNL     1     -36.284  23.408   4.034  0.00  0.00    +0.071 C 
ATOM      2  C   UNL     1     -36.875  24.644   4.293  0.00  0.00    +0.098 C 
ATOM      3  C   UNL     1     -34.724  25.539   4.936  0.00  0.00    +0.077 C 
ATOM      4  C   UNL     1     -36.095  25.710   4.744  0.00  0.00    +0.027 C 
ATOM      5  C   UNL     1     -34.913  23.237   4.226  0.00  0.00    +0.016 C 
ATOM      6  C   UNL     1     -34.133  24.303   4.677  0.00  0.00    +0.008 C 
ENDROOT
BRANCH   1   8
ATOM      7  O   UNL     1     -37.188  22.651   1.255  0.00  0.00    -0.226 OA
ATOM      8  N   UNL     1     -37.046  22.328   3.582  0.00  0.00    -0.249 N 
ATOM      9  C   UNL     1     -37.432  22.032   2.282  0.00  0.00    +0.402 C 
ATOM     10  H   UNL     1     -37.349  21.698   4.274  0.00  0.00    +0.158 HD
BRANCH   9  11
ATOM     11  O   UNL     1     -38.169  20.887   2.260  0.00  0.00    -0.466 OA
ATOM     12  H   UNL     1     -37.811  20.107   1.883  0.00  0.00    +0.297 HD
ENDBRANCH   9  11
ENDBRANCH   1   8
BRANCH   3  14
ATOM     13  O   UNL     1     -33.403  26.739   6.529  0.00  0.00    -0.245 OA
ATOM     14  C   UNL     1     -33.911  26.649   5.407  0.00  0.00    +0.338 C 
BRANCH  14  15
ATOM     15  O   UNL     1     -33.754  27.617   4.463  0.00  0.00    -0.477 OA
ATOM     16  H   UNL     1     -34.125  27.504   3.610  0.00  0.00    +0.295 HD
ENDBRANCH  14  15
ENDBRANCH   3  14
BRANCH   2  17
ATOM     17  N   UNL     1     -38.249  24.839   4.107  0.00  0.00    -0.213 NA
BRANCH  17  20
ATOM     18  N   UNL     1     -39.835  26.209   3.081  0.00  0.00    -0.370 N 
ATOM     19  N   UNL     1     -38.027  25.597   1.830  0.00  0.00    -0.370 N 
ATOM     20  C   UNL     1     -38.657  25.501   3.052  0.00  0.00    +0.193 C 
ATOM     21  H   UNL     1     -40.382  26.222   3.899  0.00  0.00    +0.159 HD
ATOM     22  H   UNL     1     -40.132  26.703   2.282  0.00  0.00    +0.159 HD
ATOM     23  H   UNL     1     -37.172  25.134   1.680  0.00  0.00    +0.159 HD
ATOM     24  H   UNL     1     -38.433  26.129   1.108  0.00  0.00    +0.159 HD
ENDBRANCH  17  20
ENDBRANCH   2  17
TORSDOF 6
ENDMDL
MODEL 8
REMARK VINA RESULT:      -5.2      2.027      2.244
REMARK  Name = 5271916
REMARK  6 active torsions:
REMARK  status: ('A' for Active; 'I' for Inactive)
REMARK    1  A    between atoms: C_1  and  N_16
REMARK    2  A    between atoms: C_2  and  N_7
REMARK    3  A    between atoms: C_3  and  C_22
REMARK    4  A    between atoms: N_7  and  C_10
REMARK    5  A    between atoms: C_17  and  O_19
REMARK    6  A    between atoms: C_22  and  O_23
REMARK                            x       y       z     vdW  Elec       q    Type
REMARK                         _______ _______ _______ _____ _____    ______ ____
ROOT
ATOM      1  C   UNL     1     -36.545  25.778   3.614  0.00  0.00    +0.071 C 
ATOM      2  C   UNL     1     -35.591  25.048   4.321  0.00  0.00    +0.098 C 
ATOM      3  C   UNL     1     -33.850  25.951   2.909  0.00  0.00    +0.077 C 
ATOM      4  C   UNL     1     -34.243  25.134   3.969  0.00  0.00    +0.027 C 
ATOM      5  C   UNL     1     -36.152  26.595   2.554  0.00  0.00    +0.016 C 
ATOM      6  C   UNL     1     -34.805  26.681   2.201  0.00  0.00    +0.008 C 
ENDROOT
BRANCH   1   8
ATOM      7  O   UNL     1     -38.737  23.954   2.624  0.00  0.00    -0.226 OA
ATOM      8  N   UNL     1     -37.899  25.707   3.951  0.00  0.00    -0.249 N 
ATOM      9  C   UNL     1     -38.864  24.840   3.458  0.00  0.00    +0.402 C 
ATOM     10  H   UNL     1     -38.208  26.355   4.625  0.00  0.00    +0.158 HD
BRANCH   9  11
ATOM     11  O   UNL     1     -40.066  25.092   4.045  0.00  0.00    -0.466 OA
ATOM     12  H   UNL     1     -40.364  25.975   4.141  0.00  0.00    +0.297 HD
ENDBRANCH   9  11
ENDBRANCH   1   8
BRANCH   3  14
ATOM     13  O   UNL     1     -31.925  25.485   1.567  0.00  0.00    -0.245 OA
ATOM     14  C   UNL     1     -32.447  26.040   2.540  0.00  0.00    +0.338 C 
BRANCH  14  15
ATOM     15  O   UNL     1     -31.732  26.821   3.396  0.00  0.00    -0.477 OA
ATOM     16  H   UNL     1     -31.154  26.426   4.019  0.00  0.00    +0.295 HD
ENDBRANCH  14  15
ENDBRANCH   3  14
BRANCH   2  17
ATOM     17  N   UNL     1     -35.962  24.221   5.390  0.00  0.00    -0.213 NA
BRANCH  17  20
ATOM     18  N   UNL     1     -35.856  22.032   6.191  0.00  0.00    -0.370 N 
ATOM     19  N   UNL     1     -36.446  22.310   4.004  0.00  0.00    -0.370 N 
ATOM     20  C   UNL     1     -36.088  22.934   5.179  0.00  0.00    +0.193 C 
ATOM     21  H   UNL     1     -35.593  22.351   7.084  0.00  0.00    +0.159 HD
ATOM     22  H   UNL     1     -35.954  21.067   6.021  0.00  0.00    +0.159 HD
ATOM     23  H   UNL     1     -36.639  22.846   3.201  0.00  0.00    +0.159 HD
ATOM     24  H   UNL     1     -36.508  21.328   3.967  0.00  0.00    +0.159 HD
ENDBRANCH  17  20
ENDBRANCH   2  17
TORSDOF 6
ENDMDL
MODEL 9
REMARK VINA RESULT:      -5.2      2.468      3.399
REMARK  Name = 5271916
REMARK  6 active torsions:
REMARK  status: ('A' for Active; 'I' for Inactive)
REMARK    1  A    between atoms: C_1  and  N_16
REMARK    2  A    between atoms: C_2  and  N_7
REMARK    3  A    between atoms: C_3  and  C_22
REMARK    4  A    between atoms: N_7  and  C_10
REMARK    5  A    between atoms: C_17  and  O_19
REMARK    6  A    between atoms: C_22  and  O_23
REMARK                            x       y       z     vdW  Elec       q    Type
REMARK                         _______ _______ _______ _____ _____    ______ ____
ROOT
ATOM      1  C   UNL     1     -35.878  22.835   3.812  0.00  0.00    +0.071 C 
ATOM      2  C   UNL     1     -35.680  23.911   2.948  0.00  0.00    +0.098 C 
ATOM      3  C   UNL     1     -34.619  25.150   4.730  0.00  0.00    +0.077 C 
ATOM      4  C   UNL     1     -35.051  25.069   3.406  0.00  0.00    +0.027 C 
ATOM      5  C   UNL     1     -35.447  22.916   5.136  0.00  0.00    +0.016 C 
ATOM      6  C   UNL     1     -34.818  24.074   5.596  0.00  0.00    +0.008 C 
ENDROOT
BRANCH   1   8
ATOM      7  O   UNL     1     -34.799  20.461   2.290  0.00  0.00    -0.226 OA
ATOM      8  N   UNL     1     -36.506  21.666   3.372  0.00  0.00    -0.249 N 
ATOM      9  C   UNL     1     -35.952  20.604   2.673  0.00  0.00    +0.402 C 
ATOM     10  H   UNL     1     -37.463  21.588   3.587  0.00  0.00    +0.158 HD
BRANCH   9  11
ATOM     11  O   UNL     1     -36.899  19.654   2.435  0.00  0.00    -0.466 OA
ATOM     12  H   UNL     1     -37.111  19.028   3.099  0.00  0.00    +0.297 HD
ENDBRANCH   9  11
ENDBRANCH   1   8
BRANCH   3  14
ATOM     13  O   UNL     1     -33.271  26.438   6.229  0.00  0.00    -0.245 OA
ATOM     14  C   UNL     1     -33.964  26.357   5.210  0.00  0.00    +0.338 C 
BRANCH  14  15
ATOM     15  O   UNL     1     -34.192  27.428   4.403  0.00  0.00    -0.477 OA
ATOM     16  H   UNL     1     -34.978  27.473   3.894  0.00  0.00    +0.295 HD
ENDBRANCH  14  15
ENDBRANCH   3  14
BRANCH   2  17
ATOM     17  N   UNL     1     -36.104  23.851   1.614  0.00  0.00    -0.213 NA
BRANCH  17  20
ATOM     18  N   UNL     1     -35.202  24.767  -0.334  0.00  0.00    -0.370 N 
ATOM     19  N   UNL     1     -34.176  22.913   0.512  0.00  0.00    -0.370 N 
ATOM     20  C   UNL     1     -35.201  23.822   0.664  0.00  0.00    +0.193 C 
ATOM     21  H   UNL     1     -35.886  25.476  -0.340  0.00  0.00    +0.159 HD
ATOM     22  H   UNL     1     -34.519  24.736  -1.043  0.00  0.00    +0.159 HD
ATOM     23  H   UNL     1     -34.066  22.183   1.163  0.00  0.00    +0.159 HD
ATOM     24  H   UNL     1     -33.555  22.994  -0.247  0.00  0.00    +0.159 HD
ENDBRANCH  17  20
ENDBRANCH   2  17
TORSDOF 6
ENDMDL
