MODEL 1
REMARK VINA RESULT:      -4.3      0.000      0.000
REMARK  Name = 19395
REMARK  10 active torsions:
REMARK  status: ('A' for Active; 'I' for Inactive)
REMARK    1  A    between atoms: O_1  and  P_3
REMARK    2  A    between atoms: O_1  and  P_11
REMARK    3  A    between atoms: P_3  and  O_4
REMARK    4  A    between atoms: P_3  and  O_7
REMARK    5  A    between atoms: O_4  and  C_5
REMARK    6  A    between atoms: O_7  and  C_8
REMARK    7  A    between atoms: P_11  and  O_12
REMARK    8  A    between atoms: P_11  and  O_15
REMARK    9  A    between atoms: O_12  and  C_13
REMARK   10  A    between atoms: O_15  and  C_16
REMARK                            x       y       z     vdW  Elec       q    Type
REMARK                         _______ _______ _______ _____ _____    ______ ____
ROOT
ATOM      1  O   UNL     1     -37.084  23.362   2.956  0.00  0.00    -0.236 OA
ENDROOT
BRANCH   1   3
ATOM      2  S   UNL     1     -34.650  23.370   1.189  0.00  0.00    +0.023 S 
ATOM      3  P   UNL     1     -35.679  22.611   2.653  0.00  0.00    +0.316 P 
BRANCH   3   4
ATOM      4  O   UNL     1     -34.977  22.578   4.119  0.00  0.00    -0.297 OA
BRANCH   4   5
ATOM      5  C   UNL     1     -35.267  21.520   5.015  0.00  0.00    +0.151 C 
ATOM      6  C   UNL     1     -35.383  22.079   6.417  0.00  0.00    +0.035 C 
ENDBRANCH   4   5
ENDBRANCH   3   4
BRANCH   3   7
ATOM      7  O   UNL     1     -36.163  21.071   2.475  0.00  0.00    -0.297 OA
BRANCH   7   8
ATOM      8  C   UNL     1     -35.697  20.307   1.376  0.00  0.00    +0.151 C 
ATOM      9  C   UNL     1     -34.353  19.707   1.726  0.00  0.00    +0.035 C 
ENDBRANCH   7   8
ENDBRANCH   3   7
ENDBRANCH   1   3
BRANCH   1  11
ATOM     10  S   UNL     1     -36.968  26.289   2.269  0.00  0.00    +0.023 S 
ATOM     11  P   UNL     1     -37.486  24.848   3.467  0.00  0.00    +0.316 P 
BRANCH  11  12
ATOM     12  O   UNL     1     -39.068  24.687   3.800  0.00  0.00    -0.297 OA
BRANCH  12  13
ATOM     13  C   UNL     1     -40.028  24.916   2.782  0.00  0.00    +0.151 C 
ATOM     14  C   UNL     1     -40.890  26.097   3.174  0.00  0.00    +0.035 C 
ENDBRANCH  12  13
ENDBRANCH  11  12
BRANCH  11  15
ATOM     15  O   UNL     1     -36.827  24.870   4.953  0.00  0.00    -0.297 OA
BRANCH  15  16
ATOM     16  C   UNL     1     -36.107  26.011   5.386  0.00  0.00    +0.151 C 
ATOM     17  C   UNL     1     -34.658  25.628   5.598  0.00  0.00    +0.035 C 
ENDBRANCH  15  16
ENDBRANCH  11  15
ENDBRANCH   1  11
TORSDOF 10
ENDMDL
MODEL 2
REMARK VINA RESULT:      -4.3      2.182      5.574
REMARK  Name = 19395
REMARK  10 active torsions:
REMARK  status: ('A' for Active; 'I' for Inactive)
REMARK    1  A    between atoms: O_1  and  P_3
REMARK    2  A    between atoms: O_1  and  P_11
REMARK    3  A    between atoms: P_3  and  O_4
REMARK    4  A    between atoms: P_3  and  O_7
REMARK    5  A    between atoms: O_4  and  C_5
REMARK    6  A    between atoms: O_7  and  C_8
REMARK    7  A    between atoms: P_11  and  O_12
REMARK    8  A    between atoms: P_11  and  O_15
REMARK    9  A    between atoms: O_12  and  C_13
REMARK   10  A    between atoms: O_15  and  C_16
REMARK                            x       y       z     vdW  Elec       q    Type
REMARK                         _______ _______ _______ _____ _____    ______ ____
ROOT
ATOM      1  O   UNL     1     -38.461  24.547   3.810  0.00  0.00    -0.236 OA
ENDROOT
BRANCH   1   3
ATOM      2  S   UNL     1     -40.073  23.844   1.370  0.00  0.00    +0.023 S 
ATOM      3  P   UNL     1     -39.607  25.082   2.796  0.00  0.00    +0.316 P 
BRANCH   3   4
ATOM      4  O   UNL     1     -40.794  25.528   3.812  0.00  0.00    -0.297 OA
BRANCH   4   5
ATOM      5  C   UNL     1     -41.511  26.727   3.574  0.00  0.00    +0.151 C 
ATOM      6  C   UNL     1     -42.603  26.455   2.561  0.00  0.00    +0.035 C 
ENDBRANCH   4   5
ENDBRANCH   3   4
BRANCH   3   7
ATOM      7  O   UNL     1     -38.996  26.516   2.338  0.00  0.00    -0.297 OA
BRANCH   7   8
ATOM      8  C   UNL     1     -38.562  26.704   1.002  0.00  0.00    +0.151 C 
ATOM      9  C   UNL     1     -37.223  27.410   1.013  0.00  0.00    +0.035 C 
ENDBRANCH   7   8
ENDBRANCH   3   7
ENDBRANCH   1   3
BRANCH   1  11
ATOM     10  S   UNL     1     -36.210  23.774   1.969  0.00  0.00    +0.023 S 
ATOM     11  P   UNL     1     -36.852  24.366   3.707  0.00  0.00    +0.316 P 
BRANCH  11  12
ATOM     12  O   UNL     1     -36.303  25.791   4.259  0.00  0.00    -0.297 OA
BRANCH  12  13
ATOM     13  C   UNL     1     -35.930  25.921   5.621  0.00  0.00    +0.151 C 
ATOM     14  C   UNL     1     -34.422  26.028   5.711  0.00  0.00    +0.035 C 
ENDBRANCH  12  13
ENDBRANCH  11  12
BRANCH  11  15
ATOM     15  O   UNL     1     -36.555  23.378   4.963  0.00  0.00    -0.297 OA
BRANCH  15  16
ATOM     16  C   UNL     1     -35.564  22.372   4.847  0.00  0.00    +0.151 C 
ATOM     17  C   UNL     1     -35.095  21.980   6.233  0.00  0.00    +0.035 C 
ENDBRANCH  15  16
ENDBRANCH  11  15
ENDBRANCH   1  11
TORSDOF 10
ENDMDL
MODEL 3
REMARK VINA RESULT:      -4.2      2.320      4.926
REMARK  Name = 19395
REMARK  10 active torsions:
REMARK  status: ('A' for Active; 'I' for Inactive)
REMARK    1  A    between atoms: O_1  and  P_3
REMARK    2  A    between atoms: O_1  and  P_11
REMARK    3  A    between atoms: P_3  and  O_4
REMARK    4  A    between atoms: P_3  and  O_7
REMARK    5  A    between atoms: O_4  and  C_5
REMARK    6  A    between atoms: O_7  and  C_8
REMARK    7  A    between atoms: P_11  and  O_12
REMARK    8  A    between atoms: P_11  and  O_15
REMARK    9  A    between atoms: O_12  and  C_13
REMARK   10  A    between atoms: O_15  and  C_16
REMARK                            x       y       z     vdW  Elec       q    Type
REMARK                         _______ _______ _______ _____ _____    ______ ____
ROOT
ATOM      1  O   UNL     1     -35.835  25.211   4.145  0.00  0.00    -0.236 OA
ENDROOT
BRANCH   1   3
ATOM      2  S   UNL     1     -35.601  27.518   2.230  0.00  0.00    +0.023 S 
ATOM      3  P   UNL     1     -34.837  26.364   3.596  0.00  0.00    +0.316 P 
BRANCH   3   4
ATOM      4  O   UNL     1     -34.329  27.071   4.968  0.00  0.00    -0.297 OA
BRANCH   4   5
ATOM      5  C   UNL     1     -33.856  26.272   6.039  0.00  0.00    +0.151 C 
ATOM      6  C   UNL     1     -32.817  27.052   6.816  0.00  0.00    +0.035 C 
ENDBRANCH   4   5
ENDBRANCH   3   4
BRANCH   3   7
ATOM      7  O   UNL     1     -33.537  25.493   3.162  0.00  0.00    -0.297 OA
BRANCH   7   8
ATOM      8  C   UNL     1     -32.725  25.924   2.083  0.00  0.00    +0.151 C 
ATOM      9  C   UNL     1     -31.750  26.967   2.585  0.00  0.00    +0.035 C 
ENDBRANCH   7   8
ENDBRANCH   3   7
ENDBRANCH   1   3
BRANCH   1  11
ATOM     10  S   UNL     1     -36.446  23.843   1.536  0.00  0.00    +0.023 S 
ATOM     11  P   UNL     1     -36.772  24.093   3.437  0.00  0.00    +0.316 P 
BRANCH  11  12
ATOM     12  O   UNL     1     -36.571  22.804   4.404  0.00  0.00    -0.297 OA
BRANCH  12  13
ATOM     13  C   UNL     1     -35.296  22.535   4.963  0.00  0.00    +0.151 C 
ATOM     14  C   UNL     1     -35.464  22.165   6.421  0.00  0.00    +0.035 C 
ENDBRANCH  12  13
ENDBRANCH  11  12
BRANCH  11  15
ATOM     15  O   UNL     1     -38.258  24.602   3.855  0.00  0.00    -0.297 OA
BRANCH  15  16
ATOM     16  C   UNL     1     -38.962  25.491   3.005  0.00  0.00    +0.151 C 
ATOM     17  C   UNL     1     -40.111  24.748   2.357  0.00  0.00    +0.035 C 
ENDBRANCH  15  16
ENDBRANCH  11  15
ENDBRANCH   1  11
TORSDOF 10
ENDMDL
MODEL 4
REMARK VINA RESULT:      -4.2      1.785      3.276
REMARK  Name = 19395
REMARK  10 active torsions:
REMARK  status: ('A' for Active; 'I' for Inactive)
REMARK    1  A    between atoms: O_1  and  P_3
REMARK    2  A    between atoms: O_1  and  P_11
REMARK    3  A    between atoms: P_3  and  O_4
REMARK    4  A    between atoms: P_3  and  O_7
REMARK    5  A    between atoms: O_4  and  C_5
REMARK    6  A    between atoms: O_7  and  C_8
REMARK    7  A    between atoms: P_11  and  O_12
REMARK    8  A    between atoms: P_11  and  O_15
REMARK    9  A    between atoms: O_12  and  C_13
REMARK   10  A    between atoms: O_15  and  C_16
REMARK                            x       y       z     vdW  Elec       q    Type
REMARK                         _______ _______ _______ _____ _____    ______ ____
ROOT
ATOM      1  O   UNL     1     -37.977  24.766   3.688  0.00  0.00    -0.236 OA
ENDROOT
BRANCH   1   3
ATOM      2  S   UNL     1     -35.088  25.379   3.117  0.00  0.00    +0.023 S 
ATOM      3  P   UNL     1     -36.468  24.184   3.787  0.00  0.00    +0.316 P 
BRANCH   3   4
ATOM      4  O   UNL     1     -36.368  23.731   5.345  0.00  0.00    -0.297 OA
BRANCH   4   5
ATOM      5  C   UNL     1     -35.144  23.232   5.856  0.00  0.00    +0.151 C 
ATOM      6  C   UNL     1     -35.322  21.773   6.223  0.00  0.00    +0.035 C 
ENDBRANCH   4   5
ENDBRANCH   3   4
BRANCH   3   7
ATOM      7  O   UNL     1     -36.618  22.755   3.028  0.00  0.00    -0.297 OA
BRANCH   7   8
ATOM      8  C   UNL     1     -35.529  22.232   2.287  0.00  0.00    +0.151 C 
ATOM      9  C   UNL     1     -35.357  20.768   2.630  0.00  0.00    +0.035 C 
ENDBRANCH   7   8
ENDBRANCH   3   7
ENDBRANCH   1   3
BRANCH   1  11
ATOM     10  S   UNL     1     -38.101  25.516   0.777  0.00  0.00    +0.023 S 
ATOM     11  P   UNL     1     -38.982  25.104   2.461  0.00  0.00    +0.316 P 
BRANCH  11  12
ATOM     12  O   UNL     1     -39.998  23.837   2.481  0.00  0.00    -0.297 OA
BRANCH  12  13
ATOM     13  C   UNL     1     -39.990  22.912   1.406  0.00  0.00    +0.151 C 
ATOM     14  C   UNL     1     -39.603  21.546   1.934  0.00  0.00    +0.035 C 
ENDBRANCH  12  13
ENDBRANCH  11  12
BRANCH  11  15
ATOM     15  O   UNL     1     -39.897  26.283   3.105  0.00  0.00    -0.297 OA
BRANCH  15  16
ATOM     16  C   UNL     1     -41.291  26.311   2.850  0.00  0.00    +0.151 C 
ATOM     17  C   UNL     1     -41.969  27.156   3.908  0.00  0.00    +0.035 C 
ENDBRANCH  15  16
ENDBRANCH  11  15
ENDBRANCH   1  11
TORSDOF 10
ENDMDL
MODEL 5
REMARK VINA RESULT:      -4.2      2.072      3.552
REMARK  Name = 19395
REMARK  10 active torsions:
REMARK  status: ('A' for Active; 'I' for Inactive)
REMARK    1  A    between atoms: O_1  and  P_3
REMARK    2  A    between atoms: O_1  and  P_11
REMARK    3  A    between atoms: P_3  and  O_4
REMARK    4  A    between atoms: P_3  and  O_7
REMARK    5  A    between atoms: O_4  and  C_5
REMARK    6  A    between atoms: O_7  and  C_8
REMARK    7  A    between atoms: P_11  and  O_12
REMARK    8  A    between atoms: P_11  and  O_15
REMARK    9  A    between atoms: O_12  and  C_13
REMARK   10  A    between atoms: O_15  and  C_16
REMARK                            x       y       z     vdW  Elec       q    Type
REMARK                         _______ _______ _______ _____ _____    ______ ____
ROOT
ATOM      1  O   UNL     1     -38.235  24.652   3.772  0.00  0.00    -0.236 OA
ENDROOT
BRANCH   1   3
ATOM      2  S   UNL     1     -35.611  24.582   2.305  0.00  0.00    +0.023 S 
ATOM      3  P   UNL     1     -36.645  24.382   3.939  0.00  0.00    +0.316 P 
BRANCH   3   4
ATOM      4  O   UNL     1     -36.256  25.346   5.189  0.00  0.00    -0.297 OA
BRANCH   4   5
ATOM      5  C   UNL     1     -35.285  26.363   5.017  0.00  0.00    +0.151 C 
ATOM      6  C   UNL     1     -34.078  26.044   5.875  0.00  0.00    +0.035 C 
ENDBRANCH   4   5
ENDBRANCH   3   4
BRANCH   3   7
ATOM      7  O   UNL     1     -36.633  22.911   4.627  0.00  0.00    -0.297 OA
BRANCH   7   8
ATOM      8  C   UNL     1     -35.399  22.282   4.925  0.00  0.00    +0.151 C 
ATOM      9  C   UNL     1     -35.296  22.080   6.422  0.00  0.00    +0.035 C 
ENDBRANCH   7   8
ENDBRANCH   3   7
ENDBRANCH   1   3
BRANCH   1  11
ATOM     10  S   UNL     1     -39.245  23.927   1.032  0.00  0.00    +0.023 S 
ATOM     11  P   UNL     1     -39.178  25.143   2.548  0.00  0.00    +0.316 P 
BRANCH  11  12
ATOM     12  O   UNL     1     -40.580  25.477   3.298  0.00  0.00    -0.297 OA
BRANCH  12  13
ATOM     13  C   UNL     1     -41.439  26.475   2.773  0.00  0.00    +0.151 C 
ATOM     14  C   UNL     1     -42.010  27.287   3.917  0.00  0.00    +0.035 C 
ENDBRANCH  12  13
ENDBRANCH  11  12
BRANCH  11  15
ATOM     15  O   UNL     1     -38.586  26.629   2.258  0.00  0.00    -0.297 OA
BRANCH  15  16
ATOM     16  C   UNL     1     -38.189  26.984   0.945  0.00  0.00    +0.151 C 
ATOM     17  C   UNL     1     -36.951  27.853   1.023  0.00  0.00    +0.035 C 
ENDBRANCH  15  16
ENDBRANCH  11  15
ENDBRANCH   1  11
TORSDOF 10
ENDMDL
MODEL 6
REMARK VINA RESULT:      -4.2      2.165      5.367
REMARK  Name = 19395
REMARK  10 active torsions:
REMARK  status: ('A' for Active; 'I' for Inactive)
REMARK    1  A    between atoms: O_1  and  P_3
REMARK    2  A    between atoms: O_1  and  P_11
REMARK    3  A    between atoms: P_3  and  O_4
REMARK    4  A    between atoms: P_3  and  O_7
REMARK    5  A    between atoms: O_4  and  C_5
REMARK    6  A    between atoms: O_7  and  C_8
REMARK    7  A    between atoms: P_11  and  O_12
REMARK    8  A    between atoms: P_11  and  O_15
REMARK    9  A    between atoms: O_12  and  C_13
REMARK   10  A    between atoms: O_15  and  C_16
REMARK                            x       y       z     vdW  Elec       q    Type
REMARK                         _______ _______ _______ _____ _____    ______ ____
ROOT
ATOM      1  O   UNL     1     -37.824  24.414   3.869  0.00  0.00    -0.236 OA
ENDROOT
BRANCH   1   3
ATOM      2  S   UNL     1     -37.859  26.527   1.729  0.00  0.00    +0.023 S 
ATOM      3  P   UNL     1     -38.645  24.968   2.586  0.00  0.00    +0.316 P 
BRANCH   3   4
ATOM      4  O   UNL     1     -38.823  23.631   1.679  0.00  0.00    -0.297 OA
BRANCH   4   5
ATOM      5  C   UNL     1     -39.755  22.636   2.068  0.00  0.00    +0.151 C 
ATOM      6  C   UNL     1     -39.535  21.398   1.224  0.00  0.00    +0.035 C 
ENDBRANCH   4   5
ENDBRANCH   3   4
BRANCH   3   7
ATOM      7  O   UNL     1     -40.134  25.158   3.207  0.00  0.00    -0.297 OA
BRANCH   7   8
ATOM      8  C   UNL     1     -41.009  26.127   2.657  0.00  0.00    +0.151 C 
ATOM      9  C   UNL     1     -41.759  26.810   3.781  0.00  0.00    +0.035 C 
ENDBRANCH   7   8
ENDBRANCH   3   7
ENDBRANCH   1   3
BRANCH   1  11
ATOM     10  S   UNL     1     -35.085  23.786   2.794  0.00  0.00    +0.023 S 
ATOM     11  P   UNL     1     -36.251  24.323   4.255  0.00  0.00    +0.316 P 
BRANCH  11  12
ATOM     12  O   UNL     1     -35.974  25.771   4.937  0.00  0.00    -0.297 OA
BRANCH  12  13
ATOM     13  C   UNL     1     -34.729  26.417   4.735  0.00  0.00    +0.151 C 
ATOM     14  C   UNL     1     -33.883  26.259   5.980  0.00  0.00    +0.035 C 
ENDBRANCH  12  13
ENDBRANCH  11  12
BRANCH  11  15
ATOM     15  O   UNL     1     -36.289  23.340   5.548  0.00  0.00    -0.297 OA
BRANCH  15  16
ATOM     16  C   UNL     1     -35.084  22.791   6.051  0.00  0.00    +0.151 C 
ATOM     17  C   UNL     1     -35.080  21.297   5.801  0.00  0.00    +0.035 C 
ENDBRANCH  15  16
ENDBRANCH  11  15
ENDBRANCH   1  11
TORSDOF 10
ENDMDL
MODEL 7
REMARK VINA RESULT:      -4.2      1.759      5.002
REMARK  Name = 19395
REMARK  10 active torsions:
REMARK  status: ('A' for Active; 'I' for Inactive)
REMARK    1  A    between atoms: O_1  and  P_3
REMARK    2  A    between atoms: O_1  and  P_11
REMARK    3  A    between atoms: P_3  and  O_4
REMARK    4  A    between atoms: P_3  and  O_7
REMARK    5  A    between atoms: O_4  and  C_5
REMARK    6  A    between atoms: O_7  and  C_8
REMARK    7  A    between atoms: P_11  and  O_12
REMARK    8  A    between atoms: P_11  and  O_15
REMARK    9  A    between atoms: O_12  and  C_13
REMARK   10  A    between atoms: O_15  and  C_16
REMARK                            x       y       z     vdW  Elec       q    Type
REMARK                         _______ _______ _______ _____ _____    ______ ____
ROOT
ATOM      1  O   UNL     1     -35.750  23.060   2.623  0.00  0.00    -0.236 OA
ENDROOT
BRANCH   1   3
ATOM      2  S   UNL     1     -36.988  25.698   3.365  0.00  0.00    +0.023 S 
ATOM      3  P   UNL     1     -35.905  24.148   3.814  0.00  0.00    +0.316 P 
BRANCH   3   4
ATOM      4  O   UNL     1     -36.399  23.232   5.063  0.00  0.00    -0.297 OA
BRANCH   4   5
ATOM      5  C   UNL     1     -35.474  22.858   6.070  0.00  0.00    +0.151 C 
ATOM      6  C   UNL     1     -35.050  21.422   5.841  0.00  0.00    +0.035 C 
ENDBRANCH   4   5
ENDBRANCH   3   4
BRANCH   3   7
ATOM      7  O   UNL     1     -34.353  24.436   4.198  0.00  0.00    -0.297 OA
BRANCH   7   8
ATOM      8  C   UNL     1     -33.882  25.771   4.278  0.00  0.00    +0.151 C 
ATOM      9  C   UNL     1     -33.902  26.216   5.724  0.00  0.00    +0.035 C 
ENDBRANCH   7   8
ENDBRANCH   3   7
ENDBRANCH   1   3
BRANCH   1  11
ATOM     10  S   UNL     1     -37.054  23.661  -0.021  0.00  0.00    +0.023 S 
ATOM     11  P   UNL     1     -36.749  22.473   1.488  0.00  0.00    +0.316 P 
BRANCH  11  12
ATOM     12  O   UNL     1     -36.104  21.016   1.173  0.00  0.00    -0.297 OA
BRANCH  12  13
ATOM     13  C   UNL     1     -35.451  20.297   2.206  0.00  0.00    +0.151 C 
ATOM     14  C   UNL     1     -34.179  19.688   1.655  0.00  0.00    +0.035 C 
ENDBRANCH  12  13
ENDBRANCH  11  12
BRANCH  11  15
ATOM     15  O   UNL     1     -38.054  22.081   2.375  0.00  0.00    -0.297 OA
BRANCH  15  16
ATOM     16  C   UNL     1     -39.350  22.228   1.822  0.00  0.00    +0.151 C 
ATOM     17  C   UNL     1     -39.955  23.524   2.320  0.00  0.00    +0.035 C 
ENDBRANCH  15  16
ENDBRANCH  11  15
ENDBRANCH   1  11
TORSDOF 10
ENDMDL
MODEL 8
REMARK VINA RESULT:      -4.1      1.833      3.823
REMARK  Name = 19395
REMARK  10 active torsions:
REMARK  status: ('A' for Active; 'I' for Inactive)
REMARK    1  A    between atoms: O_1  and  P_3
REMARK    2  A    between atoms: O_1  and  P_11
REMARK    3  A    between atoms: P_3  and  O_4
REMARK    4  A    between atoms: P_3  and  O_7
REMARK    5  A    between atoms: O_4  and  C_5
REMARK    6  A    between atoms: O_7  and  C_8
REMARK    7  A    between atoms: P_11  and  O_12
REMARK    8  A    between atoms: P_11  and  O_15
REMARK    9  A    between atoms: O_12  and  C_13
REMARK   10  A    between atoms: O_15  and  C_16
REMARK                            x       y       z     vdW  Elec       q    Type
REMARK                         _______ _______ _______ _____ _____    ______ ____
ROOT
ATOM      1  O   UNL     1     -35.226  23.229   2.868  0.00  0.00    -0.236 OA
ENDROOT
BRANCH   1   3
ATOM      2  S   UNL     1     -36.101  22.955   0.003  0.00  0.00    +0.023 S 
ATOM      3  P   UNL     1     -35.968  22.250   1.810  0.00  0.00    +0.316 P 
BRANCH   3   4
ATOM      4  O   UNL     1     -35.166  20.850   2.006  0.00  0.00    -0.297 OA
BRANCH   4   5
ATOM      5  C   UNL     1     -34.266  20.408   1.004  0.00  0.00    +0.151 C 
ATOM      6  C   UNL     1     -33.623  19.114   1.455  0.00  0.00    +0.035 C 
ENDBRANCH   4   5
ENDBRANCH   3   4
BRANCH   3   7
ATOM      7  O   UNL     1     -37.370  21.947   2.573  0.00  0.00    -0.297 OA
BRANCH   7   8
ATOM      8  C   UNL     1     -38.555  21.751   1.820  0.00  0.00    +0.151 C 
ATOM      9  C   UNL     1     -39.528  22.868   2.133  0.00  0.00    +0.035 C 
ENDBRANCH   7   8
ENDBRANCH   3   7
ENDBRANCH   1   3
BRANCH   1  11
ATOM     10  S   UNL     1     -36.953  25.663   3.252  0.00  0.00    +0.023 S 
ATOM     11  P   UNL     1     -35.739  24.317   3.956  0.00  0.00    +0.316 P 
BRANCH  11  12
ATOM     12  O   UNL     1     -36.288  23.375   5.160  0.00  0.00    -0.297 OA
BRANCH  12  13
ATOM     13  C   UNL     1     -35.383  22.877   6.132  0.00  0.00    +0.151 C 
ATOM     14  C   UNL     1     -35.063  21.431   5.814  0.00  0.00    +0.035 C 
ENDBRANCH  12  13
ENDBRANCH  11  12
BRANCH  11  15
ATOM     15  O   UNL     1     -34.332  24.858   4.563  0.00  0.00    -0.297 OA
BRANCH  15  16
ATOM     16  C   UNL     1     -34.163  26.241   4.821  0.00  0.00    +0.151 C 
ATOM     17  C   UNL     1     -33.657  26.420   6.237  0.00  0.00    +0.035 C 
ENDBRANCH  15  16
ENDBRANCH  11  15
ENDBRANCH   1  11
TORSDOF 10
ENDMDL
MODEL 9
REMARK VINA RESULT:      -4.1      1.769      2.883
REMARK  Name = 19395
REMARK  10 active torsions:
REMARK  status: ('A' for Active; 'I' for Inactive)
REMARK    1  A    between atoms: O_1  and  P_3
REMARK    2  A    between atoms: O_1  and  P_11
REMARK    3  A    between atoms: P_3  and  O_4
REMARK    4  A    between atoms: P_3  and  O_7
REMARK    5  A    between atoms: O_4  and  C_5
REMARK    6  A    between atoms: O_7  and  C_8
REMARK    7  A    between atoms: P_11  and  O_12
REMARK    8  A    between atoms: P_11  and  O_15
REMARK    9  A    between atoms: O_12  and  C_13
REMARK   10  A    between atoms: O_15  and  C_16
REMARK                            x       y       z     vdW  Elec       q    Type
REMARK                         _______ _______ _______ _____ _____    ______ ____
ROOT
ATOM      1  O   UNL     1     -36.022  24.146   2.642  0.00  0.00    -0.236 OA
ENDROOT
BRANCH   1   3
ATOM      2  S   UNL     1     -35.863  23.196  -0.207  0.00  0.00    +0.023 S 
ATOM      3  P   UNL     1     -36.093  22.836   1.690  0.00  0.00    +0.316 P 
BRANCH   3   4
ATOM      4  O   UNL     1     -35.023  21.834   2.392  0.00  0.00    -0.297 OA
BRANCH   4   5
ATOM      5  C   UNL     1     -35.288  20.442   2.439  0.00  0.00    +0.151 C 
ATOM      6  C   UNL     1     -34.278  19.719   1.573  0.00  0.00    +0.035 C 
ENDBRANCH   4   5
ENDBRANCH   3   4
BRANCH   3   7
ATOM      7  O   UNL     1     -37.512  22.184   2.135  0.00  0.00    -0.297 OA
BRANCH   7   8
ATOM      8  C   UNL     1     -38.589  22.142   1.216  0.00  0.00    +0.151 C 
ATOM      9  C   UNL     1     -39.827  21.640   1.928  0.00  0.00    +0.035 C 
ENDBRANCH   7   8
ENDBRANCH   3   7
ENDBRANCH   1   3
BRANCH   1  11
ATOM     10  S   UNL     1     -35.771  26.053   4.956  0.00  0.00    +0.023 S 
ATOM     11  P   UNL     1     -36.599  24.508   4.114  0.00  0.00    +0.316 P 
BRANCH  11  12
ATOM     12  O   UNL     1     -38.201  24.567   3.857  0.00  0.00    -0.297 OA
BRANCH  12  13
ATOM     13  C   UNL     1     -38.739  25.554   2.993  0.00  0.00    +0.151 C 
ATOM     14  C   UNL     1     -40.250  25.463   3.019  0.00  0.00    +0.035 C 
ENDBRANCH  12  13
ENDBRANCH  11  12
BRANCH  11  15
ATOM     15  O   UNL     1     -36.432  23.087   4.887  0.00  0.00    -0.297 OA
BRANCH  15  16
ATOM     16  C   UNL     1     -35.439  22.943   5.888  0.00  0.00    +0.151 C 
ATOM     17  C   UNL     1     -35.019  21.491   5.961  0.00  0.00    +0.035 C 
ENDBRANCH  15  16
ENDBRANCH  11  15
ENDBRANCH   1  11
TORSDOF 10
ENDMDL
