MODEL 1
REMARK VINA RESULT:      -5.4      0.000      0.000
REMARK  Name = 5281081
REMARK  8 active torsions:
REMARK  status: ('A' for Active; 'I' for Inactive)
REMARK    1  A    between atoms: C_1  and  C_15
REMARK    2  A    between atoms: C_4  and  N_9
REMARK    3  A    between atoms: C_5  and  O_10
REMARK    4  A    between atoms: C_6  and  O_12
REMARK    5  A    between atoms: C_14  and  C_18
REMARK    6  A    between atoms: C_14  and  C_24
REMARK    7  A    between atoms: N_17  and  C_19
REMARK    8  A    between atoms: N_17  and  C_21
REMARK                            x       y       z     vdW  Elec       q    Type
REMARK                         _______ _______ _______ _____ _____    ______ ____
ROOT
ATOM      1  C   UNL     1     -40.466  25.330   2.733  0.00  0.00    +0.006 C 
ATOM      2  C   UNL     1     -41.023  26.227   3.633  0.00  0.00    +0.027 C 
ATOM      3  C   UNL     1     -40.962  25.205   1.444  0.00  0.00    +0.040 C 
ATOM      4  C   UNL     1     -42.101  27.017   3.234  0.00  0.00    +0.179 C 
ATOM      5  C   UNL     1     -42.041  25.995   1.046  0.00  0.00    +0.169 C 
ATOM      6  C   UNL     1     -42.610  26.902   1.940  0.00  0.00    +0.190 C 
ENDROOT
BRANCH   4   9
ATOM      7  O   UNL     1     -41.941  28.826   4.656  0.00  0.00    -0.126 OA
ATOM      8  O   UNL     1     -43.884  27.822   4.454  0.00  0.00    -0.126 OA
ATOM      9  N   UNL     1     -42.670  27.933   4.161  0.00  0.00    +0.061 N 
ENDBRANCH   4   9
BRANCH   5  10
ATOM     10  O   UNL     1     -42.527  25.873  -0.221  0.00  0.00    -0.503 OA
ATOM     11  H   UNL     1     -42.684  26.638  -0.739  0.00  0.00    +0.292 HD
ENDBRANCH   5  10
BRANCH   6  12
ATOM     12  O   UNL     1     -43.665  27.670   1.539  0.00  0.00    -0.502 OA
ATOM     13  H   UNL     1     -44.339  27.894   2.149  0.00  0.00    +0.292 HD
ENDBRANCH   6  12
BRANCH   1  15
ATOM     14  C   UNL     1     -38.025  24.800   3.023  0.00  0.00    +0.122 C 
ATOM     15  C   UNL     1     -39.329  24.498   3.153  0.00  0.00    +0.015 C 
BRANCH  14  18
ATOM     16  O   UNL     1     -36.862  22.781   2.814  0.00  0.00    -0.269 OA
ATOM     17  N   UNL     1     -36.152  24.214   4.511  0.00  0.00    -0.276 N 
ATOM     18  C   UNL     1     -36.964  23.839   3.439  0.00  0.00    +0.259 C 
BRANCH  17  19
ATOM     19  C   UNL     1     -35.095  23.313   4.952  0.00  0.00    +0.094 C 
ATOM     20  C   UNL     1     -35.559  22.431   6.093  0.00  0.00    +0.023 C 
ENDBRANCH  17  19
BRANCH  17  21
ATOM     21  C   UNL     1     -36.252  25.470   5.251  0.00  0.00    +0.094 C 
ATOM     22  C   UNL     1     -34.885  26.015   5.608  0.00  0.00    +0.023 C 
ENDBRANCH  17  21
ENDBRANCH  14  18
BRANCH  14  24
ATOM     23  N   UNL     1     -37.289  27.032   1.946  0.00  0.00    -0.191 NA
ATOM     24  C   UNL     1     -37.621  26.030   2.430  0.00  0.00    +0.105 C 
ENDBRANCH  14  24
ENDBRANCH   1  15
TORSDOF 8
ENDMDL
MODEL 2
REMARK VINA RESULT:      -5.4      4.312      6.555
REMARK  Name = 5281081
REMARK  8 active torsions:
REMARK  status: ('A' for Active; 'I' for Inactive)
REMARK    1  A    between atoms: C_1  and  C_15
REMARK    2  A    between atoms: C_4  and  N_9
REMARK    3  A    between atoms: C_5  and  O_10
REMARK    4  A    between atoms: C_6  and  O_12
REMARK    5  A    between atoms: C_14  and  C_18
REMARK    6  A    between atoms: C_14  and  C_24
REMARK    7  A    between atoms: N_17  and  C_19
REMARK    8  A    between atoms: N_17  and  C_21
REMARK                            x       y       z     vdW  Elec       q    Type
REMARK                         _______ _______ _______ _____ _____    ______ ____
ROOT
ATOM      1  C   UNL     1     -35.934  22.740   3.502  0.00  0.00    +0.006 C 
ATOM      2  C   UNL     1     -37.137  23.348   3.175  0.00  0.00    +0.027 C 
ATOM      3  C   UNL     1     -35.036  23.345   4.370  0.00  0.00    +0.040 C 
ATOM      4  C   UNL     1     -37.449  24.590   3.728  0.00  0.00    +0.179 C 
ATOM      5  C   UNL     1     -35.350  24.587   4.923  0.00  0.00    +0.169 C 
ATOM      6  C   UNL     1     -36.556  25.209   4.602  0.00  0.00    +0.190 C 
ENDROOT
BRANCH   4   9
ATOM      7  O   UNL     1     -38.662  26.327   2.815  0.00  0.00    -0.126 OA
ATOM      8  O   UNL     1     -39.754  24.622   3.666  0.00  0.00    -0.126 OA
ATOM      9  N   UNL     1     -38.683  25.211   3.387  0.00  0.00    +0.061 N 
ENDBRANCH   4   9
BRANCH   5  10
ATOM     10  O   UNL     1     -34.469  25.180   5.776  0.00  0.00    -0.503 OA
ATOM     11  H   UNL     1     -33.885  25.842   5.461  0.00  0.00    +0.292 HD
ENDBRANCH   5  10
BRANCH   6  12
ATOM     12  O   UNL     1     -36.851  26.425   5.149  0.00  0.00    -0.502 OA
ATOM     13  H   UNL     1     -36.541  26.640   6.007  0.00  0.00    +0.292 HD
ENDBRANCH   6  12
BRANCH   1  15
ATOM     14  C   UNL     1     -34.934  21.209   1.776  0.00  0.00    +0.122 C 
ATOM     15  C   UNL     1     -35.605  21.431   2.921  0.00  0.00    +0.015 C 
BRANCH  14  18
ATOM     16  O   UNL     1     -33.774  19.178   1.728  0.00  0.00    -0.269 OA
ATOM     17  N   UNL     1     -35.603  19.360   0.294  0.00  0.00    -0.276 N 
ATOM     18  C   UNL     1     -34.715  19.826   1.264  0.00  0.00    +0.259 C 
BRANCH  17  19
ATOM     19  C   UNL     1     -35.438  18.012  -0.235  0.00  0.00    +0.094 C 
ATOM     20  C   UNL     1     -34.602  18.010  -1.498  0.00  0.00    +0.023 C 
ENDBRANCH  17  19
BRANCH  17  21
ATOM     21  C   UNL     1     -36.731  20.112  -0.254  0.00  0.00    +0.094 C 
ATOM     22  C   UNL     1     -37.966  19.244  -0.384  0.00  0.00    +0.023 C 
ENDBRANCH  17  21
ENDBRANCH  14  18
BRANCH  14  24
ATOM     23  N   UNL     1     -34.079  23.185   0.345  0.00  0.00    -0.191 NA
ATOM     24  C   UNL     1     -34.463  22.299   0.989  0.00  0.00    +0.105 C 
ENDBRANCH  14  24
ENDBRANCH   1  15
TORSDOF 8
ENDMDL
MODEL 3
REMARK VINA RESULT:      -5.4      4.742      7.185
REMARK  Name = 5281081
REMARK  8 active torsions:
REMARK  status: ('A' for Active; 'I' for Inactive)
REMARK    1  A    between atoms: C_1  and  C_15
REMARK    2  A    between atoms: C_4  and  N_9
REMARK    3  A    between atoms: C_5  and  O_10
REMARK    4  A    between atoms: C_6  and  O_12
REMARK    5  A    between atoms: C_14  and  C_18
REMARK    6  A    between atoms: C_14  and  C_24
REMARK    7  A    between atoms: N_17  and  C_19
REMARK    8  A    between atoms: N_17  and  C_21
REMARK                            x       y       z     vdW  Elec       q    Type
REMARK                         _______ _______ _______ _____ _____    ______ ____
ROOT
ATOM      1  C   UNL     1     -34.876  25.459   4.285  0.00  0.00    +0.006 C 
ATOM      2  C   UNL     1     -34.794  24.288   5.023  0.00  0.00    +0.027 C 
ATOM      3  C   UNL     1     -35.785  25.590   3.245  0.00  0.00    +0.040 C 
ATOM      4  C   UNL     1     -35.640  23.223   4.715  0.00  0.00    +0.179 C 
ATOM      5  C   UNL     1     -36.631  24.524   2.937  0.00  0.00    +0.169 C 
ATOM      6  C   UNL     1     -36.558  23.341   3.672  0.00  0.00    +0.190 C 
ENDROOT
BRANCH   4   9
ATOM      7  O   UNL     1     -35.115  20.986   4.917  0.00  0.00    -0.126 OA
ATOM      8  O   UNL     1     -35.904  22.038   6.676  0.00  0.00    -0.126 OA
ATOM      9  N   UNL     1     -35.549  22.023   5.473  0.00  0.00    +0.061 N 
ENDBRANCH   4   9
BRANCH   5  10
ATOM     10  O   UNL     1     -37.524  24.653   1.917  0.00  0.00    -0.503 OA
ATOM     11  H   UNL     1     -38.099  23.945   1.705  0.00  0.00    +0.292 HD
ENDBRANCH   5  10
BRANCH   6  12
ATOM     12  O   UNL     1     -37.391  22.305   3.361  0.00  0.00    -0.502 OA
ATOM     13  H   UNL     1     -38.314  22.390   3.495  0.00  0.00    +0.292 HD
ENDBRANCH   6  12
BRANCH   1  15
ATOM     14  C   UNL     1     -32.929  27.001   3.892  0.00  0.00    +0.122 C 
ATOM     15  C   UNL     1     -33.986  26.583   4.611  0.00  0.00    +0.015 C 
BRANCH  14  18
ATOM     16  O   UNL     1     -31.056  27.845   5.011  0.00  0.00    -0.269 OA
ATOM     17  N   UNL     1     -32.472  29.417   4.030  0.00  0.00    -0.276 N 
ATOM     18  C   UNL     1     -32.068  28.123   4.364  0.00  0.00    +0.259 C 
BRANCH  17  19
ATOM     19  C   UNL     1     -31.662  30.549   4.461  0.00  0.00    +0.094 C 
ATOM     20  C   UNL     1     -31.885  30.864   5.926  0.00  0.00    +0.023 C 
ENDBRANCH  17  19
BRANCH  17  21
ATOM     21  C   UNL     1     -33.661  29.759   3.252  0.00  0.00    +0.094 C 
ATOM     22  C   UNL     1     -33.638  31.208   2.812  0.00  0.00    +0.023 C 
ENDBRANCH  17  21
ENDBRANCH  14  18
BRANCH  14  24
ATOM     23  N   UNL     1     -32.274  25.801   1.698  0.00  0.00    -0.191 NA
ATOM     24  C   UNL     1     -32.569  26.342   2.682  0.00  0.00    +0.105 C 
ENDBRANCH  14  24
ENDBRANCH   1  15
TORSDOF 8
ENDMDL
MODEL 4
REMARK VINA RESULT:      -5.4      4.363      6.890
REMARK  Name = 5281081
REMARK  8 active torsions:
REMARK  status: ('A' for Active; 'I' for Inactive)
REMARK    1  A    between atoms: C_1  and  C_15
REMARK    2  A    between atoms: C_4  and  N_9
REMARK    3  A    between atoms: C_5  and  O_10
REMARK    4  A    between atoms: C_6  and  O_12
REMARK    5  A    between atoms: C_14  and  C_18
REMARK    6  A    between atoms: C_14  and  C_24
REMARK    7  A    between atoms: N_17  and  C_19
REMARK    8  A    between atoms: N_17  and  C_21
REMARK                            x       y       z     vdW  Elec       q    Type
REMARK                         _______ _______ _______ _____ _____    ______ ____
ROOT
ATOM      1  C   UNL     1     -35.848  22.947   3.489  0.00  0.00    +0.006 C 
ATOM      2  C   UNL     1     -34.798  23.683   4.016  0.00  0.00    +0.027 C 
ATOM      3  C   UNL     1     -37.148  23.430   3.515  0.00  0.00    +0.040 C 
ATOM      4  C   UNL     1     -35.053  24.932   4.581  0.00  0.00    +0.179 C 
ATOM      5  C   UNL     1     -37.402  24.680   4.080  0.00  0.00    +0.169 C 
ATOM      6  C   UNL     1     -36.355  25.431   4.614  0.00  0.00    +0.190 C 
ENDROOT
BRANCH   4   9
ATOM      7  O   UNL     1     -34.055  26.100   6.302  0.00  0.00    -0.126 OA
ATOM      8  O   UNL     1     -32.968  25.902   4.405  0.00  0.00    -0.126 OA
ATOM      9  N   UNL     1     -33.972  25.682   5.123  0.00  0.00    +0.061 N 
ENDBRANCH   4   9
BRANCH   5  10
ATOM     10  O   UNL     1     -38.679  25.155   4.105  0.00  0.00    -0.503 OA
ATOM     11  H   UNL     1     -39.389  24.581   4.315  0.00  0.00    +0.292 HD
ENDBRANCH   5  10
BRANCH   6  12
ATOM     12  O   UNL     1     -36.616  26.652   5.165  0.00  0.00    -0.502 OA
ATOM     13  H   UNL     1     -36.766  27.393   4.612  0.00  0.00    +0.292 HD
ENDBRANCH   6  12
BRANCH   1  15
ATOM     14  C   UNL     1     -34.989  21.395   1.706  0.00  0.00    +0.122 C 
ATOM     15  C   UNL     1     -35.580  21.631   2.891  0.00  0.00    +0.015 C 
BRANCH  14  18
ATOM     16  O   UNL     1     -33.834  19.367   1.537  0.00  0.00    -0.269 OA
ATOM     17  N   UNL     1     -35.826  19.528   0.336  0.00  0.00    -0.276 N 
ATOM     18  C   UNL     1     -34.827  20.007   1.186  0.00  0.00    +0.259 C 
BRANCH  17  19
ATOM     19  C   UNL     1     -35.720  18.175  -0.195  0.00  0.00    +0.094 C 
ATOM     20  C   UNL     1     -37.056  17.460  -0.162  0.00  0.00    +0.023 C 
ENDBRANCH  17  19
BRANCH  17  21
ATOM     21  C   UNL     1     -37.015  20.270  -0.077  0.00  0.00    +0.094 C 
ATOM     22  C   UNL     1     -36.861  20.834  -1.475  0.00  0.00    +0.023 C 
ENDBRANCH  17  21
ENDBRANCH  14  18
BRANCH  14  24
ATOM     23  N   UNL     1     -34.195  23.357   0.223  0.00  0.00    -0.191 NA
ATOM     24  C   UNL     1     -34.550  22.474   0.887  0.00  0.00    +0.105 C 
ENDBRANCH  14  24
ENDBRANCH   1  15
TORSDOF 8
ENDMDL
MODEL 5
REMARK VINA RESULT:      -5.3      4.379      6.762
REMARK  Name = 5281081
REMARK  8 active torsions:
REMARK  status: ('A' for Active; 'I' for Inactive)
REMARK    1  A    between atoms: C_1  and  C_15
REMARK    2  A    between atoms: C_4  and  N_9
REMARK    3  A    between atoms: C_5  and  O_10
REMARK    4  A    between atoms: C_6  and  O_12
REMARK    5  A    between atoms: C_14  and  C_18
REMARK    6  A    between atoms: C_14  and  C_24
REMARK    7  A    between atoms: N_17  and  C_19
REMARK    8  A    between atoms: N_17  and  C_21
REMARK                            x       y       z     vdW  Elec       q    Type
REMARK                         _______ _______ _______ _____ _____    ______ ____
ROOT
ATOM      1  C   UNL     1     -35.867  22.978   3.309  0.00  0.00    +0.006 C 
ATOM      2  C   UNL     1     -34.804  23.707   3.820  0.00  0.00    +0.027 C 
ATOM      3  C   UNL     1     -37.169  23.450   3.397  0.00  0.00    +0.040 C 
ATOM      4  C   UNL     1     -35.048  24.937   4.432  0.00  0.00    +0.179 C 
ATOM      5  C   UNL     1     -37.412  24.680   4.009  0.00  0.00    +0.169 C 
ATOM      6  C   UNL     1     -36.351  25.423   4.527  0.00  0.00    +0.190 C 
ENDROOT
BRANCH   4   9
ATOM      7  O   UNL     1     -32.944  25.862   4.237  0.00  0.00    -0.126 OA
ATOM      8  O   UNL     1     -34.033  26.131   6.124  0.00  0.00    -0.126 OA
ATOM      9  N   UNL     1     -33.954  25.679   4.957  0.00  0.00    +0.061 N 
ENDBRANCH   4   9
BRANCH   5  10
ATOM     10  O   UNL     1     -38.690  25.144   4.093  0.00  0.00    -0.503 OA
ATOM     11  H   UNL     1     -38.856  26.065   4.078  0.00  0.00    +0.292 HD
ENDBRANCH   5  10
BRANCH   6  12
ATOM     12  O   UNL     1     -36.602  26.625   5.124  0.00  0.00    -0.502 OA
ATOM     13  H   UNL     1     -36.199  27.404   4.795  0.00  0.00    +0.292 HD
ENDBRANCH   6  12
BRANCH   1  15
ATOM     14  C   UNL     1     -35.554  21.446   1.340  0.00  0.00    +0.122 C 
ATOM     15  C   UNL     1     -35.611  21.683   2.663  0.00  0.00    +0.015 C 
BRANCH  14  18
ATOM     16  O   UNL     1     -36.313  19.309   0.765  0.00  0.00    -0.269 OA
ATOM     17  N   UNL     1     -34.051  19.738   0.396  0.00  0.00    -0.276 N 
ATOM     18  C   UNL     1     -35.343  20.068   0.811  0.00  0.00    +0.259 C 
BRANCH  17  19
ATOM     19  C   UNL     1     -33.793  18.407  -0.136  0.00  0.00    +0.094 C 
ATOM     20  C   UNL     1     -32.914  17.598   0.796  0.00  0.00    +0.023 C 
ENDBRANCH  17  19
BRANCH  17  21
ATOM     21  C   UNL     1     -32.896  20.633   0.432  0.00  0.00    +0.094 C 
ATOM     22  C   UNL     1     -32.527  21.119  -0.955  0.00  0.00    +0.023 C 
ENDBRANCH  17  21
ENDBRANCH  14  18
BRANCH  14  24
ATOM     23  N   UNL     1     -35.909  23.365  -0.355  0.00  0.00    -0.191 NA
ATOM     24  C   UNL     1     -35.751  22.502   0.405  0.00  0.00    +0.105 C 
ENDBRANCH  14  24
ENDBRANCH   1  15
TORSDOF 8
ENDMDL
MODEL 6
REMARK VINA RESULT:      -5.3      4.420      6.964
REMARK  Name = 5281081
REMARK  8 active torsions:
REMARK  status: ('A' for Active; 'I' for Inactive)
REMARK    1  A    between atoms: C_1  and  C_15
REMARK    2  A    between atoms: C_4  and  N_9
REMARK    3  A    between atoms: C_5  and  O_10
REMARK    4  A    between atoms: C_6  and  O_12
REMARK    5  A    between atoms: C_14  and  C_18
REMARK    6  A    between atoms: C_14  and  C_24
REMARK    7  A    between atoms: N_17  and  C_19
REMARK    8  A    between atoms: N_17  and  C_21
REMARK                            x       y       z     vdW  Elec       q    Type
REMARK                         _______ _______ _______ _____ _____    ______ ____
ROOT
ATOM      1  C   UNL     1     -35.507  23.868   2.624  0.00  0.00    +0.006 C 
ATOM      2  C   UNL     1     -34.525  24.601   3.273  0.00  0.00    +0.027 C 
ATOM      3  C   UNL     1     -36.851  24.058   2.908  0.00  0.00    +0.040 C 
ATOM      4  C   UNL     1     -34.896  25.547   4.229  0.00  0.00    +0.179 C 
ATOM      5  C   UNL     1     -37.222  25.005   3.864  0.00  0.00    +0.169 C 
ATOM      6  C   UNL     1     -36.244  25.749   4.524  0.00  0.00    +0.190 C 
ENDROOT
BRANCH   4   9
ATOM      7  O   UNL     1     -33.993  26.496   6.128  0.00  0.00    -0.126 OA
ATOM      8  O   UNL     1     -32.916  26.729   4.228  0.00  0.00    -0.126 OA
ATOM      9  N   UNL     1     -33.885  26.295   4.894  0.00  0.00    +0.061 N 
ENDBRANCH   4   9
BRANCH   5  10
ATOM     10  O   UNL     1     -38.542  25.193   4.142  0.00  0.00    -0.503 OA
ATOM     11  H   UNL     1     -38.813  25.388   5.017  0.00  0.00    +0.292 HD
ENDBRANCH   5  10
BRANCH   6  12
ATOM     12  O   UNL     1     -36.619  26.672   5.458  0.00  0.00    -0.502 OA
ATOM     13  H   UNL     1     -37.494  27.006   5.460  0.00  0.00    +0.292 HD
ENDBRANCH   6  12
BRANCH   1  15
ATOM     14  C   UNL     1     -34.919  21.557   1.824  0.00  0.00    +0.122 C 
ATOM     15  C   UNL     1     -35.117  22.872   1.616  0.00  0.00    +0.015 C 
BRANCH  14  18
ATOM     16  O   UNL     1     -33.295  20.748   0.347  0.00  0.00    -0.269 OA
ATOM     17  N   UNL     1     -35.410  19.775   0.197  0.00  0.00    -0.276 N 
ATOM     18  C   UNL     1     -34.466  20.661   0.722  0.00  0.00    +0.259 C 
BRANCH  17  19
ATOM     19  C   UNL     1     -35.017  18.872  -0.877  0.00  0.00    +0.094 C 
ATOM     20  C   UNL     1     -34.857  17.451  -0.376  0.00  0.00    +0.023 C 
ENDBRANCH  17  19
BRANCH  17  21
ATOM     21  C   UNL     1     -36.796  19.652   0.642  0.00  0.00    +0.094 C 
ATOM     22  C   UNL     1     -37.748  20.352  -0.307  0.00  0.00    +0.023 C 
ENDBRANCH  17  21
ENDBRANCH  14  18
BRANCH  14  24
ATOM     23  N   UNL     1     -35.212  20.541   4.182  0.00  0.00    -0.191 NA
ATOM     24  C   UNL     1     -35.082  20.996   3.122  0.00  0.00    +0.105 C 
ENDBRANCH  14  24
ENDBRANCH   1  15
TORSDOF 8
ENDMDL
MODEL 7
REMARK VINA RESULT:      -5.3      4.386      6.673
REMARK  Name = 5281081
REMARK  8 active torsions:
REMARK  status: ('A' for Active; 'I' for Inactive)
REMARK    1  A    between atoms: C_1  and  C_15
REMARK    2  A    between atoms: C_4  and  N_9
REMARK    3  A    between atoms: C_5  and  O_10
REMARK    4  A    between atoms: C_6  and  O_12
REMARK    5  A    between atoms: C_14  and  C_18
REMARK    6  A    between atoms: C_14  and  C_24
REMARK    7  A    between atoms: N_17  and  C_19
REMARK    8  A    between atoms: N_17  and  C_21
REMARK                            x       y       z     vdW  Elec       q    Type
REMARK                         _______ _______ _______ _____ _____    ______ ____
ROOT
ATOM      1  C   UNL     1     -37.842  22.896   2.755  0.00  0.00    +0.006 C 
ATOM      2  C   UNL     1     -36.676  22.833   3.502  0.00  0.00    +0.027 C 
ATOM      3  C   UNL     1     -38.606  24.053   2.712  0.00  0.00    +0.040 C 
ATOM      4  C   UNL     1     -36.263  23.954   4.223  0.00  0.00    +0.179 C 
ATOM      5  C   UNL     1     -38.192  25.174   3.433  0.00  0.00    +0.169 C 
ATOM      6  C   UNL     1     -37.021  25.124   4.188  0.00  0.00    +0.190 C 
ENDROOT
BRANCH   4   9
ATOM      7  O   UNL     1     -35.013  23.087   5.957  0.00  0.00    -0.126 OA
ATOM      8  O   UNL     1     -34.101  24.620   4.675  0.00  0.00    -0.126 OA
ATOM      9  N   UNL     1     -35.066  23.884   4.990  0.00  0.00    +0.061 N 
ENDBRANCH   4   9
BRANCH   5  10
ATOM     10  O   UNL     1     -38.942  26.311   3.390  0.00  0.00    -0.503 OA
ATOM     11  H   UNL     1     -38.903  26.869   2.639  0.00  0.00    +0.292 HD
ENDBRANCH   5  10
BRANCH   6  12
ATOM     12  O   UNL     1     -36.626  26.227   4.890  0.00  0.00    -0.502 OA
ATOM     13  H   UNL     1     -36.940  27.075   4.644  0.00  0.00    +0.292 HD
ENDBRANCH   6  12
BRANCH   1  15
ATOM     14  C   UNL     1     -38.080  21.490   0.683  0.00  0.00    +0.122 C 
ATOM     15  C   UNL     1     -38.278  21.716   1.995  0.00  0.00    +0.015 C 
BRANCH  14  18
ATOM     16  O   UNL     1     -39.819  20.267  -0.292  0.00  0.00    -0.269 OA
ATOM     17  N   UNL     1     -37.734  19.224  -0.215  0.00  0.00    -0.276 N 
ATOM     18  C   UNL     1     -38.625  20.274   0.017  0.00  0.00    +0.259 C 
BRANCH  17  19
ATOM     19  C   UNL     1     -38.215  18.014  -0.869  0.00  0.00    +0.094 C 
ATOM     20  C   UNL     1     -37.742  16.768  -0.149  0.00  0.00    +0.023 C 
ENDBRANCH  17  19
BRANCH  17  21
ATOM     21  C   UNL     1     -36.315  19.224   0.134  0.00  0.00    +0.094 C 
ATOM     22  C   UNL     1     -35.445  19.473  -1.081  0.00  0.00    +0.023 C 
ENDBRANCH  17  21
ENDBRANCH  14  18
BRANCH  14  24
ATOM     23  N   UNL     1     -36.823  23.220  -0.770  0.00  0.00    -0.191 NA
ATOM     24  C   UNL     1     -37.388  22.442  -0.119  0.00  0.00    +0.105 C 
ENDBRANCH  14  24
ENDBRANCH   1  15
TORSDOF 8
ENDMDL
MODEL 8
REMARK VINA RESULT:      -5.2      3.705      6.477
REMARK  Name = 5281081
REMARK  8 active torsions:
REMARK  status: ('A' for Active; 'I' for Inactive)
REMARK    1  A    between atoms: C_1  and  C_15
REMARK    2  A    between atoms: C_4  and  N_9
REMARK    3  A    between atoms: C_5  and  O_10
REMARK    4  A    between atoms: C_6  and  O_12
REMARK    5  A    between atoms: C_14  and  C_18
REMARK    6  A    between atoms: C_14  and  C_24
REMARK    7  A    between atoms: N_17  and  C_19
REMARK    8  A    between atoms: N_17  and  C_21
REMARK                            x       y       z     vdW  Elec       q    Type
REMARK                         _______ _______ _______ _____ _____    ______ ____
ROOT
ATOM      1  C   UNL     1     -35.321  25.208   4.910  0.00  0.00    +0.006 C 
ATOM      2  C   UNL     1     -36.513  25.620   4.333  0.00  0.00    +0.027 C 
ATOM      3  C   UNL     1     -34.958  23.869   4.927  0.00  0.00    +0.040 C 
ATOM      4  C   UNL     1     -37.361  24.672   3.759  0.00  0.00    +0.179 C 
ATOM      5  C   UNL     1     -35.806  22.922   4.353  0.00  0.00    +0.169 C 
ATOM      6  C   UNL     1     -37.007  23.324   3.769  0.00  0.00    +0.190 C 
ENDROOT
BRANCH   4   9
ATOM      7  O   UNL     1     -38.549  25.959   2.258  0.00  0.00    -0.126 OA
ATOM      8  O   UNL     1     -39.659  24.606   3.584  0.00  0.00    -0.126 OA
ATOM      9  N   UNL     1     -38.583  25.101   3.172  0.00  0.00    +0.061 N 
ENDBRANCH   4   9
BRANCH   5  10
ATOM     10  O   UNL     1     -35.448  21.607   4.368  0.00  0.00    -0.503 OA
ATOM     11  H   UNL     1     -35.292  21.155   3.563  0.00  0.00    +0.292 HD
ENDBRANCH   5  10
BRANCH   6  12
ATOM     12  O   UNL     1     -37.829  22.387   3.211  0.00  0.00    -0.502 OA
ATOM     13  H   UNL     1     -37.870  21.524   3.574  0.00  0.00    +0.292 HD
ENDBRANCH   6  12
BRANCH   1  15
ATOM     14  C   UNL     1     -33.305  26.709   4.968  0.00  0.00    +0.122 C 
ATOM     15  C   UNL     1     -34.427  26.206   5.513  0.00  0.00    +0.015 C 
BRANCH  14  18
ATOM     16  O   UNL     1     -31.973  27.321   6.792  0.00  0.00    -0.269 OA
ATOM     17  N   UNL     1     -32.250  28.929   5.126  0.00  0.00    -0.276 N 
ATOM     18  C   UNL     1     -32.452  27.678   5.713  0.00  0.00    +0.259 C 
BRANCH  17  19
ATOM     19  C   UNL     1     -31.418  29.911   5.809  0.00  0.00    +0.094 C 
ATOM     20  C   UNL     1     -29.970  29.808   5.376  0.00  0.00    +0.023 C 
ENDBRANCH  17  19
BRANCH  17  21
ATOM     21  C   UNL     1     -32.799  29.360   3.842  0.00  0.00    +0.094 C 
ATOM     22  C   UNL     1     -33.198  30.822   3.871  0.00  0.00    +0.023 C 
ENDBRANCH  17  21
ENDBRANCH  14  18
BRANCH  14  24
ATOM     23  N   UNL     1     -32.513  25.937   2.632  0.00  0.00    -0.191 NA
ATOM     24  C   UNL     1     -32.871  26.283   3.681  0.00  0.00    +0.105 C 
ENDBRANCH  14  24
ENDBRANCH   1  15
TORSDOF 8
ENDMDL
MODEL 9
REMARK VINA RESULT:      -5.1      4.961      7.291
REMARK  Name = 5281081
REMARK  8 active torsions:
REMARK  status: ('A' for Active; 'I' for Inactive)
REMARK    1  A    between atoms: C_1  and  C_15
REMARK    2  A    between atoms: C_4  and  N_9
REMARK    3  A    between atoms: C_5  and  O_10
REMARK    4  A    between atoms: C_6  and  O_12
REMARK    5  A    between atoms: C_14  and  C_18
REMARK    6  A    between atoms: C_14  and  C_24
REMARK    7  A    between atoms: N_17  and  C_19
REMARK    8  A    between atoms: N_17  and  C_21
REMARK                            x       y       z     vdW  Elec       q    Type
REMARK                         _______ _______ _______ _____ _____    ______ ____
ROOT
ATOM      1  C   UNL     1     -36.338  21.586   2.327  0.00  0.00    +0.006 C 
ATOM      2  C   UNL     1     -35.675  21.798   3.526  0.00  0.00    +0.027 C 
ATOM      3  C   UNL     1     -37.320  22.460   1.884  0.00  0.00    +0.040 C 
ATOM      4  C   UNL     1     -36.001  22.912   4.301  0.00  0.00    +0.179 C 
ATOM      5  C   UNL     1     -37.645  23.573   2.660  0.00  0.00    +0.169 C 
ATOM      6  C   UNL     1     -36.986  23.799   3.868  0.00  0.00    +0.190 C 
ENDROOT
BRANCH   4   9
ATOM      7  O   UNL     1     -34.673  24.186   5.691  0.00  0.00    -0.126 OA
ATOM      8  O   UNL     1     -35.389  22.242   6.421  0.00  0.00    -0.126 OA
ATOM      9  N   UNL     1     -35.320  23.124   5.532  0.00  0.00    +0.061 N 
ENDBRANCH   4   9
BRANCH   5  10
ATOM     10  O   UNL     1     -38.609  24.432   2.225  0.00  0.00    -0.503 OA
ATOM     11  H   UNL     1     -39.188  24.176   1.535  0.00  0.00    +0.292 HD
ENDBRANCH   5  10
BRANCH   6  12
ATOM     12  O   UNL     1     -37.314  24.891   4.619  0.00  0.00    -0.502 OA
ATOM     13  H   UNL     1     -36.805  25.675   4.552  0.00  0.00    +0.292 HD
ENDBRANCH   6  12
BRANCH   1  15
ATOM     14  C   UNL     1     -35.024  20.344   0.578  0.00  0.00    +0.122 C 
ATOM     15  C   UNL     1     -35.993  20.414   1.509  0.00  0.00    +0.015 C 
BRANCH  14  18
ATOM     16  O   UNL     1     -35.501  18.950  -1.239  0.00  0.00    -0.269 OA
ATOM     17  N   UNL     1     -33.843  18.212   0.226  0.00  0.00    -0.276 N 
ATOM     18  C   UNL     1     -34.815  19.107  -0.227  0.00  0.00    +0.259 C 
BRANCH  17  19
ATOM     19  C   UNL     1     -33.594  16.990  -0.528  0.00  0.00    +0.094 C 
ATOM     20  C   UNL     1     -34.522  15.873  -0.098  0.00  0.00    +0.023 C 
ENDBRANCH  17  19
BRANCH  17  21
ATOM     21  C   UNL     1     -33.014  18.392   1.416  0.00  0.00    +0.094 C 
ATOM     22  C   UNL     1     -31.557  18.093   1.128  0.00  0.00    +0.023 C 
ENDBRANCH  17  21
ENDBRANCH  14  18
BRANCH  14  24
ATOM     23  N   UNL     1     -33.542  22.397   0.065  0.00  0.00    -0.191 NA
ATOM     24  C   UNL     1     -34.206  21.475   0.297  0.00  0.00    +0.105 C 
ENDBRANCH  14  24
ENDBRANCH   1  15
TORSDOF 8
ENDMDL
