MODEL 1
REMARK VINA RESULT:      -5.2      0.000      0.000
REMARK  Name = 194708
REMARK  8 active torsions:
REMARK  status: ('A' for Active; 'I' for Inactive)
REMARK    1  A    between atoms: C_3  and  C_22
REMARK    2  A    between atoms: C_7  and  C_10
REMARK    3  A    between atoms: C_14  and  O_15
REMARK    4  A    between atoms: O_15  and  C_16
REMARK    5  A    between atoms: N_21  and  C_24
REMARK    6  A    between atoms: C_24  and  C_25
REMARK    7  A    between atoms: C_25  and  C_27
REMARK    8  A    between atoms: C_27  and  O_28
REMARK                            x       y       z     vdW  Elec       q    Type
REMARK                         _______ _______ _______ _____ _____    ______ ____
ROOT
ATOM      1  O   UNL     1     -34.968  25.580   2.682  0.00  0.00    -0.273 OA
ATOM      2  N   UNL     1     -37.226  25.834   2.241  0.00  0.00    -0.272 N 
ATOM      3  C   UNL     1     -37.078  26.259   0.855  0.00  0.00    +0.152 C 
ATOM      4  C   UNL     1     -38.474  26.125   0.258  0.00  0.00    +0.031 C 
ATOM      5  C   UNL     1     -38.635  25.707   2.605  0.00  0.00    +0.094 C 
ATOM      6  C   UNL     1     -39.396  26.348   1.455  0.00  0.00    +0.024 C 
ATOM      7  C   UNL     1     -36.146  25.458   3.024  0.00  0.00    +0.244 C 
ENDROOT
BRANCH   7  10
ATOM      8  O   UNL     1     -35.302  21.444   4.238  0.00  0.00    -0.226 OA
ATOM      9  N   UNL     1     -35.647  23.710   4.555  0.00  0.00    -0.239 N 
ATOM     10  C   UNL     1     -36.490  24.882   4.365  0.00  0.00    +0.155 C 
ATOM     11  C   UNL     1     -36.104  25.821   5.502  0.00  0.00    +0.031 C 
ATOM     12  C   UNL     1     -34.646  25.460   5.783  0.00  0.00    +0.024 C 
ATOM     13  C   UNL     1     -34.605  23.958   5.546  0.00  0.00    +0.097 C 
ATOM     14  C   UNL     1     -35.915  22.478   3.979  0.00  0.00    +0.405 C 
BRANCH  14  15
ATOM     15  O   UNL     1     -36.950  22.545   3.085  0.00  0.00    -0.442 OA
BRANCH  15  16
ATOM     16  C   UNL     1     -36.700  21.983   1.792  0.00  0.00    +0.138 C 
ATOM     17  C   UNL     1     -36.755  20.460   1.905  0.00  0.00    +0.044 C 
ATOM     18  C   UNL     1     -37.788  22.491   0.850  0.00  0.00    +0.044 C 
ATOM     19  C   UNL     1     -35.321  22.444   1.320  0.00  0.00    +0.044 C 
ENDBRANCH  15  16
ENDBRANCH  14  15
ENDBRANCH   7  10
BRANCH   3  22
ATOM     20  O   UNL     1     -37.394  28.615   1.075  0.00  0.00    -0.273 OA
ATOM     21  N   UNL     1     -35.259  27.800   0.632  0.00  0.00    -0.302 N 
ATOM     22  C   UNL     1     -36.617  27.685   0.877  0.00  0.00    +0.241 C 
ATOM     23  H   UNL     1     -34.738  26.978   0.488  0.00  0.00    +0.149 HD
BRANCH  21  24
ATOM     24  C   UNL     1     -34.571  29.070   0.577  0.00  0.00    +0.101 C 
BRANCH  24  25
ATOM     25  C   UNL     1     -33.543  29.212   1.692  0.00  0.00    +0.131 C 
BRANCH  25  27
ATOM     26  O   UNL     1     -33.637  28.372   3.977  0.00  0.00    -0.250 OA
ATOM     27  C   UNL     1     -34.137  29.022   3.070  0.00  0.00    +0.316 C 
BRANCH  27  28
ATOM     28  O   UNL     1     -35.319  29.681   3.196  0.00  0.00    -0.480 OA
ATOM     29  H   UNL     1     -36.033  29.475   2.625  0.00  0.00    +0.295 HD
ENDBRANCH  27  28
ENDBRANCH  25  27
ENDBRANCH  24  25
ENDBRANCH  21  24
ENDBRANCH   3  22
TORSDOF 8
ENDMDL
MODEL 2
REMARK VINA RESULT:      -5.2      2.577      7.015
REMARK  Name = 194708
REMARK  8 active torsions:
REMARK  status: ('A' for Active; 'I' for Inactive)
REMARK    1  A    between atoms: C_3  and  C_22
REMARK    2  A    between atoms: C_7  and  C_10
REMARK    3  A    between atoms: C_14  and  O_15
REMARK    4  A    between atoms: O_15  and  C_16
REMARK    5  A    between atoms: N_21  and  C_24
REMARK    6  A    between atoms: C_24  and  C_25
REMARK    7  A    between atoms: C_25  and  C_27
REMARK    8  A    between atoms: C_27  and  O_28
REMARK                            x       y       z     vdW  Elec       q    Type
REMARK                         _______ _______ _______ _____ _____    ______ ____
ROOT
ATOM      1  O   UNL     1     -33.220  26.319   2.001  0.00  0.00    -0.273 OA
ATOM      2  N   UNL     1     -34.519  25.898   3.870  0.00  0.00    -0.272 N 
ATOM      3  C   UNL     1     -34.432  24.445   3.810  0.00  0.00    +0.152 C 
ATOM      4  C   UNL     1     -34.918  23.971   5.175  0.00  0.00    +0.031 C 
ATOM      5  C   UNL     1     -35.262  26.333   5.051  0.00  0.00    +0.094 C 
ATOM      6  C   UNL     1     -35.894  25.065   5.603  0.00  0.00    +0.024 C 
ATOM      7  C   UNL     1     -33.838  26.723   2.989  0.00  0.00    +0.244 C 
ENDROOT
BRANCH   7  10
ATOM      8  O   UNL     1     -30.432  29.301   3.218  0.00  0.00    -0.226 OA
ATOM      9  N   UNL     1     -32.651  28.775   2.824  0.00  0.00    -0.239 N 
ATOM     10  C   UNL     1     -33.896  28.189   3.298  0.00  0.00    +0.155 C 
ATOM     11  C   UNL     1     -34.983  28.895   2.496  0.00  0.00    +0.031 C 
ATOM     12  C   UNL     1     -34.282  29.257   1.187  0.00  0.00    +0.024 C 
ATOM     13  C   UNL     1     -32.864  29.584   1.628  0.00  0.00    +0.097 C 
ATOM     14  C   UNL     1     -31.457  28.696   3.525  0.00  0.00    +0.405 C 
BRANCH  14  15
ATOM     15  O   UNL     1     -31.553  27.861   4.607  0.00  0.00    -0.442 OA
BRANCH  15  16
ATOM     16  C   UNL     1     -31.430  28.483   5.891  0.00  0.00    +0.138 C 
ATOM     17  C   UNL     1     -31.878  29.938   5.773  0.00  0.00    +0.044 C 
ATOM     18  C   UNL     1     -32.331  27.720   6.860  0.00  0.00    +0.044 C 
ATOM     19  C   UNL     1     -29.970  28.397   6.334  0.00  0.00    +0.044 C 
ENDBRANCH  15  16
ENDBRANCH  14  15
ENDBRANCH   7  10
BRANCH   3  22
ATOM     20  O   UNL     1     -36.449  24.495   2.533  0.00  0.00    -0.273 OA
ATOM     21  N   UNL     1     -34.791  22.963   1.964  0.00  0.00    -0.302 N 
ATOM     22  C   UNL     1     -35.341  23.993   2.708  0.00  0.00    +0.241 C 
ATOM     23  H   UNL     1     -33.891  22.644   2.201  0.00  0.00    +0.149 HD
BRANCH  21  24
ATOM     24  C   UNL     1     -35.475  22.334   0.858  0.00  0.00    +0.101 C 
BRANCH  24  25
ATOM     25  C   UNL     1     -35.460  20.815   0.964  0.00  0.00    +0.131 C 
BRANCH  25  27
ATOM     26  O   UNL     1     -35.152  20.548   3.367  0.00  0.00    -0.250 OA
ATOM     27  C   UNL     1     -35.795  20.317   2.353  0.00  0.00    +0.316 C 
BRANCH  27  28
ATOM     28  O   UNL     1     -36.929  19.567   2.351  0.00  0.00    -0.480 OA
ATOM     29  H   UNL     1     -37.120  19.003   3.075  0.00  0.00    +0.295 HD
ENDBRANCH  27  28
ENDBRANCH  25  27
ENDBRANCH  24  25
ENDBRANCH  21  24
ENDBRANCH   3  22
TORSDOF 8
ENDMDL
MODEL 3
REMARK VINA RESULT:      -5.0      2.549      5.147
REMARK  Name = 194708
REMARK  8 active torsions:
REMARK  status: ('A' for Active; 'I' for Inactive)
REMARK    1  A    between atoms: C_3  and  C_22
REMARK    2  A    between atoms: C_7  and  C_10
REMARK    3  A    between atoms: C_14  and  O_15
REMARK    4  A    between atoms: O_15  and  C_16
REMARK    5  A    between atoms: N_21  and  C_24
REMARK    6  A    between atoms: C_24  and  C_25
REMARK    7  A    between atoms: C_25  and  C_27
REMARK    8  A    between atoms: C_27  and  O_28
REMARK                            x       y       z     vdW  Elec       q    Type
REMARK                         _______ _______ _______ _____ _____    ______ ____
ROOT
ATOM      1  O   UNL     1     -35.768  27.715   2.130  0.00  0.00    -0.273 OA
ATOM      2  N   UNL     1     -35.913  25.795   3.413  0.00  0.00    -0.272 N 
ATOM      3  C   UNL     1     -35.448  26.391   4.658  0.00  0.00    +0.152 C 
ATOM      4  C   UNL     1     -35.820  25.377   5.735  0.00  0.00    +0.031 C 
ATOM      5  C   UNL     1     -36.295  24.397   3.608  0.00  0.00    +0.094 C 
ATOM      6  C   UNL     1     -35.781  24.042   4.995  0.00  0.00    +0.024 C 
ATOM      7  C   UNL     1     -36.103  26.535   2.257  0.00  0.00    +0.244 C 
ENDROOT
BRANCH   7  10
ATOM      8  O   UNL     1     -39.630  27.840   0.219  0.00  0.00    -0.226 OA
ATOM      9  N   UNL     1     -37.591  26.765   0.418  0.00  0.00    -0.239 N 
ATOM     10  C   UNL     1     -36.751  25.805   1.120  0.00  0.00    +0.155 C 
ATOM     11  C   UNL     1     -35.731  25.355   0.080  0.00  0.00    +0.031 C 
ATOM     12  C   UNL     1     -35.606  26.566  -0.844  0.00  0.00    +0.024 C 
ATOM     13  C   UNL     1     -37.017  27.133  -0.872  0.00  0.00    +0.097 C 
ATOM     14  C   UNL     1     -38.848  27.145   0.864  0.00  0.00    +0.405 C 
BRANCH  14  15
ATOM     15  O   UNL     1     -39.119  26.651   2.112  0.00  0.00    -0.442 OA
BRANCH  15  16
ATOM     16  C   UNL     1     -40.185  25.698   2.191  0.00  0.00    +0.138 C 
ATOM     17  C   UNL     1     -39.861  24.697   3.299  0.00  0.00    +0.044 C 
ATOM     18  C   UNL     1     -41.465  26.463   2.517  0.00  0.00    +0.044 C 
ATOM     19  C   UNL     1     -40.308  24.993   0.840  0.00  0.00    +0.044 C 
ENDBRANCH  15  16
ENDBRANCH  14  15
ENDBRANCH   7  10
BRANCH   3  22
ATOM     20  O   UNL     1     -33.192  25.611   4.663  0.00  0.00    -0.273 OA
ATOM     21  N   UNL     1     -33.602  27.874   4.307  0.00  0.00    -0.302 N 
ATOM     22  C   UNL     1     -33.964  26.558   4.540  0.00  0.00    +0.241 C 
ATOM     23  H   UNL     1     -34.314  28.549   4.228  0.00  0.00    +0.149 HD
BRANCH  21  24
ATOM     24  C   UNL     1     -32.229  28.305   4.177  0.00  0.00    +0.101 C 
BRANCH  24  25
ATOM     25  C   UNL     1     -31.885  29.425   5.150  0.00  0.00    +0.131 C 
BRANCH  25  27
ATOM     26  O   UNL     1     -31.555  29.631   7.556  0.00  0.00    -0.250 OA
ATOM     27  C   UNL     1     -31.640  28.929   6.559  0.00  0.00    +0.316 C 
BRANCH  27  28
ATOM     28  O   UNL     1     -31.529  27.575   6.595  0.00  0.00    -0.480 OA
ATOM     29  H   UNL     1     -31.711  27.110   7.389  0.00  0.00    +0.295 HD
ENDBRANCH  27  28
ENDBRANCH  25  27
ENDBRANCH  24  25
ENDBRANCH  21  24
ENDBRANCH   3  22
TORSDOF 8
ENDMDL
MODEL 4
REMARK VINA RESULT:      -5.0      2.449      6.453
REMARK  Name = 194708
REMARK  8 active torsions:
REMARK  status: ('A' for Active; 'I' for Inactive)
REMARK    1  A    between atoms: C_3  and  C_22
REMARK    2  A    between atoms: C_7  and  C_10
REMARK    3  A    between atoms: C_14  and  O_15
REMARK    4  A    between atoms: O_15  and  C_16
REMARK    5  A    between atoms: N_21  and  C_24
REMARK    6  A    between atoms: C_24  and  C_25
REMARK    7  A    between atoms: C_25  and  C_27
REMARK    8  A    between atoms: C_27  and  O_28
REMARK                            x       y       z     vdW  Elec       q    Type
REMARK                         _______ _______ _______ _____ _____    ______ ____
ROOT
ATOM      1  O   UNL     1     -33.116  26.107   2.102  0.00  0.00    -0.273 OA
ATOM      2  N   UNL     1     -34.491  25.735   3.927  0.00  0.00    -0.272 N 
ATOM      3  C   UNL     1     -34.389  24.281   3.918  0.00  0.00    +0.152 C 
ATOM      4  C   UNL     1     -34.930  23.847   5.276  0.00  0.00    +0.031 C 
ATOM      5  C   UNL     1     -35.286  26.201   5.060  0.00  0.00    +0.094 C 
ATOM      6  C   UNL     1     -35.932  24.945   5.627  0.00  0.00    +0.024 C 
ATOM      7  C   UNL     1     -33.779  26.537   3.049  0.00  0.00    +0.244 C 
ENDROOT
BRANCH   7  10
ATOM      8  O   UNL     1     -30.416  29.177   3.199  0.00  0.00    -0.226 OA
ATOM      9  N   UNL     1     -32.625  28.602   2.817  0.00  0.00    -0.239 N 
ATOM     10  C   UNL     1     -33.862  28.011   3.307  0.00  0.00    +0.155 C 
ATOM     11  C   UNL     1     -34.957  28.672   2.479  0.00  0.00    +0.031 C 
ATOM     12  C   UNL     1     -34.258  29.000   1.160  0.00  0.00    +0.024 C 
ATOM     13  C   UNL     1     -32.847  29.365   1.594  0.00  0.00    +0.097 C 
ATOM     14  C   UNL     1     -31.432  28.566   3.523  0.00  0.00    +0.405 C 
BRANCH  14  15
ATOM     15  O   UNL     1     -31.518  27.767   4.633  0.00  0.00    -0.442 OA
BRANCH  15  16
ATOM     16  C   UNL     1     -31.418  28.435   5.896  0.00  0.00    +0.138 C 
ATOM     17  C   UNL     1     -31.896  29.876   5.723  0.00  0.00    +0.044 C 
ATOM     18  C   UNL     1     -32.310  27.688   6.884  0.00  0.00    +0.044 C 
ATOM     19  C   UNL     1     -29.959  28.397   6.352  0.00  0.00    +0.044 C 
ENDBRANCH  15  16
ENDBRANCH  14  15
ENDBRANCH   7  10
BRANCH   3  22
ATOM     20  O   UNL     1     -35.248  22.607   2.449  0.00  0.00    -0.273 OA
ATOM     21  N   UNL     1     -35.984  24.802   2.210  0.00  0.00    -0.302 N 
ATOM     22  C   UNL     1     -35.247  23.786   2.793  0.00  0.00    +0.241 C 
ATOM     23  H   UNL     1     -35.899  25.712   2.575  0.00  0.00    +0.149 HD
BRANCH  21  24
ATOM     24  C   UNL     1     -36.872  24.591   1.089  0.00  0.00    +0.101 C 
BRANCH  24  25
ATOM     25  C   UNL     1     -38.296  25.035   1.397  0.00  0.00    +0.131 C 
BRANCH  25  27
ATOM     26  O   UNL     1     -38.811  24.290   3.659  0.00  0.00    -0.250 OA
ATOM     27  C   UNL     1     -38.558  25.196   2.878  0.00  0.00    +0.316 C 
BRANCH  27  28
ATOM     28  O   UNL     1     -38.470  26.498   3.258  0.00  0.00    -0.480 OA
ATOM     29  H   UNL     1     -39.098  26.855   3.856  0.00  0.00    +0.295 HD
ENDBRANCH  27  28
ENDBRANCH  25  27
ENDBRANCH  24  25
ENDBRANCH  21  24
ENDBRANCH   3  22
TORSDOF 8
ENDMDL
MODEL 5
REMARK VINA RESULT:      -4.9      2.355      4.038
REMARK  Name = 194708
REMARK  8 active torsions:
REMARK  status: ('A' for Active; 'I' for Inactive)
REMARK    1  A    between atoms: C_3  and  C_22
REMARK    2  A    between atoms: C_7  and  C_10
REMARK    3  A    between atoms: C_14  and  O_15
REMARK    4  A    between atoms: O_15  and  C_16
REMARK    5  A    between atoms: N_21  and  C_24
REMARK    6  A    between atoms: C_24  and  C_25
REMARK    7  A    between atoms: C_25  and  C_27
REMARK    8  A    between atoms: C_27  and  O_28
REMARK                            x       y       z     vdW  Elec       q    Type
REMARK                         _______ _______ _______ _____ _____    ______ ____
ROOT
ATOM      1  O   UNL     1     -35.069  23.378   1.720  0.00  0.00    -0.273 OA
ATOM      2  N   UNL     1     -35.595  24.438   3.709  0.00  0.00    -0.272 N 
ATOM      3  C   UNL     1     -35.162  25.770   3.307  0.00  0.00    +0.152 C 
ATOM      4  C   UNL     1     -35.765  26.704   4.350  0.00  0.00    +0.031 C 
ATOM      5  C   UNL     1     -36.184  24.457   5.046  0.00  0.00    +0.094 C 
ATOM      6  C   UNL     1     -35.850  25.833   5.601  0.00  0.00    +0.024 C 
ATOM      7  C   UNL     1     -35.576  23.356   2.844  0.00  0.00    +0.244 C 
ENDROOT
BRANCH   7  10
ATOM      8  O   UNL     1     -39.167  21.635   1.281  0.00  0.00    -0.226 OA
ATOM      9  N   UNL     1     -37.095  21.607   2.310  0.00  0.00    -0.239 N 
ATOM     10  C   UNL     1     -36.218  22.103   3.360  0.00  0.00    +0.155 C 
ATOM     11  C   UNL     1     -35.199  20.989   3.569  0.00  0.00    +0.031 C 
ATOM     12  C   UNL     1     -35.122  20.316   2.199  0.00  0.00    +0.024 C 
ATOM     13  C   UNL     1     -36.550  20.409   1.682  0.00  0.00    +0.097 C 
ATOM     14  C   UNL     1     -38.356  22.127   2.063  0.00  0.00    +0.405 C 
BRANCH  14  15
ATOM     15  O   UNL     1     -38.596  23.258   2.797  0.00  0.00    -0.442 OA
BRANCH  15  16
ATOM     16  C   UNL     1     -39.097  24.385   2.068  0.00  0.00    +0.138 C 
ATOM     17  C   UNL     1     -40.542  24.100   1.664  0.00  0.00    +0.044 C 
ATOM     18  C   UNL     1     -39.027  25.599   2.991  0.00  0.00    +0.044 C 
ATOM     19  C   UNL     1     -38.219  24.595   0.835  0.00  0.00    +0.044 C 
ENDBRANCH  15  16
ENDBRANCH  14  15
ENDBRANCH   7  10
BRANCH   3  22
ATOM     20  O   UNL     1     -33.032  25.025   4.087  0.00  0.00    -0.273 OA
ATOM     21  N   UNL     1     -33.121  26.730   2.504  0.00  0.00    -0.302 N 
ATOM     22  C   UNL     1     -33.664  25.779   3.351  0.00  0.00    +0.241 C 
ATOM     23  H   UNL     1     -33.732  27.278   1.962  0.00  0.00    +0.149 HD
BRANCH  21  24
ATOM     24  C   UNL     1     -31.699  26.957   2.379  0.00  0.00    +0.101 C 
BRANCH  24  25
ATOM     25  C   UNL     1     -31.269  28.269   3.021  0.00  0.00    +0.131 C 
BRANCH  25  27
ATOM     26  O   UNL     1     -30.844  27.954   5.399  0.00  0.00    -0.250 OA
ATOM     27  C   UNL     1     -31.581  28.333   4.500  0.00  0.00    +0.316 C 
BRANCH  27  28
ATOM     28  O   UNL     1     -32.803  28.881   4.726  0.00  0.00    -0.480 OA
ATOM     29  H   UNL     1     -32.914  29.513   5.410  0.00  0.00    +0.295 HD
ENDBRANCH  27  28
ENDBRANCH  25  27
ENDBRANCH  24  25
ENDBRANCH  21  24
ENDBRANCH   3  22
TORSDOF 8
ENDMDL
MODEL 6
REMARK VINA RESULT:      -4.9      1.983      5.534
REMARK  Name = 194708
REMARK  8 active torsions:
REMARK  status: ('A' for Active; 'I' for Inactive)
REMARK    1  A    between atoms: C_3  and  C_22
REMARK    2  A    between atoms: C_7  and  C_10
REMARK    3  A    between atoms: C_14  and  O_15
REMARK    4  A    between atoms: O_15  and  C_16
REMARK    5  A    between atoms: N_21  and  C_24
REMARK    6  A    between atoms: C_24  and  C_25
REMARK    7  A    between atoms: C_25  and  C_27
REMARK    8  A    between atoms: C_27  and  O_28
REMARK                            x       y       z     vdW  Elec       q    Type
REMARK                         _______ _______ _______ _____ _____    ______ ____
ROOT
ATOM      1  O   UNL     1     -37.409  25.734   2.766  0.00  0.00    -0.273 OA
ATOM      2  N   UNL     1     -37.518  23.796   1.505  0.00  0.00    -0.272 N 
ATOM      3  C   UNL     1     -37.905  22.909   2.595  0.00  0.00    +0.152 C 
ATOM      4  C   UNL     1     -38.392  21.639   1.906  0.00  0.00    +0.031 C 
ATOM      5  C   UNL     1     -37.481  23.080   0.231  0.00  0.00    +0.094 C 
ATOM      6  C   UNL     1     -37.591  21.610   0.606  0.00  0.00    +0.024 C 
ATOM      7  C   UNL     1     -37.371  25.164   1.673  0.00  0.00    +0.244 C 
ENDROOT
BRANCH   7  10
ATOM      8  O   UNL     1     -39.937  28.276   0.249  0.00  0.00    -0.226 OA
ATOM      9  N   UNL     1     -37.922  27.174   0.532  0.00  0.00    -0.239 N 
ATOM     10  C   UNL     1     -37.143  25.949   0.417  0.00  0.00    +0.155 C 
ATOM     11  C   UNL     1     -35.699  26.422   0.297  0.00  0.00    +0.031 C 
ATOM     12  C   UNL     1     -35.693  27.746   1.059  0.00  0.00    +0.024 C 
ATOM     13  C   UNL     1     -37.063  28.333   0.754  0.00  0.00    +0.097 C 
ATOM     14  C   UNL     1     -39.287  27.234   0.298  0.00  0.00    +0.405 C 
BRANCH  14  15
ATOM     15  O   UNL     1     -39.831  25.989   0.123  0.00  0.00    -0.442 OA
BRANCH  15  16
ATOM     16  C   UNL     1     -40.982  25.690   0.921  0.00  0.00    +0.138 C 
ATOM     17  C   UNL     1     -42.215  26.270   0.232  0.00  0.00    +0.044 C 
ATOM     18  C   UNL     1     -41.089  24.170   1.023  0.00  0.00    +0.044 C 
ATOM     19  C   UNL     1     -40.789  26.310   2.305  0.00  0.00    +0.044 C 
ENDBRANCH  15  16
ENDBRANCH  14  15
ENDBRANCH   7  10
BRANCH   3  22
ATOM     20  O   UNL     1     -35.831  21.833   3.087  0.00  0.00    -0.273 OA
ATOM     21  N   UNL     1     -36.646  23.441   4.561  0.00  0.00    -0.302 N 
ATOM     22  C   UNL     1     -36.678  22.661   3.417  0.00  0.00    +0.241 C 
ATOM     23  H   UNL     1     -37.385  24.071   4.718  0.00  0.00    +0.149 HD
BRANCH  21  24
ATOM     24  C   UNL     1     -35.580  23.375   5.534  0.00  0.00    +0.101 C 
BRANCH  24  25
ATOM     25  C   UNL     1     -34.475  24.381   5.242  0.00  0.00    +0.131 C 
BRANCH  25  27
ATOM     26  O   UNL     1     -34.039  26.654   6.006  0.00  0.00    -0.250 OA
ATOM     27  C   UNL     1     -34.833  25.790   5.662  0.00  0.00    +0.316 C 
BRANCH  27  28
ATOM     28  O   UNL     1     -36.175  25.998   5.604  0.00  0.00    -0.480 OA
ATOM     29  H   UNL     1     -36.642  26.259   6.374  0.00  0.00    +0.295 HD
ENDBRANCH  27  28
ENDBRANCH  25  27
ENDBRANCH  24  25
ENDBRANCH  21  24
ENDBRANCH   3  22
TORSDOF 8
ENDMDL
MODEL 7
REMARK VINA RESULT:      -4.9      2.766      4.327
REMARK  Name = 194708
REMARK  8 active torsions:
REMARK  status: ('A' for Active; 'I' for Inactive)
REMARK    1  A    between atoms: C_3  and  C_22
REMARK    2  A    between atoms: C_7  and  C_10
REMARK    3  A    between atoms: C_14  and  O_15
REMARK    4  A    between atoms: O_15  and  C_16
REMARK    5  A    between atoms: N_21  and  C_24
REMARK    6  A    between atoms: C_24  and  C_25
REMARK    7  A    between atoms: C_25  and  C_27
REMARK    8  A    between atoms: C_27  and  O_28
REMARK                            x       y       z     vdW  Elec       q    Type
REMARK                         _______ _______ _______ _____ _____    ______ ____
ROOT
ATOM      1  O   UNL     1     -33.206  26.779   4.225  0.00  0.00    -0.273 OA
ATOM      2  N   UNL     1     -34.436  28.170   2.843  0.00  0.00    -0.272 N 
ATOM      3  C   UNL     1     -33.355  29.098   2.536  0.00  0.00    +0.152 C 
ATOM      4  C   UNL     1     -33.857  29.894   1.336  0.00  0.00    +0.031 C 
ATOM      5  C   UNL     1     -35.650  28.512   2.104  0.00  0.00    +0.094 C 
ATOM      6  C   UNL     1     -35.374  29.887   1.515  0.00  0.00    +0.024 C 
ATOM      7  C   UNL     1     -34.247  27.035   3.615  0.00  0.00    +0.244 C 
ENDROOT
BRANCH   7  10
ATOM      8  O   UNL     1     -34.392  23.172   1.783  0.00  0.00    -0.226 OA
ATOM      9  N   UNL     1     -34.918  24.768   3.374  0.00  0.00    -0.239 N 
ATOM     10  C   UNL     1     -35.416  26.099   3.687  0.00  0.00    +0.155 C 
ATOM     11  C   UNL     1     -35.962  25.982   5.105  0.00  0.00    +0.031 C 
ATOM     12  C   UNL     1     -35.111  24.874   5.724  0.00  0.00    +0.024 C 
ATOM     13  C   UNL     1     -34.876  23.922   4.562  0.00  0.00    +0.097 C 
ATOM     14  C   UNL     1     -34.674  24.331   2.081  0.00  0.00    +0.405 C 
BRANCH  14  15
ATOM     15  O   UNL     1     -34.787  25.346   1.168  0.00  0.00    -0.442 OA
BRANCH  15  16
ATOM     16  C   UNL     1     -33.720  25.458   0.219  0.00  0.00    +0.138 C 
ATOM     17  C   UNL     1     -32.394  25.466   0.977  0.00  0.00    +0.044 C 
ATOM     18  C   UNL     1     -33.801  24.248  -0.709  0.00  0.00    +0.044 C 
ATOM     19  C   UNL     1     -33.905  26.754  -0.570  0.00  0.00    +0.044 C 
ENDBRANCH  15  16
ENDBRANCH  14  15
ENDBRANCH   7  10
BRANCH   3  22
ATOM     20  O   UNL     1     -34.020  30.773   4.102  0.00  0.00    -0.273 OA
ATOM     21  N   UNL     1     -31.937  29.762   4.347  0.00  0.00    -0.302 N 
ATOM     22  C   UNL     1     -33.165  29.968   3.741  0.00  0.00    +0.241 C 
ATOM     23  H   UNL     1     -31.333  29.086   3.964  0.00  0.00    +0.149 HD
BRANCH  21  24
ATOM     24  C   UNL     1     -31.500  30.493   5.515  0.00  0.00    +0.101 C 
BRANCH  24  25
ATOM     25  C   UNL     1     -31.369  29.594   6.737  0.00  0.00    +0.131 C 
BRANCH  25  27
ATOM     26  O   UNL     1     -29.889  27.858   5.882  0.00  0.00    -0.250 OA
ATOM     27  C   UNL     1     -30.953  28.181   6.390  0.00  0.00    +0.316 C 
BRANCH  27  28
ATOM     28  O   UNL     1     -31.918  27.284   6.724  0.00  0.00    -0.480 OA
ATOM     29  H   UNL     1     -32.820  27.490   6.577  0.00  0.00    +0.295 HD
ENDBRANCH  27  28
ENDBRANCH  25  27
ENDBRANCH  24  25
ENDBRANCH  21  24
ENDBRANCH   3  22
TORSDOF 8
ENDMDL
MODEL 8
REMARK VINA RESULT:      -4.8      2.209      5.789
REMARK  Name = 194708
REMARK  8 active torsions:
REMARK  status: ('A' for Active; 'I' for Inactive)
REMARK    1  A    between atoms: C_3  and  C_22
REMARK    2  A    between atoms: C_7  and  C_10
REMARK    3  A    between atoms: C_14  and  O_15
REMARK    4  A    between atoms: O_15  and  C_16
REMARK    5  A    between atoms: N_21  and  C_24
REMARK    6  A    between atoms: C_24  and  C_25
REMARK    7  A    between atoms: C_25  and  C_27
REMARK    8  A    between atoms: C_27  and  O_28
REMARK                            x       y       z     vdW  Elec       q    Type
REMARK                         _______ _______ _______ _____ _____    ______ ____
ROOT
ATOM      1  O   UNL     1     -35.088  23.751   1.877  0.00  0.00    -0.273 OA
ATOM      2  N   UNL     1     -36.995  25.042   2.107  0.00  0.00    -0.272 N 
ATOM      3  C   UNL     1     -37.813  24.019   2.747  0.00  0.00    +0.152 C 
ATOM      4  C   UNL     1     -39.003  24.778   3.323  0.00  0.00    +0.031 C 
ATOM      5  C   UNL     1     -37.715  26.311   2.017  0.00  0.00    +0.094 C 
ATOM      6  C   UNL     1     -39.152  25.972   2.382  0.00  0.00    +0.024 C 
ATOM      7  C   UNL     1     -35.662  24.838   1.787  0.00  0.00    +0.244 C 
ENDROOT
BRANCH   7  10
ATOM      8  O   UNL     1     -32.130  26.432   3.599  0.00  0.00    -0.226 OA
ATOM      9  N   UNL     1     -33.579  25.979   1.852  0.00  0.00    -0.239 N 
ATOM     10  C   UNL     1     -34.923  26.047   1.298  0.00  0.00    +0.155 C 
ATOM     11  C   UNL     1     -34.718  26.014  -0.212  0.00  0.00    +0.031 C 
ATOM     12  C   UNL     1     -33.421  25.224  -0.379  0.00  0.00    +0.024 C 
ATOM     13  C   UNL     1     -32.596  25.647   0.826  0.00  0.00    +0.097 C 
ATOM     14  C   UNL     1     -33.273  26.345   3.154  0.00  0.00    +0.405 C 
BRANCH  14  15
ATOM     15  O   UNL     1     -34.398  26.601   3.892  0.00  0.00    -0.442 OA
BRANCH  15  16
ATOM     16  C   UNL     1     -34.522  25.876   5.120  0.00  0.00    +0.138 C 
ATOM     17  C   UNL     1     -35.985  25.908   5.558  0.00  0.00    +0.044 C 
ATOM     18  C   UNL     1     -34.073  24.441   4.854  0.00  0.00    +0.044 C 
ATOM     19  C   UNL     1     -33.625  26.536   6.167  0.00  0.00    +0.044 C 
ENDBRANCH  15  16
ENDBRANCH  14  15
ENDBRANCH   7  10
BRANCH   3  22
ATOM     20  O   UNL     1     -39.091  23.342   0.847  0.00  0.00    -0.273 OA
ATOM     21  N   UNL     1     -37.561  21.848   1.769  0.00  0.00    -0.302 N 
ATOM     22  C   UNL     1     -38.231  23.056   1.678  0.00  0.00    +0.241 C 
ATOM     23  H   UNL     1     -36.891  21.737   2.481  0.00  0.00    +0.149 HD
BRANCH  21  24
ATOM     24  C   UNL     1     -37.800  20.742   0.869  0.00  0.00    +0.101 C 
BRANCH  24  25
ATOM     25  C   UNL     1     -36.589  19.826   0.755  0.00  0.00    +0.131 C 
BRANCH  25  27
ATOM     26  O   UNL     1     -35.183  20.093   2.727  0.00  0.00    -0.250 OA
ATOM     27  C   UNL     1     -35.397  20.321   1.545  0.00  0.00    +0.316 C 
BRANCH  27  28
ATOM     28  O   UNL     1     -34.562  21.062   0.771  0.00  0.00    -0.480 OA
ATOM     29  H   UNL     1     -34.508  20.898  -0.151  0.00  0.00    +0.295 HD
ENDBRANCH  27  28
ENDBRANCH  25  27
ENDBRANCH  24  25
ENDBRANCH  21  24
ENDBRANCH   3  22
TORSDOF 8
ENDMDL
MODEL 9
REMARK VINA RESULT:      -4.8      2.430      4.604
REMARK  Name = 194708
REMARK  8 active torsions:
REMARK  status: ('A' for Active; 'I' for Inactive)
REMARK    1  A    between atoms: C_3  and  C_22
REMARK    2  A    between atoms: C_7  and  C_10
REMARK    3  A    between atoms: C_14  and  O_15
REMARK    4  A    between atoms: O_15  and  C_16
REMARK    5  A    between atoms: N_21  and  C_24
REMARK    6  A    between atoms: C_24  and  C_25
REMARK    7  A    between atoms: C_25  and  C_27
REMARK    8  A    between atoms: C_27  and  O_28
REMARK                            x       y       z     vdW  Elec       q    Type
REMARK                         _______ _______ _______ _____ _____    ______ ____
ROOT
ATOM      1  O   UNL     1     -35.443  25.057   1.212  0.00  0.00    -0.273 OA
ATOM      2  N   UNL     1     -35.519  24.415   3.435  0.00  0.00    -0.272 N 
ATOM      3  C   UNL     1     -35.404  25.753   3.999  0.00  0.00    +0.152 C 
ATOM      4  C   UNL     1     -35.806  25.593   5.461  0.00  0.00    +0.031 C 
ATOM      5  C   UNL     1     -35.699  23.414   4.484  0.00  0.00    +0.094 C 
ATOM      6  C   UNL     1     -35.411  24.153   5.782  0.00  0.00    +0.024 C 
ATOM      7  C   UNL     1     -35.601  24.186   2.070  0.00  0.00    +0.244 C 
ENDROOT
BRANCH   7  10
ATOM      8  O   UNL     1     -38.771  23.000  -0.545  0.00  0.00    -0.226 OA
ATOM      9  N   UNL     1     -36.691  22.828   0.452  0.00  0.00    -0.239 N 
ATOM     10  C   UNL     1     -35.892  22.771   1.668  0.00  0.00    +0.155 C 
ATOM     11  C   UNL     1     -34.626  22.025   1.262  0.00  0.00    +0.031 C 
ATOM     12  C   UNL     1     -34.478  22.357  -0.223  0.00  0.00    +0.024 C 
ATOM     13  C   UNL     1     -35.917  22.415  -0.713  0.00  0.00    +0.097 C 
ATOM     14  C   UNL     1     -38.053  23.088   0.448  0.00  0.00    +0.405 C 
BRANCH  14  15
ATOM     15  O   UNL     1     -38.508  23.453   1.687  0.00  0.00    -0.442 OA
BRANCH  15  16
ATOM     16  C   UNL     1     -39.249  24.677   1.748  0.00  0.00    +0.138 C 
ATOM     17  C   UNL     1     -38.745  25.606   0.644  0.00  0.00    +0.044 C 
ATOM     18  C   UNL     1     -40.721  24.335   1.530  0.00  0.00    +0.044 C 
ATOM     19  C   UNL     1     -39.040  25.305   3.125  0.00  0.00    +0.044 C 
ENDBRANCH  15  16
ENDBRANCH  14  15
ENDBRANCH   7  10
BRANCH   3  22
ATOM     20  O   UNL     1     -33.081  25.360   3.614  0.00  0.00    -0.273 OA
ATOM     21  N   UNL     1     -33.800  27.530   4.056  0.00  0.00    -0.302 N 
ATOM     22  C   UNL     1     -33.972  26.170   3.858  0.00  0.00    +0.241 C 
ATOM     23  H   UNL     1     -34.593  28.079   4.247  0.00  0.00    +0.149 HD
BRANCH  21  24
ATOM     24  C   UNL     1     -32.510  28.180   3.998  0.00  0.00    +0.101 C 
BRANCH  24  25
ATOM     25  C   UNL     1     -32.265  29.074   5.206  0.00  0.00    +0.131 C 
BRANCH  25  27
ATOM     26  O   UNL     1     -32.145  27.084   6.607  0.00  0.00    -0.250 OA
ATOM     27  C   UNL     1     -32.018  28.293   6.478  0.00  0.00    +0.316 C 
BRANCH  27  28
ATOM     28  O   UNL     1     -31.622  29.108   7.491  0.00  0.00    -0.480 OA
ATOM     29  H   UNL     1     -31.492  30.023   7.333  0.00  0.00    +0.295 HD
ENDBRANCH  27  28
ENDBRANCH  25  27
ENDBRANCH  24  25
ENDBRANCH  21  24
ENDBRANCH   3  22
TORSDOF 8
ENDMDL
