MODEL 1
REMARK VINA RESULT:      -5.7      0.000      0.000
REMARK  Name = 51003457
REMARK  11 active torsions:
REMARK  status: ('A' for Active; 'I' for Inactive)
REMARK    1  A    between atoms: N_3  and  C1*_14
REMARK    2  A    between atoms: C_10  and  O_23
REMARK    3  A    between atoms: C3*_15  and  O3*_18
REMARK    4  A    between atoms: C4*_17  and  C5*_20
REMARK    5  A    between atoms: C5*_20  and  O5*_21
REMARK    6  A    between atoms: O_23  and  C_24
REMARK    7  A    between atoms: C_24  and  C_25
REMARK    8  A    between atoms: C_25  and  C_26
REMARK    9  A    between atoms: C_26  and  C_27
REMARK   10  A    between atoms: C_27  and  C_28
REMARK   11  A    between atoms: C_28  and  C_29
REMARK                            x       y       z     vdW  Elec       q    Type
REMARK                         _______ _______ _______ _____ _____    ______ ____
ROOT
ATOM      1  O   UNL     1     -36.160  27.069   2.614  0.00  0.00    -0.252 OA
ATOM      2  O   UNL     1     -30.972  27.710   6.325  0.00  0.00    -0.226 OA
ATOM      3  N   UNL     1     -35.008  25.577   3.980  0.00  0.00    -0.220 N 
ATOM      4  N   UNL     1     -34.320  27.798   3.758  0.00  0.00    -0.241 N 
ATOM      5  N   UNL     1     -33.012  26.463   5.188  0.00  0.00    -0.220 NA
ATOM      6  N   UNL     1     -32.495  28.673   4.854  0.00  0.00    -0.223 N 
ATOM      7  C   UNL     1     -33.892  25.335   4.891  0.00  0.00    +0.228 C 
ATOM      8  C   UNL     1     -35.237  26.822   3.392  0.00  0.00    +0.313 C 
ATOM      9  C   UNL     1     -33.273  27.584   4.622  0.00  0.00    +0.194 C 
ATOM     10  C   UNL     1     -31.391  28.673   5.691  0.00  0.00    +0.407 C 
ATOM     11  H   UNL     1     -34.428  28.700   3.376  0.00  0.00    +0.159 HD
ATOM     12  H   UNL     1     -32.730  29.513   4.399  0.00  0.00    +0.161 HD
ENDROOT
BRANCH   3  14
ATOM     13  O4* UNL     1     -36.428  23.961   4.897  0.00  0.00    -0.335 OA
ATOM     14  C1* UNL     1     -35.900  24.497   3.676  0.00  0.00    +0.199 C 
ATOM     15  C3* UNL     1     -35.963  22.145   3.447  0.00  0.00    +0.144 C 
ATOM     16  C2* UNL     1     -35.215  23.356   2.941  0.00  0.00    +0.083 C 
ATOM     17  C4* UNL     1     -36.307  22.526   4.880  0.00  0.00    +0.173 C 
BRANCH  15  18
ATOM     18  O3* UNL     1     -37.160  21.969   2.691  0.00  0.00    -0.382 OA
ATOM     19  H3* UNL     1     -36.990  22.189   1.761  0.00  0.00    +0.210 HD
ENDBRANCH  15  18
BRANCH  17  20
ATOM     20  C5* UNL     1     -35.222  22.135   5.874  0.00  0.00    +0.169 C 
BRANCH  20  21
ATOM     21  O5* UNL     1     -35.044  20.729   5.831  0.00  0.00    -0.379 OA
ATOM     22  H5* UNL     1     -35.009  20.379   6.735  0.00  0.00    +0.211 HD
ENDBRANCH  20  21
ENDBRANCH  17  20
ENDBRANCH   3  14
BRANCH  10  23
ATOM     23  O   UNL     1     -30.818  29.919   5.714  0.00  0.00    -0.434 OA
BRANCH  23  24
ATOM     24  C   UNL     1     -31.636  30.995   5.274  0.00  0.00    +0.210 C 
BRANCH  24  25
ATOM     25  C   UNL     1     -30.841  31.851   4.297  0.00  0.00    +0.048 C 
BRANCH  25  26
ATOM     26  C   UNL     1     -31.423  31.782   2.887  0.00  0.00    +0.004 C 
BRANCH  26  27
ATOM     27  C   UNL     1     -32.267  33.020   2.574  0.00  0.00    +0.000 C 
BRANCH  27  28
ATOM     28  C   UNL     1     -33.742  32.702   2.316  0.00  0.00    +0.000 C 
BRANCH  28  29
ATOM     29  C   UNL     1     -34.077  31.216   2.452  0.00  0.00    +0.000 C 
ATOM     30  C   UNL     1     -35.542  31.008   2.802  0.00  0.00    +0.000 C 
ENDBRANCH  28  29
ENDBRANCH  27  28
ENDBRANCH  26  27
ENDBRANCH  25  26
ENDBRANCH  24  25
ENDBRANCH  23  24
ENDBRANCH  10  23
TORSDOF 11
ENDMDL
MODEL 2
REMARK VINA RESULT:      -5.7      4.657      9.900
REMARK  Name = 51003457
REMARK  11 active torsions:
REMARK  status: ('A' for Active; 'I' for Inactive)
REMARK    1  A    between atoms: N_3  and  C1*_14
REMARK    2  A    between atoms: C_10  and  O_23
REMARK    3  A    between atoms: C3*_15  and  O3*_18
REMARK    4  A    between atoms: C4*_17  and  C5*_20
REMARK    5  A    between atoms: C5*_20  and  O5*_21
REMARK    6  A    between atoms: O_23  and  C_24
REMARK    7  A    between atoms: C_24  and  C_25
REMARK    8  A    between atoms: C_25  and  C_26
REMARK    9  A    between atoms: C_26  and  C_27
REMARK   10  A    between atoms: C_27  and  C_28
REMARK   11  A    between atoms: C_28  and  C_29
REMARK                            x       y       z     vdW  Elec       q    Type
REMARK                         _______ _______ _______ _____ _____    ______ ____
ROOT
ATOM      1  O   UNL     1     -35.100  21.109   4.932  0.00  0.00    -0.252 OA
ATOM      2  O   UNL     1     -37.700  20.015  -0.825  0.00  0.00    -0.226 OA
ATOM      3  N   UNL     1     -36.060  22.516   3.345  0.00  0.00    -0.220 N 
ATOM      4  N   UNL     1     -35.900  20.214   2.986  0.00  0.00    -0.241 N 
ATOM      5  N   UNL     1     -36.904  21.449   1.252  0.00  0.00    -0.220 NA
ATOM      6  N   UNL     1     -36.667  19.174   1.082  0.00  0.00    -0.223 N 
ATOM      7  C   UNL     1     -36.696  22.664   2.038  0.00  0.00    +0.228 C 
ATOM      8  C   UNL     1     -35.645  21.279   3.840  0.00  0.00    +0.313 C 
ATOM      9  C   UNL     1     -36.506  20.340   1.759  0.00  0.00    +0.194 C 
ATOM     10  C   UNL     1     -37.255  19.078  -0.170  0.00  0.00    +0.407 C 
ATOM     11  H   UNL     1     -35.630  19.313   3.278  0.00  0.00    +0.159 HD
ATOM     12  H   UNL     1     -36.348  18.346   1.507  0.00  0.00    +0.161 HD
ENDROOT
BRANCH   3  14
ATOM     13  O4* UNL     1     -37.121  24.282   4.452  0.00  0.00    -0.335 OA
ATOM     14  C1* UNL     1     -35.852  23.685   4.149  0.00  0.00    +0.199 C 
ATOM     15  C3* UNL     1     -35.584  26.028   3.992  0.00  0.00    +0.144 C 
ATOM     16  C2* UNL     1     -35.011  24.739   3.450  0.00  0.00    +0.083 C 
ATOM     17  C4* UNL     1     -37.057  25.696   4.182  0.00  0.00    +0.173 C 
BRANCH  15  18
ATOM     18  O3* UNL     1     -34.987  26.327   5.252  0.00  0.00    -0.382 OA
ATOM     19  H3* UNL     1     -34.116  25.902   5.306  0.00  0.00    +0.210 HD
ENDBRANCH  15  18
BRANCH  17  20
ATOM     20  C5* UNL     1     -37.893  25.974   2.940  0.00  0.00    +0.169 C 
BRANCH  20  21
ATOM     21  O5* UNL     1     -39.166  26.452   3.341  0.00  0.00    -0.379 OA
ATOM     22  H5* UNL     1     -39.061  27.080   4.073  0.00  0.00    +0.211 HD
ENDBRANCH  20  21
ENDBRANCH  17  20
ENDBRANCH   3  14
BRANCH  10  23
ATOM     23  O   UNL     1     -37.270  17.772  -0.584  0.00  0.00    -0.434 OA
BRANCH  23  24
ATOM     24  C   UNL     1     -36.080  17.027  -0.359  0.00  0.00    +0.210 C 
BRANCH  24  25
ATOM     25  C   UNL     1     -35.129  17.254  -1.526  0.00  0.00    +0.048 C 
BRANCH  25  26
ATOM     26  C   UNL     1     -33.758  17.731  -1.051  0.00  0.00    +0.004 C 
BRANCH  26  27
ATOM     27  C   UNL     1     -33.519  17.359   0.414  0.00  0.00    +0.000 C 
BRANCH  27  28
ATOM     28  C   UNL     1     -33.039  18.534   1.271  0.00  0.00    +0.000 C 
BRANCH  28  29
ATOM     29  C   UNL     1     -32.339  19.629   0.464  0.00  0.00    +0.000 C 
ATOM     30  C   UNL     1     -33.196  20.882   0.371  0.00  0.00    +0.000 C 
ENDBRANCH  28  29
ENDBRANCH  27  28
ENDBRANCH  26  27
ENDBRANCH  25  26
ENDBRANCH  24  25
ENDBRANCH  23  24
ENDBRANCH  10  23
TORSDOF 11
ENDMDL
MODEL 3
REMARK VINA RESULT:      -5.7      3.087      4.781
REMARK  Name = 51003457
REMARK  11 active torsions:
REMARK  status: ('A' for Active; 'I' for Inactive)
REMARK    1  A    between atoms: N_3  and  C1*_14
REMARK    2  A    between atoms: C_10  and  O_23
REMARK    3  A    between atoms: C3*_15  and  O3*_18
REMARK    4  A    between atoms: C4*_17  and  C5*_20
REMARK    5  A    between atoms: C5*_20  and  O5*_21
REMARK    6  A    between atoms: O_23  and  C_24
REMARK    7  A    between atoms: C_24  and  C_25
REMARK    8  A    between atoms: C_25  and  C_26
REMARK    9  A    between atoms: C_26  and  C_27
REMARK   10  A    between atoms: C_27  and  C_28
REMARK   11  A    between atoms: C_28  and  C_29
REMARK                            x       y       z     vdW  Elec       q    Type
REMARK                         _______ _______ _______ _____ _____    ______ ____
ROOT
ATOM      1  O   UNL     1     -32.998  26.348   5.497  0.00  0.00    -0.252 OA
ATOM      2  O   UNL     1     -36.754  29.362   1.266  0.00  0.00    -0.226 OA
ATOM      3  N   UNL     1     -34.640  25.592   4.032  0.00  0.00    -0.220 N 
ATOM      4  N   UNL     1     -34.082  27.855   4.163  0.00  0.00    -0.241 N 
ATOM      5  N   UNL     1     -35.770  27.309   2.616  0.00  0.00    -0.220 NA
ATOM      6  N   UNL     1     -35.082  29.482   2.879  0.00  0.00    -0.223 N 
ATOM      7  C   UNL     1     -35.637  25.908   3.012  0.00  0.00    +0.228 C 
ATOM      8  C   UNL     1     -33.846  26.569   4.630  0.00  0.00    +0.313 C 
ATOM      9  C   UNL     1     -35.010  28.164   3.198  0.00  0.00    +0.194 C 
ATOM     10  C   UNL     1     -35.949  30.005   1.932  0.00  0.00    +0.407 C 
ATOM     11  H   UNL     1     -33.552  28.592   4.548  0.00  0.00    +0.159 HD
ATOM     12  H   UNL     1     -34.482  30.104   3.349  0.00  0.00    +0.161 HD
ENDROOT
BRANCH   3  14
ATOM     13  O4* UNL     1     -34.729  23.367   3.313  0.00  0.00    -0.335 OA
ATOM     14  C1* UNL     1     -34.473  24.226   4.434  0.00  0.00    +0.199 C 
ATOM     15  C3* UNL     1     -35.684  22.361   5.235  0.00  0.00    +0.144 C 
ATOM     16  C2* UNL     1     -35.428  23.818   5.544  0.00  0.00    +0.083 C 
ATOM     17  C4* UNL     1     -35.628  22.315   3.715  0.00  0.00    +0.173 C 
BRANCH  15  18
ATOM     18  O3* UNL     1     -34.638  21.562   5.784  0.00  0.00    -0.382 OA
ATOM     19  H3* UNL     1     -34.793  20.630   5.563  0.00  0.00    +0.210 HD
ENDBRANCH  15  18
BRANCH  17  20
ATOM     20  C5* UNL     1     -36.978  22.579   3.063  0.00  0.00    +0.169 C 
BRANCH  20  21
ATOM     21  O5* UNL     1     -37.584  21.337   2.745  0.00  0.00    -0.379 OA
ATOM     22  H5* UNL     1     -37.433  21.133   1.808  0.00  0.00    +0.211 HD
ENDBRANCH  20  21
ENDBRANCH  17  20
ENDBRANCH   3  14
BRANCH  10  23
ATOM     23  O   UNL     1     -35.782  31.363   1.841  0.00  0.00    -0.434 OA
BRANCH  23  24
ATOM     24  C   UNL     1     -36.552  32.025   0.846  0.00  0.00    +0.210 C 
BRANCH  24  25
ATOM     25  C   UNL     1     -37.493  33.009   1.525  0.00  0.00    +0.048 C 
BRANCH  25  26
ATOM     26  C   UNL     1     -37.587  34.324   0.754  0.00  0.00    +0.004 C 
BRANCH  26  27
ATOM     27  C   UNL     1     -37.760  35.512   1.704  0.00  0.00    +0.000 C 
BRANCH  27  28
ATOM     28  C   UNL     1     -38.970  35.377   2.633  0.00  0.00    +0.000 C 
BRANCH  28  29
ATOM     29  C   UNL     1     -40.275  35.872   2.009  0.00  0.00    +0.000 C 
ATOM     30  C   UNL     1     -41.392  34.853   2.179  0.00  0.00    +0.000 C 
ENDBRANCH  28  29
ENDBRANCH  27  28
ENDBRANCH  26  27
ENDBRANCH  25  26
ENDBRANCH  24  25
ENDBRANCH  23  24
ENDBRANCH  10  23
TORSDOF 11
ENDMDL
MODEL 4
REMARK VINA RESULT:      -5.6      0.633      1.156
REMARK  Name = 51003457
REMARK  11 active torsions:
REMARK  status: ('A' for Active; 'I' for Inactive)
REMARK    1  A    between atoms: N_3  and  C1*_14
REMARK    2  A    between atoms: C_10  and  O_23
REMARK    3  A    between atoms: C3*_15  and  O3*_18
REMARK    4  A    between atoms: C4*_17  and  C5*_20
REMARK    5  A    between atoms: C5*_20  and  O5*_21
REMARK    6  A    between atoms: O_23  and  C_24
REMARK    7  A    between atoms: C_24  and  C_25
REMARK    8  A    between atoms: C_25  and  C_26
REMARK    9  A    between atoms: C_26  and  C_27
REMARK   10  A    between atoms: C_27  and  C_28
REMARK   11  A    between atoms: C_28  and  C_29
REMARK                            x       y       z     vdW  Elec       q    Type
REMARK                         _______ _______ _______ _____ _____    ______ ____
ROOT
ATOM      1  O   UNL     1     -36.143  27.009   2.529  0.00  0.00    -0.252 OA
ATOM      2  O   UNL     1     -31.012  27.689   6.311  0.00  0.00    -0.226 OA
ATOM      3  N   UNL     1     -35.110  25.583   4.051  0.00  0.00    -0.220 N 
ATOM      4  N   UNL     1     -34.290  27.734   3.655  0.00  0.00    -0.241 N 
ATOM      5  N   UNL     1     -33.094  26.461   5.233  0.00  0.00    -0.220 NA
ATOM      6  N   UNL     1     -32.443  28.600   4.720  0.00  0.00    -0.223 N 
ATOM      7  C   UNL     1     -34.032  25.361   5.011  0.00  0.00    +0.228 C 
ATOM      8  C   UNL     1     -35.253  26.781   3.351  0.00  0.00    +0.313 C 
ATOM      9  C   UNL     1     -33.278  27.540   4.563  0.00  0.00    +0.194 C 
ATOM     10  C   UNL     1     -31.360  28.614   5.584  0.00  0.00    +0.407 C 
ATOM     11  H   UNL     1     -34.337  28.602   3.192  0.00  0.00    +0.159 HD
ATOM     12  H   UNL     1     -32.619  29.408   4.187  0.00  0.00    +0.161 HD
ENDROOT
BRANCH   3  14
ATOM     13  O4* UNL     1     -36.338  23.866   5.059  0.00  0.00    -0.335 OA
ATOM     14  C1* UNL     1     -36.056  24.531   3.820  0.00  0.00    +0.199 C 
ATOM     15  C3* UNL     1     -36.189  22.216   3.363  0.00  0.00    +0.144 C 
ATOM     16  C2* UNL     1     -35.542  23.481   2.849  0.00  0.00    +0.083 C 
ATOM     17  C4* UNL     1     -36.238  22.441   4.868  0.00  0.00    +0.173 C 
BRANCH  15  18
ATOM     18  O3* UNL     1     -37.514  22.108   2.845  0.00  0.00    -0.382 OA
ATOM     19  H3* UNL     1     -37.522  22.395   1.918  0.00  0.00    +0.210 HD
ENDBRANCH  15  18
BRANCH  17  20
ATOM     20  C5* UNL     1     -34.982  21.960   5.581  0.00  0.00    +0.169 C 
BRANCH  20  21
ATOM     21  O5* UNL     1     -35.124  20.582   5.882  0.00  0.00    -0.379 OA
ATOM     22  H5* UNL     1     -34.925  20.432   6.819  0.00  0.00    +0.211 HD
ENDBRANCH  20  21
ENDBRANCH  17  20
ENDBRANCH   3  14
BRANCH  10  23
ATOM     23  O   UNL     1     -30.717  29.823   5.513  0.00  0.00    -0.434 OA
BRANCH  23  24
ATOM     24  C   UNL     1     -31.546  30.978   5.519  0.00  0.00    +0.210 C 
BRANCH  24  25
ATOM     25  C   UNL     1     -31.015  31.970   4.495  0.00  0.00    +0.048 C 
BRANCH  25  26
ATOM     26  C   UNL     1     -31.531  31.661   3.091  0.00  0.00    +0.004 C 
BRANCH  26  27
ATOM     27  C   UNL     1     -33.058  31.568   3.070  0.00  0.00    +0.000 C 
BRANCH  27  28
ATOM     28  C   UNL     1     -33.727  32.697   2.281  0.00  0.00    +0.000 C 
BRANCH  28  29
ATOM     29  C   UNL     1     -32.849  33.941   2.137  0.00  0.00    +0.000 C 
ATOM     30  C   UNL     1     -33.691  35.202   2.013  0.00  0.00    +0.000 C 
ENDBRANCH  28  29
ENDBRANCH  27  28
ENDBRANCH  26  27
ENDBRANCH  25  26
ENDBRANCH  24  25
ENDBRANCH  23  24
ENDBRANCH  10  23
TORSDOF 11
ENDMDL
MODEL 5
REMARK VINA RESULT:      -5.6      1.693      3.268
REMARK  Name = 51003457
REMARK  11 active torsions:
REMARK  status: ('A' for Active; 'I' for Inactive)
REMARK    1  A    between atoms: N_3  and  C1*_14
REMARK    2  A    between atoms: C_10  and  O_23
REMARK    3  A    between atoms: C3*_15  and  O3*_18
REMARK    4  A    between atoms: C4*_17  and  C5*_20
REMARK    5  A    between atoms: C5*_20  and  O5*_21
REMARK    6  A    between atoms: O_23  and  C_24
REMARK    7  A    between atoms: C_24  and  C_25
REMARK    8  A    between atoms: C_25  and  C_26
REMARK    9  A    between atoms: C_26  and  C_27
REMARK   10  A    between atoms: C_27  and  C_28
REMARK   11  A    between atoms: C_28  and  C_29
REMARK                            x       y       z     vdW  Elec       q    Type
REMARK                         _______ _______ _______ _____ _____    ______ ____
ROOT
ATOM      1  O   UNL     1     -36.074  27.108   2.476  0.00  0.00    -0.252 OA
ATOM      2  O   UNL     1     -31.186  27.662   6.586  0.00  0.00    -0.226 OA
ATOM      3  N   UNL     1     -34.945  25.559   3.797  0.00  0.00    -0.220 N 
ATOM      4  N   UNL     1     -34.354  27.818   3.803  0.00  0.00    -0.241 N 
ATOM      5  N   UNL     1     -33.081  26.427   5.212  0.00  0.00    -0.220 NA
ATOM      6  N   UNL     1     -32.651  28.677   5.092  0.00  0.00    -0.223 N 
ATOM      7  C   UNL     1     -33.883  25.290   4.763  0.00  0.00    +0.228 C 
ATOM      8  C   UNL     1     -35.194  26.837   3.295  0.00  0.00    +0.313 C 
ATOM      9  C   UNL     1     -33.358  27.579   4.719  0.00  0.00    +0.194 C 
ATOM     10  C   UNL     1     -31.608  28.656   6.003  0.00  0.00    +0.407 C 
ATOM     11  H   UNL     1     -34.479  28.743   3.487  0.00  0.00    +0.159 HD
ATOM     12  H   UNL     1     -32.897  29.541   4.690  0.00  0.00    +0.161 HD
ENDROOT
BRANCH   3  14
ATOM     13  O4* UNL     1     -36.415  23.870   4.472  0.00  0.00    -0.335 OA
ATOM     14  C1* UNL     1     -35.760  24.470   3.345  0.00  0.00    +0.199 C 
ATOM     15  C3* UNL     1     -35.724  22.129   3.018  0.00  0.00    +0.144 C 
ATOM     16  C2* UNL     1     -34.957  23.379   2.655  0.00  0.00    +0.083 C 
ATOM     17  C4* UNL     1     -36.249  22.440   4.413  0.00  0.00    +0.173 C 
BRANCH  15  18
ATOM     18  O3* UNL     1     -36.815  21.955   2.116  0.00  0.00    -0.382 OA
ATOM     19  H3* UNL     1     -37.637  21.845   2.621  0.00  0.00    +0.210 HD
ENDBRANCH  15  18
BRANCH  17  20
ATOM     20  C5* UNL     1     -35.280  22.036   5.515  0.00  0.00    +0.169 C 
BRANCH  20  21
ATOM     21  O5* UNL     1     -35.198  20.621   5.559  0.00  0.00    -0.379 OA
ATOM     22  H5* UNL     1     -35.975  20.265   6.020  0.00  0.00    +0.211 HD
ENDBRANCH  20  21
ENDBRANCH  17  20
ENDBRANCH   3  14
BRANCH  10  23
ATOM     23  O   UNL     1     -31.100  29.919   6.166  0.00  0.00    -0.434 OA
BRANCH  23  24
ATOM     24  C   UNL     1     -31.080  30.744   5.008  0.00  0.00    +0.210 C 
BRANCH  24  25
ATOM     25  C   UNL     1     -29.708  31.391   4.886  0.00  0.00    +0.048 C 
BRANCH  25  26
ATOM     26  C   UNL     1     -28.656  30.393   4.407  0.00  0.00    +0.004 C 
BRANCH  26  27
ATOM     27  C   UNL     1     -27.687  30.025   5.533  0.00  0.00    +0.000 C 
BRANCH  27  28
ATOM     28  C   UNL     1     -27.760  28.551   5.942  0.00  0.00    +0.000 C 
BRANCH  28  29
ATOM     29  C   UNL     1     -27.814  28.342   7.456  0.00  0.00    +0.000 C 
ATOM     30  C   UNL     1     -28.265  29.606   8.174  0.00  0.00    +0.000 C 
ENDBRANCH  28  29
ENDBRANCH  27  28
ENDBRANCH  26  27
ENDBRANCH  25  26
ENDBRANCH  24  25
ENDBRANCH  23  24
ENDBRANCH  10  23
TORSDOF 11
ENDMDL
MODEL 6
REMARK VINA RESULT:      -5.5      2.730      3.755
REMARK  Name = 51003457
REMARK  11 active torsions:
REMARK  status: ('A' for Active; 'I' for Inactive)
REMARK    1  A    between atoms: N_3  and  C1*_14
REMARK    2  A    between atoms: C_10  and  O_23
REMARK    3  A    between atoms: C3*_15  and  O3*_18
REMARK    4  A    between atoms: C4*_17  and  C5*_20
REMARK    5  A    between atoms: C5*_20  and  O5*_21
REMARK    6  A    between atoms: O_23  and  C_24
REMARK    7  A    between atoms: C_24  and  C_25
REMARK    8  A    between atoms: C_25  and  C_26
REMARK    9  A    between atoms: C_26  and  C_27
REMARK   10  A    between atoms: C_27  and  C_28
REMARK   11  A    between atoms: C_28  and  C_29
REMARK                            x       y       z     vdW  Elec       q    Type
REMARK                         _______ _______ _______ _____ _____    ______ ____
ROOT
ATOM      1  O   UNL     1     -39.709  26.188   2.978  0.00  0.00    -0.252 OA
ATOM      2  O   UNL     1     -33.617  25.197   4.711  0.00  0.00    -0.226 OA
ATOM      3  N   UNL     1     -38.306  24.338   2.812  0.00  0.00    -0.220 N 
ATOM      4  N   UNL     1     -37.565  26.340   3.758  0.00  0.00    -0.241 N 
ATOM      5  N   UNL     1     -35.984  24.598   3.689  0.00  0.00    -0.220 NA
ATOM      6  N   UNL     1     -35.440  26.636   4.590  0.00  0.00    -0.223 N 
ATOM      7  C   UNL     1     -36.988  23.752   3.047  0.00  0.00    +0.228 C 
ATOM      8  C   UNL     1     -38.614  25.652   3.163  0.00  0.00    +0.313 C 
ATOM      9  C   UNL     1     -36.325  25.797   3.993  0.00  0.00    +0.194 C 
ATOM     10  C   UNL     1     -34.138  26.289   4.915  0.00  0.00    +0.407 C 
ATOM     11  H   UNL     1     -37.719  27.275   4.028  0.00  0.00    +0.159 HD
ATOM     12  H   UNL     1     -35.742  27.548   4.806  0.00  0.00    +0.161 HD
ENDROOT
BRANCH   3  14
ATOM     13  O4* UNL     1     -39.112  22.158   2.549  0.00  0.00    -0.335 OA
ATOM     14  C1* UNL     1     -39.320  23.533   2.197  0.00  0.00    +0.199 C 
ATOM     15  C3* UNL     1     -39.751  22.237   0.267  0.00  0.00    +0.144 C 
ATOM     16  C2* UNL     1     -39.301  23.619   0.680  0.00  0.00    +0.083 C 
ATOM     17  C4* UNL     1     -39.175  21.347   1.359  0.00  0.00    +0.173 C 
BRANCH  15  18
ATOM     18  O3* UNL     1     -41.176  22.169   0.288  0.00  0.00    -0.382 OA
ATOM     19  H3* UNL     1     -41.467  21.726   1.101  0.00  0.00    +0.210 HD
ENDBRANCH  15  18
BRANCH  17  20
ATOM     20  C5* UNL     1     -37.765  20.863   1.047  0.00  0.00    +0.169 C 
BRANCH  20  21
ATOM     21  O5* UNL     1     -37.213  20.274   2.213  0.00  0.00    -0.379 OA
ATOM     22  H5* UNL     1     -37.701  19.464   2.429  0.00  0.00    +0.211 HD
ENDBRANCH  20  21
ENDBRANCH  17  20
ENDBRANCH   3  14
BRANCH  10  23
ATOM     23  O   UNL     1     -33.501  27.350   5.504  0.00  0.00    -0.434 OA
BRANCH  23  24
ATOM     24  C   UNL     1     -32.405  27.902   4.787  0.00  0.00    +0.210 C 
BRANCH  24  25
ATOM     25  C   UNL     1     -31.793  29.026   5.611  0.00  0.00    +0.048 C 
BRANCH  25  26
ATOM     26  C   UNL     1     -32.288  30.396   5.151  0.00  0.00    +0.004 C 
BRANCH  26  27
ATOM     27  C   UNL     1     -32.644  30.385   3.662  0.00  0.00    +0.000 C 
BRANCH  27  28
ATOM     28  C   UNL     1     -33.686  31.439   3.277  0.00  0.00    +0.000 C 
BRANCH  28  29
ATOM     29  C   UNL     1     -35.095  30.869   3.112  0.00  0.00    +0.000 C 
ATOM     30  C   UNL     1     -35.058  29.452   2.560  0.00  0.00    +0.000 C 
ENDBRANCH  28  29
ENDBRANCH  27  28
ENDBRANCH  26  27
ENDBRANCH  25  26
ENDBRANCH  24  25
ENDBRANCH  23  24
ENDBRANCH  10  23
TORSDOF 11
ENDMDL
MODEL 7
REMARK VINA RESULT:      -5.5      3.132      4.872
REMARK  Name = 51003457
REMARK  11 active torsions:
REMARK  status: ('A' for Active; 'I' for Inactive)
REMARK    1  A    between atoms: N_3  and  C1*_14
REMARK    2  A    between atoms: C_10  and  O_23
REMARK    3  A    between atoms: C3*_15  and  O3*_18
REMARK    4  A    between atoms: C4*_17  and  C5*_20
REMARK    5  A    between atoms: C5*_20  and  O5*_21
REMARK    6  A    between atoms: O_23  and  C_24
REMARK    7  A    between atoms: C_24  and  C_25
REMARK    8  A    between atoms: C_25  and  C_26
REMARK    9  A    between atoms: C_26  and  C_27
REMARK   10  A    between atoms: C_27  and  C_28
REMARK   11  A    between atoms: C_28  and  C_29
REMARK                            x       y       z     vdW  Elec       q    Type
REMARK                         _______ _______ _______ _____ _____    ______ ____
ROOT
ATOM      1  O   UNL     1     -39.689  26.222   2.993  0.00  0.00    -0.252 OA
ATOM      2  O   UNL     1     -33.819  24.899   5.206  0.00  0.00    -0.226 OA
ATOM      3  N   UNL     1     -38.372  24.304   2.914  0.00  0.00    -0.220 N 
ATOM      4  N   UNL     1     -37.612  26.255   3.949  0.00  0.00    -0.241 N 
ATOM      5  N   UNL     1     -36.121  24.434   3.984  0.00  0.00    -0.220 NA
ATOM      6  N   UNL     1     -35.551  26.431   4.958  0.00  0.00    -0.223 N 
ATOM      7  C   UNL     1     -37.110  23.649   3.248  0.00  0.00    +0.228 C 
ATOM      8  C   UNL     1     -38.642  25.628   3.259  0.00  0.00    +0.313 C 
ATOM      9  C   UNL     1     -36.425  25.645   4.277  0.00  0.00    +0.194 C 
ATOM     10  C   UNL     1     -34.300  26.013   5.384  0.00  0.00    +0.407 C 
ATOM     11  H   UNL     1     -37.741  27.192   4.221  0.00  0.00    +0.159 HD
ATOM     12  H   UNL     1     -35.824  27.354   5.163  0.00  0.00    +0.161 HD
ENDROOT
BRANCH   3  14
ATOM     13  O4* UNL     1     -39.220  22.163   2.501  0.00  0.00    -0.335 OA
ATOM     14  C1* UNL     1     -39.371  23.559   2.205  0.00  0.00    +0.199 C 
ATOM     15  C3* UNL     1     -39.726  22.369   0.194  0.00  0.00    +0.144 C 
ATOM     16  C2* UNL     1     -39.263  23.716   0.697  0.00  0.00    +0.083 C 
ATOM     17  C4* UNL     1     -39.237  21.412   1.272  0.00  0.00    +0.173 C 
BRANCH  15  18
ATOM     18  O3* UNL     1     -41.151  22.343   0.132  0.00  0.00    -0.382 OA
ATOM     19  H3* UNL     1     -41.464  23.081  -0.413  0.00  0.00    +0.210 HD
ENDBRANCH  15  18
BRANCH  17  20
ATOM     20  C5* UNL     1     -37.826  20.901   1.016  0.00  0.00    +0.169 C 
BRANCH  20  21
ATOM     21  O5* UNL     1     -37.340  20.282   2.195  0.00  0.00    -0.379 OA
ATOM     22  H5* UNL     1     -36.383  20.423   2.265  0.00  0.00    +0.211 HD
ENDBRANCH  20  21
ENDBRANCH  17  20
ENDBRANCH   3  14
BRANCH  10  23
ATOM     23  O   UNL     1     -33.661  27.033   6.040  0.00  0.00    -0.434 OA
BRANCH  23  24
ATOM     24  C   UNL     1     -32.572  27.637   5.355  0.00  0.00    +0.210 C 
BRANCH  24  25
ATOM     25  C   UNL     1     -31.620  28.241   6.378  0.00  0.00    +0.048 C 
BRANCH  25  26
ATOM     26  C   UNL     1     -31.321  29.707   6.072  0.00  0.00    +0.004 C 
BRANCH  26  27
ATOM     27  C   UNL     1     -29.815  29.978   6.076  0.00  0.00    +0.000 C 
BRANCH  27  28
ATOM     28  C   UNL     1     -28.967  28.706   6.161  0.00  0.00    +0.000 C 
BRANCH  28  29
ATOM     29  C   UNL     1     -28.069  28.654   7.398  0.00  0.00    +0.000 C 
ATOM     30  C   UNL     1     -27.750  30.051   7.909  0.00  0.00    +0.000 C 
ENDBRANCH  28  29
ENDBRANCH  27  28
ENDBRANCH  26  27
ENDBRANCH  25  26
ENDBRANCH  24  25
ENDBRANCH  23  24
ENDBRANCH  10  23
TORSDOF 11
ENDMDL
MODEL 8
REMARK VINA RESULT:      -5.5      2.811      4.953
REMARK  Name = 51003457
REMARK  11 active torsions:
REMARK  status: ('A' for Active; 'I' for Inactive)
REMARK    1  A    between atoms: N_3  and  C1*_14
REMARK    2  A    between atoms: C_10  and  O_23
REMARK    3  A    between atoms: C3*_15  and  O3*_18
REMARK    4  A    between atoms: C4*_17  and  C5*_20
REMARK    5  A    between atoms: C5*_20  and  O5*_21
REMARK    6  A    between atoms: O_23  and  C_24
REMARK    7  A    between atoms: C_24  and  C_25
REMARK    8  A    between atoms: C_25  and  C_26
REMARK    9  A    between atoms: C_26  and  C_27
REMARK   10  A    between atoms: C_27  and  C_28
REMARK   11  A    between atoms: C_28  and  C_29
REMARK                            x       y       z     vdW  Elec       q    Type
REMARK                         _______ _______ _______ _____ _____    ______ ____
ROOT
ATOM      1  O   UNL     1     -35.392  21.007   5.561  0.00  0.00    -0.252 OA
ATOM      2  O   UNL     1     -33.792  26.852   3.470  0.00  0.00    -0.226 OA
ATOM      3  N   UNL     1     -35.356  21.964   3.440  0.00  0.00    -0.220 N 
ATOM      4  N   UNL     1     -34.731  23.183   5.331  0.00  0.00    -0.241 N 
ATOM      5  N   UNL     1     -34.621  24.345   3.287  0.00  0.00    -0.220 NA
ATOM      6  N   UNL     1     -34.037  25.376   5.251  0.00  0.00    -0.223 N 
ATOM      7  C   UNL     1     -35.096  23.139   2.611  0.00  0.00    +0.228 C 
ATOM      8  C   UNL     1     -35.180  21.971   4.824  0.00  0.00    +0.313 C 
ATOM      9  C   UNL     1     -34.474  24.291   4.560  0.00  0.00    +0.194 C 
ATOM     10  C   UNL     1     -33.721  26.592   4.667  0.00  0.00    +0.407 C 
ATOM     11  H   UNL     1     -34.587  23.252   6.303  0.00  0.00    +0.159 HD
ATOM     12  H   UNL     1     -33.938  25.292   6.226  0.00  0.00    +0.161 HD
ENDROOT
BRANCH   3  14
ATOM     13  O4* UNL     1     -34.679  19.943   2.478  0.00  0.00    -0.335 OA
ATOM     14  C1* UNL     1     -35.810  20.760   2.808  0.00  0.00    +0.199 C 
ATOM     15  C3* UNL     1     -36.220  19.815   0.681  0.00  0.00    +0.144 C 
ATOM     16  C2* UNL     1     -36.571  21.022   1.519  0.00  0.00    +0.083 C 
ATOM     17  C4* UNL     1     -34.794  19.499   1.112  0.00  0.00    +0.173 C 
BRANCH  15  18
ATOM     18  O3* UNL     1     -37.080  18.728   1.018  0.00  0.00    -0.382 OA
ATOM     19  H3* UNL     1     -37.575  18.452   0.231  0.00  0.00    +0.210 HD
ENDBRANCH  15  18
BRANCH  17  20
ATOM     20  C5* UNL     1     -33.748  20.240   0.290  0.00  0.00    +0.169 C 
BRANCH  20  21
ATOM     21  O5* UNL     1     -32.458  19.873   0.750  0.00  0.00    -0.379 OA
ATOM     22  H5* UNL     1     -32.485  18.971   1.105  0.00  0.00    +0.211 HD
ENDBRANCH  20  21
ENDBRANCH  17  20
ENDBRANCH   3  14
BRANCH  10  23
ATOM     23  O   UNL     1     -33.313  27.483   5.626  0.00  0.00    -0.434 OA
BRANCH  23  24
ATOM     24  C   UNL     1     -32.203  28.305   5.290  0.00  0.00    +0.210 C 
BRANCH  24  25
ATOM     25  C   UNL     1     -31.713  29.009   6.547  0.00  0.00    +0.048 C 
BRANCH  25  26
ATOM     26  C   UNL     1     -30.907  30.263   6.212  0.00  0.00    +0.004 C 
BRANCH  26  27
ATOM     27  C   UNL     1     -29.406  29.963   6.175  0.00  0.00    +0.000 C 
BRANCH  27  28
ATOM     28  C   UNL     1     -28.896  29.249   7.431  0.00  0.00    +0.000 C 
BRANCH  28  29
ATOM     29  C   UNL     1     -28.133  27.959   7.129  0.00  0.00    +0.000 C 
ATOM     30  C   UNL     1     -28.079  27.684   5.633  0.00  0.00    +0.000 C 
ENDBRANCH  28  29
ENDBRANCH  27  28
ENDBRANCH  26  27
ENDBRANCH  25  26
ENDBRANCH  24  25
ENDBRANCH  23  24
ENDBRANCH  10  23
TORSDOF 11
ENDMDL
MODEL 9
REMARK VINA RESULT:      -5.4      2.131      3.579
REMARK  Name = 51003457
REMARK  11 active torsions:
REMARK  status: ('A' for Active; 'I' for Inactive)
REMARK    1  A    between atoms: N_3  and  C1*_14
REMARK    2  A    between atoms: C_10  and  O_23
REMARK    3  A    between atoms: C3*_15  and  O3*_18
REMARK    4  A    between atoms: C4*_17  and  C5*_20
REMARK    5  A    between atoms: C5*_20  and  O5*_21
REMARK    6  A    between atoms: O_23  and  C_24
REMARK    7  A    between atoms: C_24  and  C_25
REMARK    8  A    between atoms: C_25  and  C_26
REMARK    9  A    between atoms: C_26  and  C_27
REMARK   10  A    between atoms: C_27  and  C_28
REMARK   11  A    between atoms: C_28  and  C_29
REMARK                            x       y       z     vdW  Elec       q    Type
REMARK                         _______ _______ _______ _____ _____    ______ ____
ROOT
ATOM      1  O   UNL     1     -35.956  22.471   6.133  0.00  0.00    -0.252 OA
ATOM      2  O   UNL     1     -33.062  27.424   3.271  0.00  0.00    -0.226 OA
ATOM      3  N   UNL     1     -35.363  22.883   3.920  0.00  0.00    -0.220 N 
ATOM      4  N   UNL     1     -34.919  24.439   5.604  0.00  0.00    -0.241 N 
ATOM      5  N   UNL     1     -34.236  25.058   3.439  0.00  0.00    -0.220 NA
ATOM      6  N   UNL     1     -33.877  26.455   5.222  0.00  0.00    -0.223 N 
ATOM      7  C   UNL     1     -34.763  23.788   2.942  0.00  0.00    +0.228 C 
ATOM      8  C   UNL     1     -35.454  23.200   5.275  0.00  0.00    +0.313 C 
ATOM      9  C   UNL     1     -34.344  25.293   4.695  0.00  0.00    +0.194 C 
ATOM     10  C   UNL     1     -33.263  27.452   4.481  0.00  0.00    +0.407 C 
ATOM     11  H   UNL     1     -34.954  24.721   6.547  0.00  0.00    +0.159 HD
ATOM     12  H   UNL     1     -33.980  26.596   6.191  0.00  0.00    +0.161 HD
ENDROOT
BRANCH   3  14
ATOM     13  O4* UNL     1     -34.788  20.712   3.264  0.00  0.00    -0.335 OA
ATOM     14  C1* UNL     1     -35.877  21.623   3.470  0.00  0.00    +0.199 C 
ATOM     15  C3* UNL     1     -36.343  20.398   1.503  0.00  0.00    +0.144 C 
ATOM     16  C2* UNL     1     -36.632  21.730   2.155  0.00  0.00    +0.083 C 
ATOM     17  C4* UNL     1     -34.932  20.081   1.977  0.00  0.00    +0.173 C 
BRANCH  15  18
ATOM     18  O3* UNL     1     -37.253  19.415   1.993  0.00  0.00    -0.382 OA
ATOM     19  H3* UNL     1     -37.144  19.324   2.953  0.00  0.00    +0.210 HD
ENDBRANCH  15  18
BRANCH  17  20
ATOM     20  C5* UNL     1     -33.857  20.642   1.058  0.00  0.00    +0.169 C 
BRANCH  20  21
ATOM     21  O5* UNL     1     -32.838  19.669   0.894  0.00  0.00    -0.379 OA
ATOM     22  H5* UNL     1     -32.884  19.299  -0.001  0.00  0.00    +0.211 HD
ENDBRANCH  20  21
ENDBRANCH  17  20
ENDBRANCH   3  14
BRANCH  10  23
ATOM     23  O   UNL     1     -32.905  28.493   5.299  0.00  0.00    -0.434 OA
BRANCH  23  24
ATOM     24  C   UNL     1     -31.950  28.200   6.310  0.00  0.00    +0.210 C 
BRANCH  24  25
ATOM     25  C   UNL     1     -31.320  29.501   6.784  0.00  0.00    +0.048 C 
BRANCH  25  26
ATOM     26  C   UNL     1     -29.876  29.636   6.303  0.00  0.00    +0.004 C 
BRANCH  26  27
ATOM     27  C   UNL     1     -29.728  30.790   5.310  0.00  0.00    +0.000 C 
BRANCH  27  28
ATOM     28  C   UNL     1     -31.054  31.481   4.977  0.00  0.00    +0.000 C 
BRANCH  28  29
ATOM     29  C   UNL     1     -31.452  31.356   3.506  0.00  0.00    +0.000 C 
ATOM     30  C   UNL     1     -32.964  31.300   3.344  0.00  0.00    +0.000 C 
ENDBRANCH  28  29
ENDBRANCH  27  28
ENDBRANCH  26  27
ENDBRANCH  25  26
ENDBRANCH  24  25
ENDBRANCH  23  24
ENDBRANCH  10  23
TORSDOF 11
ENDMDL
