MODEL 1
REMARK VINA RESULT:      -6.0      0.000      0.000
REMARK  Name = 5477889
REMARK  7 active torsions:
REMARK  status: ('A' for Active; 'I' for Inactive)
REMARK    1  A    between atoms: S_1  and  C_2
REMARK    2  A    between atoms: S_1  and  C_15
REMARK    3  A    between atoms: C_2  and  C_3
REMARK    4  A    between atoms: C_3  and  N_6
REMARK    5  A    between atoms: C_15  and  C_18
REMARK    6  A    between atoms: C_20  and  N_21
REMARK    7  A    between atoms: N_21  and  C_24
REMARK                            x       y       z     vdW  Elec       q    Type
REMARK                         _______ _______ _______ _____ _____    ______ ____
ROOT
ATOM      1  S   UNL     1     -42.022  26.286   2.371  0.00  0.00    -0.131 S 
ENDROOT
BRANCH   1   2
ATOM      2  C   UNL     1     -40.288  25.828   2.066  0.00  0.00    +0.079 C 
BRANCH   2   3
ATOM      3  C   UNL     1     -39.779  24.793   3.062  0.00  0.00    +0.100 C 
BRANCH   3   6
ATOM      4  S   UNL     1     -35.717  22.924   4.170  0.00  0.00    +0.270 S 
ATOM      5  O   UNL     1     -34.907  23.092   2.918  0.00  0.00    -0.208 OA
ATOM      6  N   UNL     1     -38.667  25.300   3.822  0.00  0.00    -0.314 N 
ATOM      7  N   UNL     1     -37.259  23.399   3.596  0.00  0.00    -0.148 NA
ATOM      8  N   UNL     1     -35.366  24.404   4.957  0.00  0.00    -0.148 NA
ATOM      9  N   UNL     1     -36.510  26.444   5.372  0.00  0.00    -0.340 N 
ATOM     10  C   UNL     1     -37.521  24.590   4.039  0.00  0.00    +0.172 A 
ATOM     11  C   UNL     1     -36.393  25.188   4.850  0.00  0.00    +0.169 A 
ATOM     12  H   UNL     1     -38.735  26.204   4.205  0.00  0.00    +0.148 HD
ATOM     13  H   UNL     1     -35.771  26.829   5.898  0.00  0.00    +0.144 HD
ATOM     14  H   UNL     1     -37.331  26.967   5.221  0.00  0.00    +0.144 HD
ENDBRANCH   3   6
ENDBRANCH   2   3
ENDBRANCH   1   2
BRANCH   1  15
ATOM     15  C   UNL     1     -41.790  27.145   3.944  0.00  0.00    +0.113 C 
BRANCH  15  18
ATOM     16  S   UNL     1     -44.854  29.688   4.010  0.00  0.00    -0.055 S 
ATOM     17  N   UNL     1     -42.557  29.180   5.083  0.00  0.00    -0.384 NA
ATOM     18  C   UNL     1     -42.814  28.213   4.141  0.00  0.00    +0.111 C 
ATOM     19  C   UNL     1     -43.996  28.309   3.457  0.00  0.00    +0.121 C 
ATOM     20  C   UNL     1     -43.570  30.017   5.101  0.00  0.00    +0.243 C 
BRANCH  20  21
ATOM     21  N   UNL     1     -43.686  31.107   5.901  0.00  0.00    -0.178 NA
BRANCH  21  24
ATOM     22  N   UNL     1     -45.475  31.233   7.522  0.00  0.00    -0.370 N 
ATOM     23  N   UNL     1     -43.437  30.392   8.108  0.00  0.00    -0.370 N 
ATOM     24  C   UNL     1     -44.198  30.933   7.096  0.00  0.00    +0.196 C 
ATOM     25  H   UNL     1     -46.124  31.627   6.894  0.00  0.00    +0.159 HD
ATOM     26  H   UNL     1     -45.739  31.053   8.454  0.00  0.00    +0.159 HD
ATOM     27  H   UNL     1     -42.503  30.133   7.936  0.00  0.00    +0.159 HD
ATOM     28  H   UNL     1     -43.827  30.265   9.002  0.00  0.00    +0.159 HD
ENDBRANCH  21  24
ENDBRANCH  20  21
ENDBRANCH  15  18
ENDBRANCH   1  15
TORSDOF 7
ENDMDL
MODEL 2
REMARK VINA RESULT:      -6.0      5.204      8.271
REMARK  Name = 5477889
REMARK  7 active torsions:
REMARK  status: ('A' for Active; 'I' for Inactive)
REMARK    1  A    between atoms: S_1  and  C_2
REMARK    2  A    between atoms: S_1  and  C_15
REMARK    3  A    between atoms: C_2  and  C_3
REMARK    4  A    between atoms: C_3  and  N_6
REMARK    5  A    between atoms: C_15  and  C_18
REMARK    6  A    between atoms: C_20  and  N_21
REMARK    7  A    between atoms: N_21  and  C_24
REMARK                            x       y       z     vdW  Elec       q    Type
REMARK                         _______ _______ _______ _____ _____    ______ ____
ROOT
ATOM      1  S   UNL     1     -40.368  25.121   1.309  0.00  0.00    -0.131 S 
ENDROOT
BRANCH   1   2
ATOM      2  C   UNL     1     -40.029  25.144   3.097  0.00  0.00    +0.079 C 
BRANCH   2   3
ATOM      3  C   UNL     1     -38.656  25.722   3.418  0.00  0.00    +0.100 C 
BRANCH   3   6
ATOM      4  S   UNL     1     -34.193  25.800   4.554  0.00  0.00    +0.270 S 
ATOM      5  O   UNL     1     -34.171  26.618   5.812  0.00  0.00    -0.208 OA
ATOM      6  N   UNL     1     -37.815  24.749   4.064  0.00  0.00    -0.314 N 
ATOM      7  N   UNL     1     -35.819  26.037   4.070  0.00  0.00    -0.148 NA
ATOM      8  N   UNL     1     -34.439  24.239   5.215  0.00  0.00    -0.148 NA
ATOM      9  N   UNL     1     -36.244  22.702   5.369  0.00  0.00    -0.340 N 
ATOM     10  C   UNL     1     -36.494  24.960   4.331  0.00  0.00    +0.172 A 
ATOM     11  C   UNL     1     -35.671  23.889   5.013  0.00  0.00    +0.169 A 
ATOM     12  H   UNL     1     -38.213  23.888   4.326  0.00  0.00    +0.148 HD
ATOM     13  H   UNL     1     -35.703  22.009   5.814  0.00  0.00    +0.144 HD
ATOM     14  H   UNL     1     -37.197  22.539   5.182  0.00  0.00    +0.144 HD
ENDBRANCH   3   6
ENDBRANCH   2   3
ENDBRANCH   1   2
BRANCH   1  15
ATOM     15  C   UNL     1     -39.957  23.391   0.990  0.00  0.00    +0.113 C 
BRANCH  15  18
ATOM     16  S   UNL     1     -35.993  23.235   0.645  0.00  0.00    -0.055 S 
ATOM     17  N   UNL     1     -38.006  22.218   1.908  0.00  0.00    -0.384 NA
ATOM     18  C   UNL     1     -38.482  23.162   1.031  0.00  0.00    +0.111 C 
ATOM     19  C   UNL     1     -37.560  23.820   0.262  0.00  0.00    +0.121 C 
ATOM     20  C   UNL     1     -36.698  22.170   1.791  0.00  0.00    +0.243 C 
BRANCH  20  21
ATOM     21  N   UNL     1     -35.867  21.358   2.492  0.00  0.00    -0.178 NA
BRANCH  21  24
ATOM     22  N   UNL     1     -34.418  19.534   1.842  0.00  0.00    -0.370 N 
ATOM     23  N   UNL     1     -36.680  19.360   1.602  0.00  0.00    -0.370 N 
ATOM     24  C   UNL     1     -35.637  20.159   2.011  0.00  0.00    +0.196 C 
ATOM     25  H   UNL     1     -33.588  19.998   2.097  0.00  0.00    +0.159 HD
ATOM     26  H   UNL     1     -34.379  18.625   1.468  0.00  0.00    +0.159 HD
ATOM     27  H   UNL     1     -37.606  19.688   1.670  0.00  0.00    +0.159 HD
ATOM     28  H   UNL     1     -36.500  18.462   1.243  0.00  0.00    +0.159 HD
ENDBRANCH  21  24
ENDBRANCH  20  21
ENDBRANCH  15  18
ENDBRANCH   1  15
TORSDOF 7
ENDMDL
MODEL 3
REMARK VINA RESULT:      -5.9      4.680      7.892
REMARK  Name = 5477889
REMARK  7 active torsions:
REMARK  status: ('A' for Active; 'I' for Inactive)
REMARK    1  A    between atoms: S_1  and  C_2
REMARK    2  A    between atoms: S_1  and  C_15
REMARK    3  A    between atoms: C_2  and  C_3
REMARK    4  A    between atoms: C_3  and  N_6
REMARK    5  A    between atoms: C_15  and  C_18
REMARK    6  A    between atoms: C_20  and  N_21
REMARK    7  A    between atoms: N_21  and  C_24
REMARK                            x       y       z     vdW  Elec       q    Type
REMARK                         _______ _______ _______ _____ _____    ______ ____
ROOT
ATOM      1  S   UNL     1     -36.848  22.854   0.962  0.00  0.00    -0.131 S 
ENDROOT
BRANCH   1   2
ATOM      2  C   UNL     1     -38.252  21.696   0.993  0.00  0.00    +0.079 C 
BRANCH   2   3
ATOM      3  C   UNL     1     -39.251  22.027   2.095  0.00  0.00    +0.100 C 
BRANCH   3   6
ATOM      4  S   UNL     1     -41.637  25.897   1.353  0.00  0.00    +0.270 S 
ATOM      5  O   UNL     1     -42.820  25.753   2.263  0.00  0.00    -0.208 OA
ATOM      6  N   UNL     1     -39.071  23.371   2.579  0.00  0.00    -0.314 N 
ATOM      7  N   UNL     1     -40.955  24.332   1.496  0.00  0.00    -0.148 NA
ATOM      8  N   UNL     1     -40.531  26.662   2.414  0.00  0.00    -0.148 NA
ATOM      9  N   UNL     1     -38.589  26.024   3.625  0.00  0.00    -0.340 N 
ATOM     10  C   UNL     1     -39.903  24.403   2.252  0.00  0.00    +0.172 A 
ATOM     11  C   UNL     1     -39.651  25.790   2.798  0.00  0.00    +0.169 A 
ATOM     12  H   UNL     1     -38.311  23.555   3.176  0.00  0.00    +0.148 HD
ATOM     13  H   UNL     1     -38.431  26.929   3.978  0.00  0.00    +0.144 HD
ATOM     14  H   UNL     1     -37.984  25.287   3.869  0.00  0.00    +0.144 HD
ENDBRANCH   3   6
ENDBRANCH   2   3
ENDBRANCH   1   2
BRANCH   1  15
ATOM     15  C   UNL     1     -35.707  21.904   1.992  0.00  0.00    +0.113 C 
BRANCH  15  18
ATOM     16  S   UNL     1     -35.448  22.685   5.888  0.00  0.00    -0.055 S 
ATOM     17  N   UNL     1     -35.972  23.748   3.590  0.00  0.00    -0.384 NA
ATOM     18  C   UNL     1     -35.672  22.422   3.392  0.00  0.00    +0.111 C 
ATOM     19  C   UNL     1     -35.363  21.681   4.500  0.00  0.00    +0.121 C 
ATOM     20  C   UNL     1     -35.886  24.001   4.877  0.00  0.00    +0.243 C 
BRANCH  20  21
ATOM     21  N   UNL     1     -36.110  25.203   5.467  0.00  0.00    -0.178 NA
BRANCH  21  24
ATOM     22  N   UNL     1     -35.357  27.111   4.187  0.00  0.00    -0.370 N 
ATOM     23  N   UNL     1     -34.153  26.367   5.976  0.00  0.00    -0.370 N 
ATOM     24  C   UNL     1     -35.274  26.178   5.200  0.00  0.00    +0.196 C 
ATOM     25  H   UNL     1     -36.114  27.089   3.558  0.00  0.00    +0.159 HD
ATOM     26  H   UNL     1     -34.659  27.799   4.094  0.00  0.00    +0.159 HD
ATOM     27  H   UNL     1     -33.975  25.767   6.736  0.00  0.00    +0.159 HD
ATOM     28  H   UNL     1     -33.531  27.101   5.771  0.00  0.00    +0.159 HD
ENDBRANCH  21  24
ENDBRANCH  20  21
ENDBRANCH  15  18
ENDBRANCH   1  15
TORSDOF 7
ENDMDL
MODEL 4
REMARK VINA RESULT:      -5.8      1.714      2.099
REMARK  Name = 5477889
REMARK  7 active torsions:
REMARK  status: ('A' for Active; 'I' for Inactive)
REMARK    1  A    between atoms: S_1  and  C_2
REMARK    2  A    between atoms: S_1  and  C_15
REMARK    3  A    between atoms: C_2  and  C_3
REMARK    4  A    between atoms: C_3  and  N_6
REMARK    5  A    between atoms: C_15  and  C_18
REMARK    6  A    between atoms: C_20  and  N_21
REMARK    7  A    between atoms: N_21  and  C_24
REMARK                            x       y       z     vdW  Elec       q    Type
REMARK                         _______ _______ _______ _____ _____    ______ ____
ROOT
ATOM      1  S   UNL     1     -41.049  25.899   2.201  0.00  0.00    -0.131 S 
ENDROOT
BRANCH   1   2
ATOM      2  C   UNL     1     -39.800  24.641   2.608  0.00  0.00    +0.079 C 
BRANCH   2   3
ATOM      3  C   UNL     1     -38.464  25.258   3.005  0.00  0.00    +0.100 C 
BRANCH   3   6
ATOM      4  S   UNL     1     -34.191  25.561   4.698  0.00  0.00    +0.270 S 
ATOM      5  O   UNL     1     -34.359  26.432   5.907  0.00  0.00    -0.208 OA
ATOM      6  N   UNL     1     -37.682  24.348   3.799  0.00  0.00    -0.314 N 
ATOM      7  N   UNL     1     -35.747  25.712   3.998  0.00  0.00    -0.148 NA
ATOM      8  N   UNL     1     -34.467  24.021   5.395  0.00  0.00    -0.148 NA
ATOM      9  N   UNL     1     -36.225  22.422   5.391  0.00  0.00    -0.340 N 
ATOM     10  C   UNL     1     -36.414  24.622   4.223  0.00  0.00    +0.172 A 
ATOM     11  C   UNL     1     -35.651  23.615   5.055  0.00  0.00    +0.169 A 
ATOM     12  H   UNL     1     -38.082  23.484   4.050  0.00  0.00    +0.148 HD
ATOM     13  H   UNL     1     -35.724  21.771   5.934  0.00  0.00    +0.144 HD
ATOM     14  H   UNL     1     -37.139  22.214   5.092  0.00  0.00    +0.144 HD
ENDBRANCH   3   6
ENDBRANCH   2   3
ENDBRANCH   1   2
BRANCH   1  15
ATOM     15  C   UNL     1     -41.308  26.554   3.865  0.00  0.00    +0.113 C 
BRANCH  15  18
ATOM     16  S   UNL     1     -44.977  28.099   3.947  0.00  0.00    -0.055 S 
ATOM     17  N   UNL     1     -42.478  28.673   4.273  0.00  0.00    -0.384 NA
ATOM     18  C   UNL     1     -42.574  27.341   3.953  0.00  0.00    +0.111 C 
ATOM     19  C   UNL     1     -43.831  26.840   3.740  0.00  0.00    +0.121 C 
ATOM     20  C   UNL     1     -43.690  29.179   4.299  0.00  0.00    +0.243 C 
BRANCH  20  21
ATOM     21  N   UNL     1     -44.008  30.469   4.577  0.00  0.00    -0.178 NA
BRANCH  21  24
ATOM     22  N   UNL     1     -43.442  30.170   6.909  0.00  0.00    -0.370 N 
ATOM     23  N   UNL     1     -43.815  32.256   6.065  0.00  0.00    -0.370 N 
ATOM     24  C   UNL     1     -43.765  30.908   5.789  0.00  0.00    +0.196 C 
ATOM     25  H   UNL     1     -43.372  29.189   6.848  0.00  0.00    +0.159 HD
ATOM     26  H   UNL     1     -43.281  30.623   7.768  0.00  0.00    +0.159 HD
ATOM     27  H   UNL     1     -44.036  32.896   5.350  0.00  0.00    +0.159 HD
ATOM     28  H   UNL     1     -43.632  32.578   6.976  0.00  0.00    +0.159 HD
ENDBRANCH  21  24
ENDBRANCH  20  21
ENDBRANCH  15  18
ENDBRANCH   1  15
TORSDOF 7
ENDMDL
MODEL 5
REMARK VINA RESULT:      -5.8      7.223     11.778
REMARK  Name = 5477889
REMARK  7 active torsions:
REMARK  status: ('A' for Active; 'I' for Inactive)
REMARK    1  A    between atoms: S_1  and  C_2
REMARK    2  A    between atoms: S_1  and  C_15
REMARK    3  A    between atoms: C_2  and  C_3
REMARK    4  A    between atoms: C_3  and  N_6
REMARK    5  A    between atoms: C_15  and  C_18
REMARK    6  A    between atoms: C_20  and  N_21
REMARK    7  A    between atoms: N_21  and  C_24
REMARK                            x       y       z     vdW  Elec       q    Type
REMARK                         _______ _______ _______ _____ _____    ______ ____
ROOT
ATOM      1  S   UNL     1     -36.180  21.277   0.445  0.00  0.00    -0.131 S 
ENDROOT
BRANCH   1   2
ATOM      2  C   UNL     1     -37.629  21.289   1.545  0.00  0.00    +0.079 C 
BRANCH   2   3
ATOM      3  C   UNL     1     -37.757  22.596   2.318  0.00  0.00    +0.100 C 
BRANCH   3   6
ATOM      4  S   UNL     1     -34.748  25.359   4.448  0.00  0.00    +0.270 S 
ATOM      5  O   UNL     1     -35.611  26.466   4.977  0.00  0.00    -0.208 OA
ATOM      6  N   UNL     1     -37.121  22.507   3.606  0.00  0.00    -0.314 N 
ATOM      7  N   UNL     1     -35.886  24.532   3.469  0.00  0.00    -0.148 NA
ATOM      8  N   UNL     1     -34.826  24.262   5.761  0.00  0.00    -0.148 NA
ATOM      9  N   UNL     1     -35.914  22.200   6.217  0.00  0.00    -0.340 N 
ATOM     10  C   UNL     1     -36.249  23.446   4.078  0.00  0.00    +0.172 A 
ATOM     11  C   UNL     1     -35.618  23.285   5.443  0.00  0.00    +0.169 A 
ATOM     12  H   UNL     1     -37.324  21.731   4.176  0.00  0.00    +0.148 HD
ATOM     13  H   UNL     1     -35.500  22.101   7.105  0.00  0.00    +0.144 HD
ATOM     14  H   UNL     1     -36.542  21.517   5.887  0.00  0.00    +0.144 HD
ENDBRANCH   3   6
ENDBRANCH   2   3
ENDBRANCH   1   2
BRANCH   1  15
ATOM     15  C   UNL     1     -34.992  20.540   1.591  0.00  0.00    +0.113 C 
BRANCH  15  18
ATOM     16  S   UNL     1     -32.890  17.357   0.447  0.00  0.00    -0.055 S 
ATOM     17  N   UNL     1     -35.179  18.532   0.191  0.00  0.00    -0.384 NA
ATOM     18  C   UNL     1     -34.400  19.286   1.035  0.00  0.00    +0.111 C 
ATOM     19  C   UNL     1     -33.139  18.825   1.299  0.00  0.00    +0.121 C 
ATOM     20  C   UNL     1     -34.481  17.483  -0.184  0.00  0.00    +0.243 C 
BRANCH  20  21
ATOM     21  N   UNL     1     -34.908  16.502  -1.019  0.00  0.00    -0.178 NA
BRANCH  21  24
ATOM     22  N   UNL     1     -35.083  14.104  -0.765  0.00  0.00    -0.370 N 
ATOM     23  N   UNL     1     -36.365  15.500   0.504  0.00  0.00    -0.370 N 
ATOM     24  C   UNL     1     -35.404  15.414  -0.478  0.00  0.00    +0.196 C 
ATOM     25  H   UNL     1     -34.406  13.902  -1.451  0.00  0.00    +0.159 HD
ATOM     26  H   UNL     1     -35.530  13.371  -0.284  0.00  0.00    +0.159 HD
ATOM     27  H   UNL     1     -36.684  16.382   0.803  0.00  0.00    +0.159 HD
ATOM     28  H   UNL     1     -36.732  14.680   0.905  0.00  0.00    +0.159 HD
ENDBRANCH  21  24
ENDBRANCH  20  21
ENDBRANCH  15  18
ENDBRANCH   1  15
TORSDOF 7
ENDMDL
MODEL 6
REMARK VINA RESULT:      -5.8      5.110      7.933
REMARK  Name = 5477889
REMARK  7 active torsions:
REMARK  status: ('A' for Active; 'I' for Inactive)
REMARK    1  A    between atoms: S_1  and  C_2
REMARK    2  A    between atoms: S_1  and  C_15
REMARK    3  A    between atoms: C_2  and  C_3
REMARK    4  A    between atoms: C_3  and  N_6
REMARK    5  A    between atoms: C_15  and  C_18
REMARK    6  A    between atoms: C_20  and  N_21
REMARK    7  A    between atoms: N_21  and  C_24
REMARK                            x       y       z     vdW  Elec       q    Type
REMARK                         _______ _______ _______ _____ _____    ______ ____
ROOT
ATOM      1  S   UNL     1     -39.352  24.764   0.439  0.00  0.00    -0.131 S 
ENDROOT
BRANCH   1   2
ATOM      2  C   UNL     1     -39.651  26.000   1.741  0.00  0.00    +0.079 C 
BRANCH   2   3
ATOM      3  C   UNL     1     -39.067  25.579   3.084  0.00  0.00    +0.100 C 
BRANCH   3   6
ATOM      4  S   UNL     1     -35.417  24.286   5.580  0.00  0.00    +0.270 S 
ATOM      5  O   UNL     1     -34.723  23.298   4.690  0.00  0.00    -0.208 OA
ATOM      6  N   UNL     1     -37.799  26.215   3.327  0.00  0.00    -0.314 N 
ATOM      7  N   UNL     1     -36.870  24.514   4.701  0.00  0.00    -0.148 NA
ATOM      8  N   UNL     1     -34.673  25.737   5.056  0.00  0.00    -0.148 NA
ATOM      9  N   UNL     1     -35.297  27.608   3.731  0.00  0.00    -0.340 N 
ATOM     10  C   UNL     1     -36.819  25.663   4.101  0.00  0.00    +0.172 A 
ATOM     11  C   UNL     1     -35.511  26.391   4.313  0.00  0.00    +0.169 A 
ATOM     12  H   UNL     1     -37.630  27.092   2.915  0.00  0.00    +0.148 HD
ATOM     13  H   UNL     1     -34.442  28.077   3.872  0.00  0.00    +0.144 HD
ATOM     14  H   UNL     1     -35.996  28.016   3.170  0.00  0.00    +0.144 HD
ENDBRANCH   3   6
ENDBRANCH   2   3
ENDBRANCH   1   2
BRANCH   1  15
ATOM     15  C   UNL     1     -37.821  25.455  -0.227  0.00  0.00    +0.113 C 
BRANCH  15  18
ATOM     16  S   UNL     1     -34.323  24.210   1.214  0.00  0.00    -0.055 S 
ATOM     17  N   UNL     1     -36.744  23.456   0.707  0.00  0.00    -0.384 NA
ATOM     18  C   UNL     1     -36.620  24.776   0.344  0.00  0.00    +0.111 C 
ATOM     19  C   UNL     1     -35.399  25.363   0.538  0.00  0.00    +0.121 C 
ATOM     20  C   UNL     1     -35.587  23.050   1.181  0.00  0.00    +0.243 C 
BRANCH  20  21
ATOM     21  N   UNL     1     -35.312  21.804   1.643  0.00  0.00    -0.178 NA
BRANCH  21  24
ATOM     22  N   UNL     1     -36.664  19.871   2.176  0.00  0.00    -0.370 N 
ATOM     23  N   UNL     1     -36.961  21.838   3.293  0.00  0.00    -0.370 N 
ATOM     24  C   UNL     1     -36.252  21.181   2.314  0.00  0.00    +0.196 C 
ATOM     25  H   UNL     1     -36.236  19.288   1.508  0.00  0.00    +0.159 HD
ATOM     26  H   UNL     1     -37.386  19.520   2.746  0.00  0.00    +0.159 HD
ATOM     27  H   UNL     1     -36.764  22.782   3.493  0.00  0.00    +0.159 HD
ATOM     28  H   UNL     1     -37.664  21.364   3.793  0.00  0.00    +0.159 HD
ENDBRANCH  21  24
ENDBRANCH  20  21
ENDBRANCH  15  18
ENDBRANCH   1  15
TORSDOF 7
ENDMDL
MODEL 7
REMARK VINA RESULT:      -5.8      7.044      9.353
REMARK  Name = 5477889
REMARK  7 active torsions:
REMARK  status: ('A' for Active; 'I' for Inactive)
REMARK    1  A    between atoms: S_1  and  C_2
REMARK    2  A    between atoms: S_1  and  C_15
REMARK    3  A    between atoms: C_2  and  C_3
REMARK    4  A    between atoms: C_3  and  N_6
REMARK    5  A    between atoms: C_15  and  C_18
REMARK    6  A    between atoms: C_20  and  N_21
REMARK    7  A    between atoms: N_21  and  C_24
REMARK                            x       y       z     vdW  Elec       q    Type
REMARK                         _______ _______ _______ _____ _____    ______ ____
ROOT
ATOM      1  S   UNL     1     -36.069  26.183   2.087  0.00  0.00    -0.131 S 
ENDROOT
BRANCH   1   2
ATOM      2  C   UNL     1     -35.236  27.427   3.120  0.00  0.00    +0.079 C 
BRANCH   2   3
ATOM      3  C   UNL     1     -33.739  27.170   3.241  0.00  0.00    +0.100 C 
BRANCH   3   6
ATOM      4  S   UNL     1     -30.691  29.983   5.246  0.00  0.00    +0.270 S 
ATOM      5  O   UNL     1     -31.459  31.262   5.412  0.00  0.00    -0.208 OA
ATOM      6  N   UNL     1     -33.295  27.286   4.606  0.00  0.00    -0.314 N 
ATOM      7  N   UNL     1     -31.791  29.096   4.278  0.00  0.00    -0.148 NA
ATOM      8  N   UNL     1     -31.089  29.200   6.716  0.00  0.00    -0.148 NA
ATOM      9  N   UNL     1     -32.496  27.406   7.383  0.00  0.00    -0.340 N 
ATOM     10  C   UNL     1     -32.375  28.205   5.019  0.00  0.00    +0.172 A 
ATOM     11  C   UNL     1     -31.957  28.268   6.471  0.00  0.00    +0.169 A 
ATOM     12  H   UNL     1     -33.675  26.672   5.274  0.00  0.00    +0.148 HD
ATOM     13  H   UNL     1     -32.221  27.452   8.327  0.00  0.00    +0.144 HD
ATOM     14  H   UNL     1     -33.162  26.740   7.096  0.00  0.00    +0.144 HD
ENDBRANCH   3   6
ENDBRANCH   2   3
ENDBRANCH   1   2
BRANCH   1  15
ATOM     15  C   UNL     1     -37.113  25.444   3.365  0.00  0.00    +0.113 C 
BRANCH  15  18
ATOM     16  S   UNL     1     -35.180  22.861   5.698  0.00  0.00    -0.055 S 
ATOM     17  N   UNL     1     -36.313  23.123   3.389  0.00  0.00    -0.384 NA
ATOM     18  C   UNL     1     -36.417  24.319   4.058  0.00  0.00    +0.111 C 
ATOM     19  C   UNL     1     -35.873  24.382   5.312  0.00  0.00    +0.121 C 
ATOM     20  C   UNL     1     -35.674  22.275   4.163  0.00  0.00    +0.243 C 
BRANCH  20  21
ATOM     21  N   UNL     1     -35.377  20.987   3.853  0.00  0.00    -0.178 NA
BRANCH  21  24
ATOM     22  N   UNL     1     -34.794  20.732   1.520  0.00  0.00    -0.370 N 
ATOM     23  N   UNL     1     -36.777  19.932   2.314  0.00  0.00    -0.370 N 
ATOM     24  C   UNL     1     -35.607  20.586   2.625  0.00  0.00    +0.196 C 
ATOM     25  H   UNL     1     -33.924  21.184   1.606  0.00  0.00    +0.159 HD
ATOM     26  H   UNL     1     -35.084  20.384   0.646  0.00  0.00    +0.159 HD
ATOM     27  H   UNL     1     -37.447  19.762   3.015  0.00  0.00    +0.159 HD
ATOM     28  H   UNL     1     -36.943  19.633   1.391  0.00  0.00    +0.159 HD
ENDBRANCH  21  24
ENDBRANCH  20  21
ENDBRANCH  15  18
ENDBRANCH   1  15
TORSDOF 7
ENDMDL
MODEL 8
REMARK VINA RESULT:      -5.7      4.998      8.149
REMARK  Name = 5477889
REMARK  7 active torsions:
REMARK  status: ('A' for Active; 'I' for Inactive)
REMARK    1  A    between atoms: S_1  and  C_2
REMARK    2  A    between atoms: S_1  and  C_15
REMARK    3  A    between atoms: C_2  and  C_3
REMARK    4  A    between atoms: C_3  and  N_6
REMARK    5  A    between atoms: C_15  and  C_18
REMARK    6  A    between atoms: C_20  and  N_21
REMARK    7  A    between atoms: N_21  and  C_24
REMARK                            x       y       z     vdW  Elec       q    Type
REMARK                         _______ _______ _______ _____ _____    ______ ____
ROOT
ATOM      1  S   UNL     1     -36.645  20.550   1.742  0.00  0.00    -0.131 S 
ENDROOT
BRANCH   1   2
ATOM      2  C   UNL     1     -37.832  21.871   1.344  0.00  0.00    +0.079 C 
BRANCH   2   3
ATOM      3  C   UNL     1     -39.176  21.668   2.032  0.00  0.00    +0.100 C 
BRANCH   3   6
ATOM      4  S   UNL     1     -40.591  25.990   2.765  0.00  0.00    +0.270 S 
ATOM      5  O   UNL     1     -39.563  26.816   2.050  0.00  0.00    -0.208 OA
ATOM      6  N   UNL     1     -40.207  22.456   1.410  0.00  0.00    -0.314 N 
ATOM      7  N   UNL     1     -39.860  24.444   2.664  0.00  0.00    -0.148 NA
ATOM      8  N   UNL     1     -41.708  25.732   1.492  0.00  0.00    -0.148 NA
ATOM      9  N   UNL     1     -42.313  23.923   0.075  0.00  0.00    -0.340 N 
ATOM     10  C   UNL     1     -40.478  23.747   1.761  0.00  0.00    +0.172 A 
ATOM     11  C   UNL     1     -41.579  24.514   1.064  0.00  0.00    +0.169 A 
ATOM     12  H   UNL     1     -40.745  22.044   0.696  0.00  0.00    +0.148 HD
ATOM     13  H   UNL     1     -43.027  24.428  -0.376  0.00  0.00    +0.144 HD
ATOM     14  H   UNL     1     -42.126  22.993  -0.188  0.00  0.00    +0.144 HD
ENDBRANCH   3   6
ENDBRANCH   2   3
ENDBRANCH   1   2
BRANCH   1  15
ATOM     15  C   UNL     1     -35.227  21.592   2.152  0.00  0.00    +0.113 C 
BRANCH  15  18
ATOM     16  S   UNL     1     -35.391  22.358   6.056  0.00  0.00    -0.055 S 
ATOM     17  N   UNL     1     -35.479  23.463   3.721  0.00  0.00    -0.384 NA
ATOM     18  C   UNL     1     -35.315  22.110   3.550  0.00  0.00    +0.111 C 
ATOM     19  C   UNL     1     -35.243  21.343   4.681  0.00  0.00    +0.121 C 
ATOM     20  C   UNL     1     -35.533  23.711   5.010  0.00  0.00    +0.243 C 
BRANCH  20  21
ATOM     21  N   UNL     1     -35.689  24.934   5.578  0.00  0.00    -0.178 NA
BRANCH  21  24
ATOM     22  N   UNL     1     -37.365  25.953   4.164  0.00  0.00    -0.370 N 
ATOM     23  N   UNL     1     -35.411  27.040   4.613  0.00  0.00    -0.370 N 
ATOM     24  C   UNL     1     -36.155  25.901   4.824  0.00  0.00    +0.196 C 
ATOM     25  H   UNL     1     -37.995  25.199   4.232  0.00  0.00    +0.159 HD
ATOM     26  H   UNL     1     -37.599  26.742   3.625  0.00  0.00    +0.159 HD
ATOM     27  H   UNL     1     -34.524  27.131   5.030  0.00  0.00    +0.159 HD
ATOM     28  H   UNL     1     -35.767  27.762   4.047  0.00  0.00    +0.159 HD
ENDBRANCH  21  24
ENDBRANCH  20  21
ENDBRANCH  15  18
ENDBRANCH   1  15
TORSDOF 7
ENDMDL
MODEL 9
REMARK VINA RESULT:      -5.7      5.344      7.220
REMARK  Name = 5477889
REMARK  7 active torsions:
REMARK  status: ('A' for Active; 'I' for Inactive)
REMARK    1  A    between atoms: S_1  and  C_2
REMARK    2  A    between atoms: S_1  and  C_15
REMARK    3  A    between atoms: C_2  and  C_3
REMARK    4  A    between atoms: C_3  and  N_6
REMARK    5  A    between atoms: C_15  and  C_18
REMARK    6  A    between atoms: C_20  and  N_21
REMARK    7  A    between atoms: N_21  and  C_24
REMARK                            x       y       z     vdW  Elec       q    Type
REMARK                         _______ _______ _______ _____ _____    ______ ____
ROOT
ATOM      1  S   UNL     1     -39.728  24.606   0.616  0.00  0.00    -0.131 S 
ENDROOT
BRANCH   1   2
ATOM      2  C   UNL     1     -40.296  22.877   0.635  0.00  0.00    +0.079 C 
BRANCH   2   3
ATOM      3  C   UNL     1     -39.696  22.084   1.789  0.00  0.00    +0.100 C 
BRANCH   3   6
ATOM      4  S   UNL     1     -35.211  21.196   2.347  0.00  0.00    +0.270 S 
ATOM      5  O   UNL     1     -35.145  20.602   3.723  0.00  0.00    -0.208 OA
ATOM      6  N   UNL     1     -38.866  21.010   1.311  0.00  0.00    -0.314 N 
ATOM      7  N   UNL     1     -36.840  21.725   2.325  0.00  0.00    -0.148 NA
ATOM      8  N   UNL     1     -35.480  19.780   1.421  0.00  0.00    -0.148 NA
ATOM      9  N   UNL     1     -37.317  18.795   0.282  0.00  0.00    -0.340 N 
ATOM     10  C   UNL     1     -37.534  20.909   1.594  0.00  0.00    +0.172 A 
ATOM     11  C   UNL     1     -36.724  19.751   1.056  0.00  0.00    +0.169 A 
ATOM     12  H   UNL     1     -39.279  20.313   0.752  0.00  0.00    +0.148 HD
ATOM     13  H   UNL     1     -36.784  18.043  -0.065  0.00  0.00    +0.144 HD
ATOM     14  H   UNL     1     -38.277  18.856   0.072  0.00  0.00    +0.144 HD
ENDBRANCH   3   6
ENDBRANCH   2   3
ENDBRANCH   1   2
BRANCH   1  15
ATOM     15  C   UNL     1     -39.748  24.904   2.399  0.00  0.00    +0.113 C 
BRANCH  15  18
ATOM     16  S   UNL     1     -36.120  26.319   3.230  0.00  0.00    -0.055 S 
ATOM     17  N   UNL     1     -37.957  24.703   4.066  0.00  0.00    -0.384 NA
ATOM     18  C   UNL     1     -38.397  25.290   2.904  0.00  0.00    +0.111 C 
ATOM     19  C   UNL     1     -37.557  26.188   2.302  0.00  0.00    +0.121 C 
ATOM     20  C   UNL     1     -36.760  25.173   4.336  0.00  0.00    +0.243 C 
BRANCH  20  21
ATOM     21  N   UNL     1     -35.996  24.832   5.404  0.00  0.00    -0.178 NA
BRANCH  21  24
ATOM     22  N   UNL     1     -34.103  23.335   5.245  0.00  0.00    -0.370 N 
ATOM     23  N   UNL     1     -36.207  22.514   5.570  0.00  0.00    -0.370 N 
ATOM     24  C   UNL     1     -35.439  23.644   5.402  0.00  0.00    +0.196 C 
ATOM     25  H   UNL     1     -33.444  24.054   5.116  0.00  0.00    +0.159 HD
ATOM     26  H   UNL     1     -33.810  22.395   5.263  0.00  0.00    +0.159 HD
ATOM     27  H   UNL     1     -37.180  22.596   5.693  0.00  0.00    +0.159 HD
ATOM     28  H   UNL     1     -35.783  21.626   5.567  0.00  0.00    +0.159 HD
ENDBRANCH  21  24
ENDBRANCH  20  21
ENDBRANCH  15  18
ENDBRANCH   1  15
TORSDOF 7
ENDMDL
