MODEL 1
REMARK VINA RESULT:      -5.2      0.000      0.000
REMARK  Name = 193170
REMARK  7 active torsions:
REMARK  status: ('A' for Active; 'I' for Inactive)
REMARK    1  A    between atoms: C_4  and  C_9
REMARK    2  A    between atoms: C_5  and  C_13
REMARK    3  A    between atoms: C_9  and  C_10
REMARK    4  A    between atoms: C_13  and  C_14
REMARK    5  A    between atoms: C_14  and  C_15
REMARK    6  A    between atoms: C_15  and  N_16
REMARK    7  A    between atoms: N_16  and  C_19
REMARK                            x       y       z     vdW  Elec       q    Type
REMARK                         _______ _______ _______ _____ _____    ______ ____
ROOT
ATOM      1  O   UNL     1     -35.816  26.344   5.753  0.00  0.00    -0.269 OA
ATOM      2  N   UNL     1     -34.256  27.158   4.243  0.00  0.00    -0.281 N 
ATOM      3  N   UNL     1     -34.361  24.677   2.980  0.00  0.00    -0.243 NA
ATOM      4  C   UNL     1     -35.096  24.889   4.028  0.00  0.00    +0.112 C 
ATOM      5  C   UNL     1     -33.487  26.911   3.134  0.00  0.00    +0.047 C 
ATOM      6  C   UNL     1     -35.100  26.209   4.774  0.00  0.00    +0.263 C 
ATOM      7  C   UNL     1     -33.563  25.706   2.551  0.00  0.00    +0.109 C 
ATOM      8  H   UNL     1     -34.201  28.042   4.672  0.00  0.00    +0.155 HD
ENDROOT
BRANCH   4   9
ATOM      9  C   UNL     1     -35.995  23.806   4.551  0.00  0.00    +0.051 C 
BRANCH   9  10
ATOM     10  C   UNL     1     -35.181  22.571   4.945  0.00  0.00    +0.006 C 
ATOM     11  C   UNL     1     -35.523  22.097   6.360  0.00  0.00    +0.000 C 
ATOM     12  C   UNL     1     -35.434  21.443   3.944  0.00  0.00    +0.000 C 
ENDBRANCH   9  10
ENDBRANCH   4   9
BRANCH   5  13
ATOM     13  C   UNL     1     -32.611  28.021   2.653  0.00  0.00    +0.045 C 
BRANCH  13  14
ATOM     14  C   UNL     1     -31.433  28.261   3.600  0.00  0.00    +0.032 C 
BRANCH  14  15
ATOM     15  C   UNL     1     -31.563  29.574   4.365  0.00  0.00    +0.129 C 
BRANCH  15  16
ATOM     16  N   UNL     1     -32.384  29.374   5.559  0.00  0.00    -0.240 NA
BRANCH  16  19
ATOM     17  N   UNL     1     -32.272  27.648   7.103  0.00  0.00    -0.370 N 
ATOM     18  N   UNL     1     -30.707  29.294   7.276  0.00  0.00    -0.370 N 
ATOM     19  C   UNL     1     -31.802  28.831   6.583  0.00  0.00    +0.189 C 
ATOM     20  H   UNL     1     -33.055  27.209   6.697  0.00  0.00    +0.159 HD
ATOM     21  H   UNL     1     -31.827  27.240   7.880  0.00  0.00    +0.159 HD
ATOM     22  H   UNL     1     -30.272  30.135   7.006  0.00  0.00    +0.159 HD
ATOM     23  H   UNL     1     -30.357  28.785   8.044  0.00  0.00    +0.159 HD
ENDBRANCH  16  19
ENDBRANCH  15  16
ENDBRANCH  14  15
ENDBRANCH  13  14
ENDBRANCH   5  13
TORSDOF 7
ENDMDL
MODEL 2
REMARK VINA RESULT:      -5.0      2.278      6.561
REMARK  Name = 193170
REMARK  7 active torsions:
REMARK  status: ('A' for Active; 'I' for Inactive)
REMARK    1  A    between atoms: C_4  and  C_9
REMARK    2  A    between atoms: C_5  and  C_13
REMARK    3  A    between atoms: C_9  and  C_10
REMARK    4  A    between atoms: C_13  and  C_14
REMARK    5  A    between atoms: C_14  and  C_15
REMARK    6  A    between atoms: C_15  and  N_16
REMARK    7  A    between atoms: N_16  and  C_19
REMARK                            x       y       z     vdW  Elec       q    Type
REMARK                         _______ _______ _______ _____ _____    ______ ____
ROOT
ATOM      1  O   UNL     1     -33.522  28.774   2.989  0.00  0.00    -0.269 OA
ATOM      2  N   UNL     1     -34.875  27.224   4.060  0.00  0.00    -0.281 N 
ATOM      3  N   UNL     1     -32.848  26.940   5.951  0.00  0.00    -0.243 NA
ATOM      4  C   UNL     1     -32.686  27.766   4.963  0.00  0.00    +0.112 C 
ATOM      5  C   UNL     1     -35.024  26.357   5.112  0.00  0.00    +0.047 C 
ATOM      6  C   UNL     1     -33.738  27.981   3.892  0.00  0.00    +0.263 C 
ATOM      7  C   UNL     1     -34.029  26.246   6.004  0.00  0.00    +0.109 C 
ATOM      8  H   UNL     1     -35.604  27.307   3.404  0.00  0.00    +0.155 HD
ENDROOT
BRANCH   4   9
ATOM      9  C   UNL     1     -31.417  28.561   4.844  0.00  0.00    +0.051 C 
BRANCH   9  10
ATOM     10  C   UNL     1     -31.181  29.396   6.105  0.00  0.00    +0.006 C 
ATOM     11  C   UNL     1     -29.689  29.603   6.374  0.00  0.00    +0.000 C 
ATOM     12  C   UNL     1     -31.878  30.750   5.968  0.00  0.00    +0.000 C 
ENDBRANCH   9  10
ENDBRANCH   4   9
BRANCH   5  13
ATOM     13  C   UNL     1     -36.304  25.591   5.185  0.00  0.00    +0.045 C 
BRANCH  13  14
ATOM     14  C   UNL     1     -36.727  25.065   3.812  0.00  0.00    +0.032 C 
BRANCH  14  15
ATOM     15  C   UNL     1     -36.727  23.541   3.750  0.00  0.00    +0.129 C 
BRANCH  15  16
ATOM     16  N   UNL     1     -36.215  22.993   5.006  0.00  0.00    -0.240 NA
BRANCH  16  19
ATOM     17  N   UNL     1     -34.814  21.436   6.000  0.00  0.00    -0.370 N 
ATOM     18  N   UNL     1     -35.502  21.000   3.872  0.00  0.00    -0.370 N 
ATOM     19  C   UNL     1     -35.563  21.875   4.933  0.00  0.00    +0.189 C 
ATOM     20  H   UNL     1     -34.773  21.972   6.825  0.00  0.00    +0.159 HD
ATOM     21  H   UNL     1     -34.320  20.587   5.939  0.00  0.00    +0.159 HD
ATOM     22  H   UNL     1     -35.996  21.196   3.043  0.00  0.00    +0.159 HD
ATOM     23  H   UNL     1     -34.966  20.177   3.942  0.00  0.00    +0.159 HD
ENDBRANCH  16  19
ENDBRANCH  15  16
ENDBRANCH  14  15
ENDBRANCH  13  14
ENDBRANCH   5  13
TORSDOF 7
ENDMDL
MODEL 3
REMARK VINA RESULT:      -4.9      2.124      3.487
REMARK  Name = 193170
REMARK  7 active torsions:
REMARK  status: ('A' for Active; 'I' for Inactive)
REMARK    1  A    between atoms: C_4  and  C_9
REMARK    2  A    between atoms: C_5  and  C_13
REMARK    3  A    between atoms: C_9  and  C_10
REMARK    4  A    between atoms: C_13  and  C_14
REMARK    5  A    between atoms: C_14  and  C_15
REMARK    6  A    between atoms: C_15  and  N_16
REMARK    7  A    between atoms: N_16  and  C_19
REMARK                            x       y       z     vdW  Elec       q    Type
REMARK                         _______ _______ _______ _____ _____    ______ ____
ROOT
ATOM      1  O   UNL     1     -35.275  21.270   5.909  0.00  0.00    -0.269 OA
ATOM      2  N   UNL     1     -35.312  23.565   5.575  0.00  0.00    -0.281 N 
ATOM      3  N   UNL     1     -35.580  23.043   2.851  0.00  0.00    -0.243 NA
ATOM      4  C   UNL     1     -35.496  22.052   3.683  0.00  0.00    +0.112 C 
ATOM      5  C   UNL     1     -35.403  24.597   4.676  0.00  0.00    +0.047 C 
ATOM      6  C   UNL     1     -35.349  22.246   5.180  0.00  0.00    +0.263 C 
ATOM      7  C   UNL     1     -35.532  24.309   3.373  0.00  0.00    +0.109 C 
ATOM      8  H   UNL     1     -35.217  23.773   6.532  0.00  0.00    +0.155 HD
ENDROOT
BRANCH   4   9
ATOM      9  C   UNL     1     -35.544  20.637   3.180  0.00  0.00    +0.051 C 
BRANCH   9  10
ATOM     10  C   UNL     1     -35.131  20.572   1.708  0.00  0.00    +0.006 C 
ATOM     11  C   UNL     1     -33.938  19.638   1.495  0.00  0.00    +0.000 C 
ATOM     12  C   UNL     1     -36.315  20.105   0.859  0.00  0.00    +0.000 C 
ENDBRANCH   9  10
ENDBRANCH   4   9
BRANCH   5  13
ATOM     13  C   UNL     1     -35.351  25.984   5.228  0.00  0.00    +0.045 C 
BRANCH  13  14
ATOM     14  C   UNL     1     -34.103  26.205   6.085  0.00  0.00    +0.032 C 
BRANCH  14  15
ATOM     15  C   UNL     1     -33.084  27.113   5.402  0.00  0.00    +0.129 C 
BRANCH  15  16
ATOM     16  N   UNL     1     -32.044  27.499   6.357  0.00  0.00    -0.240 NA
BRANCH  16  19
ATOM     17  N   UNL     1     -30.668  29.178   7.168  0.00  0.00    -0.370 N 
ATOM     18  N   UNL     1     -32.326  29.800   5.732  0.00  0.00    -0.370 N 
ATOM     19  C   UNL     1     -31.724  28.754   6.395  0.00  0.00    +0.189 C 
ATOM     20  H   UNL     1     -30.151  28.527   7.694  0.00  0.00    +0.159 HD
ATOM     21  H   UNL     1     -30.430  30.133   7.194  0.00  0.00    +0.159 HD
ATOM     22  H   UNL     1     -33.096  29.632   5.143  0.00  0.00    +0.159 HD
ATOM     23  H   UNL     1     -31.984  30.717   5.847  0.00  0.00    +0.159 HD
ENDBRANCH  16  19
ENDBRANCH  15  16
ENDBRANCH  14  15
ENDBRANCH  13  14
ENDBRANCH   5  13
TORSDOF 7
ENDMDL
MODEL 4
REMARK VINA RESULT:      -4.9      3.289      5.303
REMARK  Name = 193170
REMARK  7 active torsions:
REMARK  status: ('A' for Active; 'I' for Inactive)
REMARK    1  A    between atoms: C_4  and  C_9
REMARK    2  A    between atoms: C_5  and  C_13
REMARK    3  A    between atoms: C_9  and  C_10
REMARK    4  A    between atoms: C_13  and  C_14
REMARK    5  A    between atoms: C_14  and  C_15
REMARK    6  A    between atoms: C_15  and  N_16
REMARK    7  A    between atoms: N_16  and  C_19
REMARK                            x       y       z     vdW  Elec       q    Type
REMARK                         _______ _______ _______ _____ _____    ______ ____
ROOT
ATOM      1  O   UNL     1     -34.617  22.665   0.423  0.00  0.00    -0.269 OA
ATOM      2  N   UNL     1     -35.230  23.260   2.580  0.00  0.00    -0.281 N 
ATOM      3  N   UNL     1     -35.319  20.540   3.176  0.00  0.00    -0.243 NA
ATOM      4  C   UNL     1     -34.999  20.918   1.977  0.00  0.00    +0.112 C 
ATOM      5  C   UNL     1     -35.566  22.836   3.841  0.00  0.00    +0.047 C 
ATOM      6  C   UNL     1     -34.926  22.377   1.569  0.00  0.00    +0.263 C 
ATOM      7  C   UNL     1     -35.598  21.520   4.092  0.00  0.00    +0.109 C 
ATOM      8  H   UNL     1     -35.205  24.226   2.393  0.00  0.00    +0.155 HD
ENDROOT
BRANCH   4   9
ATOM      9  C   UNL     1     -34.679  19.897   0.923  0.00  0.00    +0.051 C 
BRANCH   9  10
ATOM     10  C   UNL     1     -33.305  19.271   1.175  0.00  0.00    +0.006 C 
ATOM     11  C   UNL     1     -33.288  17.783   0.817  0.00  0.00    +0.000 C 
ATOM     12  C   UNL     1     -32.242  20.013   0.365  0.00  0.00    +0.000 C 
ENDBRANCH   9  10
ENDBRANCH   4   9
BRANCH   5  13
ATOM     13  C   UNL     1     -35.874  23.891   4.852  0.00  0.00    +0.045 C 
BRANCH  13  14
ATOM     14  C   UNL     1     -34.600  24.504   5.437  0.00  0.00    +0.032 C 
BRANCH  14  15
ATOM     15  C   UNL     1     -34.526  26.011   5.212  0.00  0.00    +0.129 C 
BRANCH  15  16
ATOM     16  N   UNL     1     -34.470  26.297   3.779  0.00  0.00    -0.240 NA
BRANCH  16  19
ATOM     17  N   UNL     1     -36.509  26.842   2.819  0.00  0.00    -0.370 N 
ATOM     18  N   UNL     1     -35.093  28.564   3.292  0.00  0.00    -0.370 N 
ATOM     19  C   UNL     1     -35.285  27.202   3.332  0.00  0.00    +0.189 C 
ATOM     20  H   UNL     1     -36.770  25.894   2.790  0.00  0.00    +0.159 HD
ATOM     21  H   UNL     1     -37.123  27.533   2.481  0.00  0.00    +0.159 HD
ATOM     22  H   UNL     1     -34.255  28.955   3.631  0.00  0.00    +0.159 HD
ATOM     23  H   UNL     1     -35.795  29.150   2.925  0.00  0.00    +0.159 HD
ENDBRANCH  16  19
ENDBRANCH  15  16
ENDBRANCH  14  15
ENDBRANCH  13  14
ENDBRANCH   5  13
TORSDOF 7
ENDMDL
MODEL 5
REMARK VINA RESULT:      -4.9      2.326      6.958
REMARK  Name = 193170
REMARK  7 active torsions:
REMARK  status: ('A' for Active; 'I' for Inactive)
REMARK    1  A    between atoms: C_4  and  C_9
REMARK    2  A    between atoms: C_5  and  C_13
REMARK    3  A    between atoms: C_9  and  C_10
REMARK    4  A    between atoms: C_13  and  C_14
REMARK    5  A    between atoms: C_14  and  C_15
REMARK    6  A    between atoms: C_15  and  N_16
REMARK    7  A    between atoms: N_16  and  C_19
REMARK                            x       y       z     vdW  Elec       q    Type
REMARK                         _______ _______ _______ _____ _____    ______ ____
ROOT
ATOM      1  O   UNL     1     -33.500  28.180   2.698  0.00  0.00    -0.269 OA
ATOM      2  N   UNL     1     -34.734  26.622   3.893  0.00  0.00    -0.281 N 
ATOM      3  N   UNL     1     -32.966  27.021   6.009  0.00  0.00    -0.243 NA
ATOM      4  C   UNL     1     -32.798  27.683   4.906  0.00  0.00    +0.112 C 
ATOM      5  C   UNL     1     -34.892  25.933   5.069  0.00  0.00    +0.047 C 
ATOM      6  C   UNL     1     -33.713  27.526   3.707  0.00  0.00    +0.263 C 
ATOM      7  C   UNL     1     -34.023  26.151   6.067  0.00  0.00    +0.109 C 
ATOM      8  H   UNL     1     -35.370  26.464   3.159  0.00  0.00    +0.155 HD
ENDROOT
BRANCH   4   9
ATOM      9  C   UNL     1     -31.661  28.655   4.774  0.00  0.00    +0.051 C 
BRANCH   9  10
ATOM     10  C   UNL     1     -31.407  29.375   6.101  0.00  0.00    +0.006 C 
ATOM     11  C   UNL     1     -29.919  29.393   6.459  0.00  0.00    +0.000 C 
ATOM     12  C   UNL     1     -31.942  30.805   6.026  0.00  0.00    +0.000 C 
ENDBRANCH   9  10
ENDBRANCH   4   9
BRANCH   5  13
ATOM     13  C   UNL     1     -36.038  24.979   5.148  0.00  0.00    +0.045 C 
BRANCH  13  14
ATOM     14  C   UNL     1     -35.571  23.561   5.485  0.00  0.00    +0.032 C 
BRANCH  14  15
ATOM     15  C   UNL     1     -35.801  22.587   4.333  0.00  0.00    +0.129 C 
BRANCH  15  16
ATOM     16  N   UNL     1     -37.066  22.897   3.665  0.00  0.00    -0.240 NA
BRANCH  16  19
ATOM     17  N   UNL     1     -38.025  21.206   2.403  0.00  0.00    -0.370 N 
ATOM     18  N   UNL     1     -36.795  22.763   1.283  0.00  0.00    -0.370 N 
ATOM     19  C   UNL     1     -37.265  22.347   2.508  0.00  0.00    +0.189 C 
ATOM     20  H   UNL     1     -38.422  20.804   3.209  0.00  0.00    +0.159 HD
ATOM     21  H   UNL     1     -38.173  20.793   1.522  0.00  0.00    +0.159 HD
ATOM     22  H   UNL     1     -36.236  23.571   1.218  0.00  0.00    +0.159 HD
ATOM     23  H   UNL     1     -37.018  22.254   0.470  0.00  0.00    +0.159 HD
ENDBRANCH  16  19
ENDBRANCH  15  16
ENDBRANCH  14  15
ENDBRANCH  13  14
ENDBRANCH   5  13
TORSDOF 7
ENDMDL
MODEL 6
REMARK VINA RESULT:      -4.9      1.815      2.360
REMARK  Name = 193170
REMARK  7 active torsions:
REMARK  status: ('A' for Active; 'I' for Inactive)
REMARK    1  A    between atoms: C_4  and  C_9
REMARK    2  A    between atoms: C_5  and  C_13
REMARK    3  A    between atoms: C_9  and  C_10
REMARK    4  A    between atoms: C_13  and  C_14
REMARK    5  A    between atoms: C_14  and  C_15
REMARK    6  A    between atoms: C_15  and  N_16
REMARK    7  A    between atoms: N_16  and  C_19
REMARK                            x       y       z     vdW  Elec       q    Type
REMARK                         _______ _______ _______ _____ _____    ______ ____
ROOT
ATOM      1  O   UNL     1     -35.904  26.408   3.308  0.00  0.00    -0.269 OA
ATOM      2  N   UNL     1     -34.031  27.662   3.854  0.00  0.00    -0.281 N 
ATOM      3  N   UNL     1     -33.707  25.996   6.063  0.00  0.00    -0.243 NA
ATOM      4  C   UNL     1     -34.701  25.794   5.254  0.00  0.00    +0.112 C 
ATOM      5  C   UNL     1     -32.988  27.857   4.723  0.00  0.00    +0.047 C 
ATOM      6  C   UNL     1     -34.950  26.652   4.029  0.00  0.00    +0.263 C 
ATOM      7  C   UNL     1     -32.862  27.036   5.775  0.00  0.00    +0.109 C 
ATOM      8  H   UNL     1     -34.125  28.264   3.081  0.00  0.00    +0.155 HD
ENDROOT
BRANCH   4   9
ATOM      9  C   UNL     1     -35.665  24.671   5.508  0.00  0.00    +0.051 C 
BRANCH   9  10
ATOM     10  C   UNL     1     -35.007  23.318   5.225  0.00  0.00    +0.006 C 
ATOM     11  C   UNL     1     -35.311  22.300   6.326  0.00  0.00    +0.000 C 
ATOM     12  C   UNL     1     -35.486  22.782   3.875  0.00  0.00    +0.000 C 
ENDBRANCH   9  10
ENDBRANCH   4   9
BRANCH   5  13
ATOM     13  C   UNL     1     -32.057  28.987   4.425  0.00  0.00    +0.045 C 
BRANCH  13  14
ATOM     14  C   UNL     1     -31.770  29.826   5.672  0.00  0.00    +0.032 C 
BRANCH  14  15
ATOM     15  C   UNL     1     -30.275  29.995   5.924  0.00  0.00    +0.129 C 
BRANCH  15  16
ATOM     16  N   UNL     1     -29.599  28.705   5.787  0.00  0.00    -0.240 NA
BRANCH  16  19
ATOM     17  N   UNL     1     -28.778  29.091   7.920  0.00  0.00    -0.370 N 
ATOM     18  N   UNL     1     -28.277  27.083   6.966  0.00  0.00    -0.370 N 
ATOM     19  C   UNL     1     -28.921  28.290   6.812  0.00  0.00    +0.189 C 
ATOM     20  H   UNL     1     -29.192  29.984   7.939  0.00  0.00    +0.159 HD
ATOM     21  H   UNL     1     -28.262  28.771   8.695  0.00  0.00    +0.159 HD
ATOM     22  H   UNL     1     -28.302  26.416   6.243  0.00  0.00    +0.159 HD
ATOM     23  H   UNL     1     -27.791  26.887   7.800  0.00  0.00    +0.159 HD
ENDBRANCH  16  19
ENDBRANCH  15  16
ENDBRANCH  14  15
ENDBRANCH  13  14
ENDBRANCH   5  13
TORSDOF 7
ENDMDL
MODEL 7
REMARK VINA RESULT:      -4.9      3.103      4.870
REMARK  Name = 193170
REMARK  7 active torsions:
REMARK  status: ('A' for Active; 'I' for Inactive)
REMARK    1  A    between atoms: C_4  and  C_9
REMARK    2  A    between atoms: C_5  and  C_13
REMARK    3  A    between atoms: C_9  and  C_10
REMARK    4  A    between atoms: C_13  and  C_14
REMARK    5  A    between atoms: C_14  and  C_15
REMARK    6  A    between atoms: C_15  and  N_16
REMARK    7  A    between atoms: N_16  and  C_19
REMARK                            x       y       z     vdW  Elec       q    Type
REMARK                         _______ _______ _______ _____ _____    ______ ____
ROOT
ATOM      1  O   UNL     1     -35.376  22.339   0.227  0.00  0.00    -0.269 OA
ATOM      2  N   UNL     1     -35.766  23.175   2.355  0.00  0.00    -0.281 N 
ATOM      3  N   UNL     1     -35.131  20.645   3.335  0.00  0.00    -0.243 NA
ATOM      4  C   UNL     1     -35.097  20.859   2.056  0.00  0.00    +0.112 C 
ATOM      5  C   UNL     1     -35.796  22.926   3.703  0.00  0.00    +0.047 C 
ATOM      6  C   UNL     1     -35.427  22.205   1.439  0.00  0.00    +0.263 C 
ATOM      7  C   UNL     1     -35.484  21.697   4.140  0.00  0.00    +0.109 C 
ATOM      8  H   UNL     1     -35.995  24.076   2.032  0.00  0.00    +0.155 HD
ENDROOT
BRANCH   4   9
ATOM      9  C   UNL     1     -34.718  19.752   1.115  0.00  0.00    +0.051 C 
BRANCH   9  10
ATOM     10  C   UNL     1     -33.197  19.596   1.048  0.00  0.00    +0.006 C 
ATOM     11  C   UNL     1     -32.761  18.161   1.354  0.00  0.00    +0.000 C 
ATOM     12  C   UNL     1     -32.695  20.007  -0.337  0.00  0.00    +0.000 C 
ENDBRANCH   9  10
ENDBRANCH   4   9
BRANCH   5  13
ATOM     13  C   UNL     1     -36.179  24.061   4.595  0.00  0.00    +0.045 C 
BRANCH  13  14
ATOM     14  C   UNL     1     -35.060  24.411   5.578  0.00  0.00    +0.032 C 
BRANCH  14  15
ATOM     15  C   UNL     1     -34.817  25.915   5.667  0.00  0.00    +0.129 C 
BRANCH  15  16
ATOM     16  N   UNL     1     -33.425  26.214   5.333  0.00  0.00    -0.240 NA
BRANCH  16  19
ATOM     17  N   UNL     1     -32.503  28.340   5.356  0.00  0.00    -0.370 N 
ATOM     18  N   UNL     1     -32.540  27.207   7.333  0.00  0.00    -0.370 N 
ATOM     19  C   UNL     1     -32.859  27.176   5.994  0.00  0.00    +0.189 C 
ATOM     20  H   UNL     1     -32.677  28.447   4.393  0.00  0.00    +0.159 HD
ATOM     21  H   UNL     1     -32.073  29.067   5.863  0.00  0.00    +0.159 HD
ATOM     22  H   UNL     1     -32.744  26.433   7.906  0.00  0.00    +0.159 HD
ATOM     23  H   UNL     1     -32.108  28.004   7.718  0.00  0.00    +0.159 HD
ENDBRANCH  16  19
ENDBRANCH  15  16
ENDBRANCH  14  15
ENDBRANCH  13  14
ENDBRANCH   5  13
TORSDOF 7
ENDMDL
MODEL 8
REMARK VINA RESULT:      -4.8      2.321      6.461
REMARK  Name = 193170
REMARK  7 active torsions:
REMARK  status: ('A' for Active; 'I' for Inactive)
REMARK    1  A    between atoms: C_4  and  C_9
REMARK    2  A    between atoms: C_5  and  C_13
REMARK    3  A    between atoms: C_9  and  C_10
REMARK    4  A    between atoms: C_13  and  C_14
REMARK    5  A    between atoms: C_14  and  C_15
REMARK    6  A    between atoms: C_15  and  N_16
REMARK    7  A    between atoms: N_16  and  C_19
REMARK                            x       y       z     vdW  Elec       q    Type
REMARK                         _______ _______ _______ _____ _____    ______ ____
ROOT
ATOM      1  O   UNL     1     -32.976  26.800   2.405  0.00  0.00    -0.269 OA
ATOM      2  N   UNL     1     -34.085  25.295   3.777  0.00  0.00    -0.281 N 
ATOM      3  N   UNL     1     -33.364  26.910   5.930  0.00  0.00    -0.243 NA
ATOM      4  C   UNL     1     -32.999  27.247   4.732  0.00  0.00    +0.112 C 
ATOM      5  C   UNL     1     -34.459  24.958   5.053  0.00  0.00    +0.047 C 
ATOM      6  C   UNL     1     -33.349  26.426   3.506  0.00  0.00    +0.263 C 
ATOM      7  C   UNL     1     -34.096  25.759   6.065  0.00  0.00    +0.109 C 
ATOM      8  H   UNL     1     -34.350  24.708   3.033  0.00  0.00    +0.155 HD
ENDROOT
BRANCH   4   9
ATOM      9  C   UNL     1     -32.198  28.497   4.510  0.00  0.00    +0.051 C 
BRANCH   9  10
ATOM     10  C   UNL     1     -31.746  29.095   5.845  0.00  0.00    +0.006 C 
ATOM     11  C   UNL     1     -30.256  28.852   6.098  0.00  0.00    +0.000 C 
ATOM     12  C   UNL     1     -32.040  30.596   5.866  0.00  0.00    +0.000 C 
ENDBRANCH   9  10
ENDBRANCH   4   9
BRANCH   5  13
ATOM     13  C   UNL     1     -35.256  23.705   5.220  0.00  0.00    +0.045 C 
BRANCH  13  14
ATOM     14  C   UNL     1     -35.374  22.932   3.905  0.00  0.00    +0.032 C 
BRANCH  14  15
ATOM     15  C   UNL     1     -36.799  22.927   3.362  0.00  0.00    +0.129 C 
BRANCH  15  16
ATOM     16  N   UNL     1     -37.085  24.203   2.706  0.00  0.00    -0.240 NA
BRANCH  16  19
ATOM     17  N   UNL     1     -39.238  24.506   3.509  0.00  0.00    -0.370 N 
ATOM     18  N   UNL     1     -37.802  26.264   3.710  0.00  0.00    -0.370 N 
ATOM     19  C   UNL     1     -37.964  24.968   3.275  0.00  0.00    +0.189 C 
ATOM     20  H   UNL     1     -39.486  23.591   3.245  0.00  0.00    +0.159 HD
ATOM     21  H   UNL     1     -39.902  25.091   3.940  0.00  0.00    +0.159 HD
ATOM     22  H   UNL     1     -36.934  26.715   3.602  0.00  0.00    +0.159 HD
ATOM     23  H   UNL     1     -38.555  26.741   4.130  0.00  0.00    +0.159 HD
ENDBRANCH  16  19
ENDBRANCH  15  16
ENDBRANCH  14  15
ENDBRANCH  13  14
ENDBRANCH   5  13
TORSDOF 7
ENDMDL
MODEL 9
REMARK VINA RESULT:      -4.7      3.799      5.946
REMARK  Name = 193170
REMARK  7 active torsions:
REMARK  status: ('A' for Active; 'I' for Inactive)
REMARK    1  A    between atoms: C_4  and  C_9
REMARK    2  A    between atoms: C_5  and  C_13
REMARK    3  A    between atoms: C_9  and  C_10
REMARK    4  A    between atoms: C_13  and  C_14
REMARK    5  A    between atoms: C_14  and  C_15
REMARK    6  A    between atoms: C_15  and  N_16
REMARK    7  A    between atoms: N_16  and  C_19
REMARK                            x       y       z     vdW  Elec       q    Type
REMARK                         _______ _______ _______ _____ _____    ______ ____
ROOT
ATOM      1  O   UNL     1     -33.498  22.401  -0.224  0.00  0.00    -0.269 OA
ATOM      2  N   UNL     1     -34.883  22.692   1.613  0.00  0.00    -0.281 N 
ATOM      3  N   UNL     1     -34.739  19.937   2.007  0.00  0.00    -0.243 NA
ATOM      4  C   UNL     1     -34.099  20.472   1.013  0.00  0.00    +0.112 C 
ATOM      5  C   UNL     1     -35.551  22.104   2.657  0.00  0.00    +0.047 C 
ATOM      6  C   UNL     1     -34.123  21.961   0.728  0.00  0.00    +0.263 C 
ATOM      7  C   UNL     1     -35.459  20.776   2.817  0.00  0.00    +0.109 C 
ATOM      8  H   UNL     1     -34.949  23.666   1.494  0.00  0.00    +0.155 HD
ENDROOT
BRANCH   4   9
ATOM      9  C   UNL     1     -33.289  19.612   0.087  0.00  0.00    +0.051 C 
BRANCH   9  10
ATOM     10  C   UNL     1     -31.871  19.419   0.629  0.00  0.00    +0.006 C 
ATOM     11  C   UNL     1     -31.606  17.961   1.013  0.00  0.00    +0.000 C 
ATOM     12  C   UNL     1     -30.850  19.875  -0.414  0.00  0.00    +0.000 C 
ENDBRANCH   9  10
ENDBRANCH   4   9
BRANCH   5  13
ATOM     13  C   UNL     1     -36.342  23.004   3.549  0.00  0.00    +0.045 C 
BRANCH  13  14
ATOM     14  C   UNL     1     -35.684  23.162   4.921  0.00  0.00    +0.032 C 
BRANCH  14  15
ATOM     15  C   UNL     1     -34.451  24.058   4.872  0.00  0.00    +0.129 C 
BRANCH  15  16
ATOM     16  N   UNL     1     -34.670  25.250   5.691  0.00  0.00    -0.240 NA
BRANCH  16  19
ATOM     17  N   UNL     1     -36.588  26.512   5.370  0.00  0.00    -0.370 N 
ATOM     18  N   UNL     1     -34.722  27.156   4.230  0.00  0.00    -0.370 N 
ATOM     19  C   UNL     1     -35.261  26.252   5.117  0.00  0.00    +0.189 C 
ATOM     20  H   UNL     1     -37.093  25.938   5.990  0.00  0.00    +0.159 HD
ATOM     21  H   UNL     1     -37.032  27.273   4.932  0.00  0.00    +0.159 HD
ATOM     22  H   UNL     1     -33.778  27.082   3.964  0.00  0.00    +0.159 HD
ATOM     23  H   UNL     1     -35.282  27.878   3.862  0.00  0.00    +0.159 HD
ENDBRANCH  16  19
ENDBRANCH  15  16
ENDBRANCH  14  15
ENDBRANCH  13  14
ENDBRANCH   5  13
TORSDOF 7
ENDMDL
