MODEL 1
REMARK VINA RESULT:      -6.2      0.000      0.000
REMARK  Name = 5362119
REMARK  15 active torsions:
REMARK  status: ('A' for Active; 'I' for Inactive)
REMARK    1  A    between atoms: CA_1  and  C_8
REMARK    2  A    between atoms: CA_1  and  N_13
REMARK    3  A    between atoms: CA_1  and  CB_29
REMARK    4  A    between atoms: CA_4  and  C_10
REMARK    5  A    between atoms: C_10  and  O_11
REMARK    6  A    between atoms: N_13  and  CA_16
REMARK    7  A    between atoms: CA_16  and  C_18
REMARK    8  A    between atoms: CA_16  and  C_21
REMARK    9  A    between atoms: C_18  and  O_19
REMARK   10  A    between atoms: C_21  and  C_22
REMARK   11  A    between atoms: C_22  and  C_23
REMARK   12  A    between atoms: CB_29  and  CG_30
REMARK   13  A    between atoms: CG_30  and  CD_31
REMARK   14  A    between atoms: CD_31  and  CE_32
REMARK   15  A    between atoms: CE_32  and  NZ_33
REMARK                            x       y       z     vdW  Elec       q    Type
REMARK                         _______ _______ _______ _____ _____    ______ ____
ROOT
ATOM      1  CA  UNL     1     -35.730  23.228   2.878  0.00  0.00    +0.018 C 
ENDROOT
BRANCH   1   8
ATOM      2  O   UNL     1     -35.762  25.333   1.765  0.00  0.00    -0.277 OA
ATOM      3  N   UNL     1     -37.788  24.243   2.023  0.00  0.00    -0.273 N 
ATOM      4  CA  UNL     1     -38.579  25.170   1.224  0.00  0.00    +0.174 C 
ATOM      5  CB  UNL     1     -39.886  24.432   0.955  0.00  0.00    +0.033 C 
ATOM      6  CD  UNL     1     -38.599  23.119   2.483  0.00  0.00    +0.094 C 
ATOM      7  CG  UNL     1     -40.034  23.518   2.170  0.00  0.00    +0.024 C 
ATOM      8  C   UNL     1     -36.416  24.368   2.167  0.00  0.00    +0.206 C 
BRANCH   4  10
ATOM      9  OXT UNL     1     -39.765  26.601   2.770  0.00  0.00    -0.248 OA
ATOM     10  C   UNL     1     -38.794  26.398   2.055  0.00  0.00    +0.332 C 
BRANCH  10  11
ATOM     11  O   UNL     1     -37.761  27.263   1.908  0.00  0.00    -0.479 OA
ATOM     12  H   UNL     1     -37.392  27.411   1.059  0.00  0.00    +0.295 HD
ENDBRANCH  10  11
ENDBRANCH   4  10
ENDBRANCH   1   8
BRANCH   1  13
ATOM     13  N   UNL     1     -34.915  22.563   1.867  0.00  0.00    +0.399 N 
ATOM     14  H1  UNL     1     -34.032  22.271   2.287  0.00  0.00    -0.083 HD
ATOM     15  H2  UNL     1     -34.744  23.217   1.102  0.00  0.00    -0.083 HD
BRANCH  13  16
ATOM     16  CA  UNL     1     -35.599  21.393   1.336  0.00  0.00    +0.041 C 
BRANCH  16  18
ATOM     17  OXT UNL     1     -34.890  20.214   3.344  0.00  0.00    -0.253 OA
ATOM     18  C   UNL     1     -35.737  20.403   2.479  0.00  0.00    +0.293 C 
BRANCH  18  19
ATOM     19  O   UNL     1     -36.927  19.752   2.464  0.00  0.00    -0.482 OA
ATOM     20  H   UNL     1     -37.645  20.078   2.971  0.00  0.00    +0.295 HD
ENDBRANCH  18  19
ENDBRANCH  16  18
BRANCH  16  21
ATOM     21  C   UNL     1     -34.773  20.801   0.187  0.00  0.00    -0.006 C 
BRANCH  21  22
ATOM     22  C   UNL     1     -33.304  21.254   0.159  0.00  0.00    +0.025 C 
BRANCH  22  23
ATOM     23  C   UNL     1     -32.302  20.135   0.300  0.00  0.00    -0.022 C 
ATOM     24  C   UNL     1     -31.050  20.239  -0.309  0.00  0.00    -0.004 C 
ATOM     25  C   UNL     1     -32.626  18.996   1.037  0.00  0.00    -0.004 C 
ATOM     26  C   UNL     1     -30.124  19.204  -0.179  0.00  0.00    -0.000 C 
ATOM     27  C   UNL     1     -31.699  17.962   1.167  0.00  0.00    -0.000 C 
ATOM     28  C   UNL     1     -30.448  18.066   0.559  0.00  0.00    -0.000 C 
ENDBRANCH  22  23
ENDBRANCH  21  22
ENDBRANCH  16  21
ENDBRANCH  13  16
ENDBRANCH   1  13
BRANCH   1  29
ATOM     29  CB  UNL     1     -34.863  23.729   4.037  0.00  0.00    -0.013 C 
BRANCH  29  30
ATOM     30  CG  UNL     1     -35.700  24.070   5.276  0.00  0.00    -0.004 C 
BRANCH  30  31
ATOM     31  CD  UNL     1     -35.579  25.536   5.708  0.00  0.00    -0.024 C 
BRANCH  31  32
ATOM     32  CE  UNL     1     -34.659  26.356   4.805  0.00  0.00    -0.086 C 
BRANCH  32  33
ATOM     33  NZ  UNL     1     -35.439  27.320   4.035  0.00  0.00    +0.380 N 
ATOM     34  HZ1 UNL     1     -35.432  28.222   4.511  0.00  0.00    -0.089 HD
ATOM     35  HZ2 UNL     1     -36.399  26.988   3.948  0.00  0.00    -0.089 HD
ATOM     36  HZ3 UNL     1     -35.029  27.424   3.106  0.00  0.00    -0.089 HD
ENDBRANCH  32  33
ENDBRANCH  31  32
ENDBRANCH  30  31
ENDBRANCH  29  30
ENDBRANCH   1  29
TORSDOF 15
ENDMDL
MODEL 2
REMARK VINA RESULT:      -6.1      2.014      3.935
REMARK  Name = 5362119
REMARK  15 active torsions:
REMARK  status: ('A' for Active; 'I' for Inactive)
REMARK    1  A    between atoms: CA_1  and  C_8
REMARK    2  A    between atoms: CA_1  and  N_13
REMARK    3  A    between atoms: CA_1  and  CB_29
REMARK    4  A    between atoms: CA_4  and  C_10
REMARK    5  A    between atoms: C_10  and  O_11
REMARK    6  A    between atoms: N_13  and  CA_16
REMARK    7  A    between atoms: CA_16  and  C_18
REMARK    8  A    between atoms: CA_16  and  C_21
REMARK    9  A    between atoms: C_18  and  O_19
REMARK   10  A    between atoms: C_21  and  C_22
REMARK   11  A    between atoms: C_22  and  C_23
REMARK   12  A    between atoms: CB_29  and  CG_30
REMARK   13  A    between atoms: CG_30  and  CD_31
REMARK   14  A    between atoms: CD_31  and  CE_32
REMARK   15  A    between atoms: CE_32  and  NZ_33
REMARK                            x       y       z     vdW  Elec       q    Type
REMARK                         _______ _______ _______ _____ _____    ______ ____
ROOT
ATOM      1  CA  UNL     1     -36.604  23.690   2.585  0.00  0.00    +0.018 C 
ENDROOT
BRANCH   1   8
ATOM      2  O   UNL     1     -37.149  25.629   3.856  0.00  0.00    -0.277 OA
ATOM      3  N   UNL     1     -35.060  25.571   2.859  0.00  0.00    -0.273 N 
ATOM      4  CA  UNL     1     -34.552  26.794   3.467  0.00  0.00    +0.174 C 
ATOM      5  CB  UNL     1     -33.047  26.748   3.230  0.00  0.00    +0.033 C 
ATOM      6  CD  UNL     1     -34.036  24.921   2.048  0.00  0.00    +0.094 C 
ATOM      7  CG  UNL     1     -32.916  25.945   1.938  0.00  0.00    +0.024 C 
ATOM      8  C   UNL     1     -36.307  25.050   3.167  0.00  0.00    +0.206 C 
BRANCH   4  10
ATOM      9  OXT UNL     1     -35.717  27.879   1.648  0.00  0.00    -0.248 OA
ATOM     10  C   UNL     1     -35.193  27.944   2.750  0.00  0.00    +0.332 C 
BRANCH  10  11
ATOM     11  O   UNL     1     -35.111  29.076   3.491  0.00  0.00    -0.479 OA
ATOM     12  H   UNL     1     -34.387  29.660   3.377  0.00  0.00    +0.295 HD
ENDBRANCH  10  11
ENDBRANCH   4  10
ENDBRANCH   1   8
BRANCH   1  13
ATOM     13  N   UNL     1     -36.975  22.848   3.717  0.00  0.00    +0.399 N 
ATOM     14  H1  UNL     1     -37.942  22.544   3.605  0.00  0.00    -0.083 HD
ATOM     15  H2  UNL     1     -36.871  23.388   4.576  0.00  0.00    -0.083 HD
BRANCH  13  16
ATOM     16  CA  UNL     1     -36.114  21.677   3.797  0.00  0.00    +0.041 C 
BRANCH  16  18
ATOM     17  OXT UNL     1     -34.763  22.869   5.434  0.00  0.00    -0.253 OA
ATOM     18  C   UNL     1     -35.280  21.825   5.057  0.00  0.00    +0.293 C 
BRANCH  18  19
ATOM     19  O   UNL     1     -35.183  20.666   5.757  0.00  0.00    -0.482 OA
ATOM     20  H   UNL     1     -34.393  20.463   6.217  0.00  0.00    +0.295 HD
ENDBRANCH  18  19
ENDBRANCH  16  18
BRANCH  16  21
ATOM     21  C   UNL     1     -35.223  21.618   2.548  0.00  0.00    -0.006 C 
BRANCH  21  22
ATOM     22  C   UNL     1     -35.171  20.241   1.867  0.00  0.00    +0.025 C 
BRANCH  22  23
ATOM     23  C   UNL     1     -33.831  19.889   1.271  0.00  0.00    -0.022 C 
ATOM     24  C   UNL     1     -33.196  20.780   0.406  0.00  0.00    -0.004 C 
ATOM     25  C   UNL     1     -33.226  18.671   1.583  0.00  0.00    -0.004 C 
ATOM     26  C   UNL     1     -31.957  20.454  -0.145  0.00  0.00    -0.000 C 
ATOM     27  C   UNL     1     -31.987  18.345   1.033  0.00  0.00    -0.000 C 
ATOM     28  C   UNL     1     -31.352  19.237   0.168  0.00  0.00    -0.000 C 
ENDBRANCH  22  23
ENDBRANCH  21  22
ENDBRANCH  16  21
ENDBRANCH  13  16
ENDBRANCH   1  13
BRANCH   1  29
ATOM     29  CB  UNL     1     -37.738  23.755   1.556  0.00  0.00    -0.013 C 
BRANCH  29  30
ATOM     30  CG  UNL     1     -39.075  23.290   2.145  0.00  0.00    -0.004 C 
BRANCH  30  31
ATOM     31  CD  UNL     1     -40.256  24.184   1.752  0.00  0.00    -0.024 C 
BRANCH  31  32
ATOM     32  CE  UNL     1     -40.446  25.378   2.688  0.00  0.00    -0.086 C 
BRANCH  32  33
ATOM     33  NZ  UNL     1     -39.972  25.047   4.028  0.00  0.00    +0.380 N 
ATOM     34  HZ1 UNL     1     -40.751  25.092   4.685  0.00  0.00    -0.089 HD
ATOM     35  HZ2 UNL     1     -39.251  25.713   4.307  0.00  0.00    -0.089 HD
ATOM     36  HZ3 UNL     1     -39.582  24.104   4.027  0.00  0.00    -0.089 HD
ENDBRANCH  32  33
ENDBRANCH  31  32
ENDBRANCH  30  31
ENDBRANCH  29  30
ENDBRANCH   1  29
TORSDOF 15
ENDMDL
MODEL 3
REMARK VINA RESULT:      -6.0      2.225      4.404
REMARK  Name = 5362119
REMARK  15 active torsions:
REMARK  status: ('A' for Active; 'I' for Inactive)
REMARK    1  A    between atoms: CA_1  and  C_8
REMARK    2  A    between atoms: CA_1  and  N_13
REMARK    3  A    between atoms: CA_1  and  CB_29
REMARK    4  A    between atoms: CA_4  and  C_10
REMARK    5  A    between atoms: C_10  and  O_11
REMARK    6  A    between atoms: N_13  and  CA_16
REMARK    7  A    between atoms: CA_16  and  C_18
REMARK    8  A    between atoms: CA_16  and  C_21
REMARK    9  A    between atoms: C_18  and  O_19
REMARK   10  A    between atoms: C_21  and  C_22
REMARK   11  A    between atoms: C_22  and  C_23
REMARK   12  A    between atoms: CB_29  and  CG_30
REMARK   13  A    between atoms: CG_30  and  CD_31
REMARK   14  A    between atoms: CD_31  and  CE_32
REMARK   15  A    between atoms: CE_32  and  NZ_33
REMARK                            x       y       z     vdW  Elec       q    Type
REMARK                         _______ _______ _______ _____ _____    ______ ____
ROOT
ATOM      1  CA  UNL     1     -37.576  23.978   2.950  0.00  0.00    +0.018 C 
ENDROOT
BRANCH   1   8
ATOM      2  O   UNL     1     -36.511  23.810   5.074  0.00  0.00    -0.277 OA
ATOM      3  N   UNL     1     -35.423  25.037   3.440  0.00  0.00    -0.273 N 
ATOM      4  CA  UNL     1     -34.197  25.266   4.193  0.00  0.00    +0.174 C 
ATOM      5  CB  UNL     1     -33.189  25.747   3.156  0.00  0.00    +0.033 C 
ATOM      6  CD  UNL     1     -35.322  25.586   2.091  0.00  0.00    +0.094 C 
ATOM      7  CG  UNL     1     -34.060  26.435   2.107  0.00  0.00    +0.024 C 
ATOM      8  C   UNL     1     -36.460  24.257   3.926  0.00  0.00    +0.206 C 
BRANCH   4  10
ATOM      9  OXT UNL     1     -33.711  26.722   6.061  0.00  0.00    -0.248 OA
ATOM     10  C   UNL     1     -34.495  26.325   5.212  0.00  0.00    +0.332 C 
BRANCH  10  11
ATOM     11  O   UNL     1     -35.761  26.785   5.067  0.00  0.00    -0.479 OA
ATOM     12  H   UNL     1     -36.425  26.227   4.712  0.00  0.00    +0.295 HD
ENDBRANCH  10  11
ENDBRANCH   4  10
ENDBRANCH   1   8
BRANCH   1  13
ATOM     13  N   UNL     1     -37.787  22.534   2.991  0.00  0.00    +0.399 N 
ATOM     14  H1  UNL     1     -38.681  22.340   3.442  0.00  0.00    -0.083 HD
ATOM     15  H2  UNL     1     -37.024  22.107   3.518  0.00  0.00    -0.083 HD
BRANCH  13  16
ATOM     16  CA  UNL     1     -37.798  21.974   1.648  0.00  0.00    +0.041 C 
BRANCH  16  18
ATOM     17  OXT UNL     1     -40.149  21.522   2.090  0.00  0.00    -0.253 OA
ATOM     18  C   UNL     1     -39.122  21.249   1.482  0.00  0.00    +0.293 C 
BRANCH  18  19
ATOM     19  O   UNL     1     -39.062  20.262   0.552  0.00  0.00    -0.482 OA
ATOM     20  H   UNL     1     -38.532  19.505   0.707  0.00  0.00    +0.295 HD
ENDBRANCH  18  19
ENDBRANCH  16  18
BRANCH  16  21
ATOM     21  C   UNL     1     -36.615  21.009   1.492  0.00  0.00    -0.006 C 
BRANCH  21  22
ATOM     22  C   UNL     1     -35.329  21.658   0.956  0.00  0.00    +0.025 C 
BRANCH  22  23
ATOM     23  C   UNL     1     -34.148  20.725   0.864  0.00  0.00    -0.022 C 
ATOM     24  C   UNL     1     -33.022  21.094   0.128  0.00  0.00    -0.004 C 
ATOM     25  C   UNL     1     -34.181  19.491   1.515  0.00  0.00    -0.004 C 
ATOM     26  C   UNL     1     -31.930  20.230   0.044  0.00  0.00    -0.000 C 
ATOM     27  C   UNL     1     -33.089  18.628   1.430  0.00  0.00    -0.000 C 
ATOM     28  C   UNL     1     -31.963  18.998   0.694  0.00  0.00    -0.000 C 
ENDBRANCH  22  23
ENDBRANCH  21  22
ENDBRANCH  16  21
ENDBRANCH  13  16
ENDBRANCH   1  13
BRANCH   1  29
ATOM     29  CB  UNL     1     -38.856  24.729   3.331  0.00  0.00    -0.013 C 
BRANCH  29  30
ATOM     30  CG  UNL     1     -39.176  25.857   2.342  0.00  0.00    -0.004 C 
BRANCH  30  31
ATOM     31  CD  UNL     1     -39.938  25.379   1.100  0.00  0.00    -0.024 C 
BRANCH  31  32
ATOM     32  CE  UNL     1     -41.345  24.870   1.415  0.00  0.00    -0.086 C 
BRANCH  32  33
ATOM     33  NZ  UNL     1     -41.647  23.694   0.606  0.00  0.00    +0.380 N 
ATOM     34  HZ1 UNL     1     -40.956  22.966   0.792  0.00  0.00    -0.089 HD
ATOM     35  HZ2 UNL     1     -41.620  23.945  -0.382  0.00  0.00    -0.089 HD
ATOM     36  HZ3 UNL     1     -42.577  23.348   0.844  0.00  0.00    -0.089 HD
ENDBRANCH  32  33
ENDBRANCH  31  32
ENDBRANCH  30  31
ENDBRANCH  29  30
ENDBRANCH   1  29
TORSDOF 15
ENDMDL
MODEL 4
REMARK VINA RESULT:      -6.0      2.083      7.700
REMARK  Name = 5362119
REMARK  15 active torsions:
REMARK  status: ('A' for Active; 'I' for Inactive)
REMARK    1  A    between atoms: CA_1  and  C_8
REMARK    2  A    between atoms: CA_1  and  N_13
REMARK    3  A    between atoms: CA_1  and  CB_29
REMARK    4  A    between atoms: CA_4  and  C_10
REMARK    5  A    between atoms: C_10  and  O_11
REMARK    6  A    between atoms: N_13  and  CA_16
REMARK    7  A    between atoms: CA_16  and  C_18
REMARK    8  A    between atoms: CA_16  and  C_21
REMARK    9  A    between atoms: C_18  and  O_19
REMARK   10  A    between atoms: C_21  and  C_22
REMARK   11  A    between atoms: C_22  and  C_23
REMARK   12  A    between atoms: CB_29  and  CG_30
REMARK   13  A    between atoms: CG_30  and  CD_31
REMARK   14  A    between atoms: CD_31  and  CE_32
REMARK   15  A    between atoms: CE_32  and  NZ_33
REMARK                            x       y       z     vdW  Elec       q    Type
REMARK                         _______ _______ _______ _____ _____    ______ ____
ROOT
ATOM      1  CA  UNL     1     -35.955  22.428   3.440  0.00  0.00    +0.018 C 
ENDROOT
BRANCH   1   8
ATOM      2  O   UNL     1     -36.070  20.157   2.735  0.00  0.00    -0.277 OA
ATOM      3  N   UNL     1     -34.887  21.623   1.389  0.00  0.00    -0.273 N 
ATOM      4  CA  UNL     1     -34.641  20.687   0.300  0.00  0.00    +0.174 C 
ATOM      5  CB  UNL     1     -34.188  21.559  -0.866  0.00  0.00    +0.033 C 
ATOM      6  CD  UNL     1     -34.373  22.951   1.069  0.00  0.00    +0.094 C 
ATOM      7  CG  UNL     1     -33.526  22.753  -0.179  0.00  0.00    +0.024 C 
ATOM      8  C   UNL     1     -35.653  21.292   2.496  0.00  0.00    +0.206 C 
BRANCH   4  10
ATOM      9  OXT UNL     1     -32.360  20.007   0.724  0.00  0.00    -0.248 OA
ATOM     10  C   UNL     1     -33.556  19.757   0.753  0.00  0.00    +0.332 C 
BRANCH  10  11
ATOM     11  O   UNL     1     -34.081  18.591   1.201  0.00  0.00    -0.479 OA
ATOM     12  H   UNL     1     -34.778  18.179   0.729  0.00  0.00    +0.295 HD
ENDBRANCH  10  11
ENDBRANCH   4  10
ENDBRANCH   1   8
BRANCH   1  13
ATOM     13  N   UNL     1     -37.409  22.538   3.477  0.00  0.00    +0.399 N 
ATOM     14  H1  UNL     1     -37.701  22.818   4.413  0.00  0.00    -0.083 HD
ATOM     15  H2  UNL     1     -37.812  21.632   3.236  0.00  0.00    -0.083 HD
BRANCH  13  16
ATOM     16  CA  UNL     1     -37.878  23.527   2.517  0.00  0.00    +0.041 C 
BRANCH  16  18
ATOM     17  OXT UNL     1     -36.868  25.742   2.468  0.00  0.00    -0.253 OA
ATOM     18  C   UNL     1     -37.511  24.892   3.072  0.00  0.00    +0.293 C 
BRANCH  18  19
ATOM     19  O   UNL     1     -37.999  25.095   4.322  0.00  0.00    -0.482 OA
ATOM     20  H   UNL     1     -37.510  24.807   5.067  0.00  0.00    +0.295 HD
ENDBRANCH  18  19
ENDBRANCH  16  18
BRANCH  16  21
ATOM     21  C   UNL     1     -39.398  23.388   2.348  0.00  0.00    -0.006 C 
BRANCH  21  22
ATOM     22  C   UNL     1     -40.015  24.348   1.318  0.00  0.00    +0.025 C 
BRANCH  22  23
ATOM     23  C   UNL     1     -41.180  25.154   1.834  0.00  0.00    -0.022 C 
ATOM     24  C   UNL     1     -41.016  25.988   2.941  0.00  0.00    -0.004 C 
ATOM     25  C   UNL     1     -42.423  25.067   1.206  0.00  0.00    -0.004 C 
ATOM     26  C   UNL     1     -42.094  26.733   3.419  0.00  0.00    -0.000 C 
ATOM     27  C   UNL     1     -43.500  25.813   1.683  0.00  0.00    -0.000 C 
ATOM     28  C   UNL     1     -43.336  26.646   2.790  0.00  0.00    -0.000 C 
ENDBRANCH  22  23
ENDBRANCH  21  22
ENDBRANCH  16  21
ENDBRANCH  13  16
ENDBRANCH   1  13
BRANCH   1  29
ATOM     29  CB  UNL     1     -35.391  22.160   4.840  0.00  0.00    -0.013 C 
BRANCH  29  30
ATOM     30  CG  UNL     1     -35.273  23.446   5.668  0.00  0.00    -0.004 C 
BRANCH  30  31
ATOM     31  CD  UNL     1     -34.451  24.540   4.976  0.00  0.00    -0.024 C 
BRANCH  31  32
ATOM     32  CE  UNL     1     -34.520  25.889   5.691  0.00  0.00    -0.086 C 
BRANCH  32  33
ATOM     33  NZ  UNL     1     -35.453  26.776   5.002  0.00  0.00    +0.380 N 
ATOM     34  HZ1 UNL     1     -35.101  26.979   4.066  0.00  0.00    -0.089 HD
ATOM     35  HZ2 UNL     1     -35.547  27.645   5.527  0.00  0.00    -0.089 HD
ATOM     36  HZ3 UNL     1     -36.364  26.321   4.931  0.00  0.00    -0.089 HD
ENDBRANCH  32  33
ENDBRANCH  31  32
ENDBRANCH  30  31
ENDBRANCH  29  30
ENDBRANCH   1  29
TORSDOF 15
ENDMDL
MODEL 5
REMARK VINA RESULT:      -5.8      2.239      6.312
REMARK  Name = 5362119
REMARK  15 active torsions:
REMARK  status: ('A' for Active; 'I' for Inactive)
REMARK    1  A    between atoms: CA_1  and  C_8
REMARK    2  A    between atoms: CA_1  and  N_13
REMARK    3  A    between atoms: CA_1  and  CB_29
REMARK    4  A    between atoms: CA_4  and  C_10
REMARK    5  A    between atoms: C_10  and  O_11
REMARK    6  A    between atoms: N_13  and  CA_16
REMARK    7  A    between atoms: CA_16  and  C_18
REMARK    8  A    between atoms: CA_16  and  C_21
REMARK    9  A    between atoms: C_18  and  O_19
REMARK   10  A    between atoms: C_21  and  C_22
REMARK   11  A    between atoms: C_22  and  C_23
REMARK   12  A    between atoms: CB_29  and  CG_30
REMARK   13  A    between atoms: CG_30  and  CD_31
REMARK   14  A    between atoms: CD_31  and  CE_32
REMARK   15  A    between atoms: CE_32  and  NZ_33
REMARK                            x       y       z     vdW  Elec       q    Type
REMARK                         _______ _______ _______ _____ _____    ______ ____
ROOT
ATOM      1  CA  UNL     1     -36.909  22.753   3.123  0.00  0.00    +0.018 C 
ENDROOT
BRANCH   1   8
ATOM      2  O   UNL     1     -35.567  24.079   1.670  0.00  0.00    -0.277 OA
ATOM      3  N   UNL     1     -35.294  21.782   1.559  0.00  0.00    -0.273 N 
ATOM      4  CA  UNL     1     -34.159  21.793   0.646  0.00  0.00    +0.174 C 
ATOM      5  CB  UNL     1     -33.581  20.385   0.728  0.00  0.00    +0.033 C 
ATOM      6  CD  UNL     1     -35.613  20.423   1.986  0.00  0.00    +0.094 C 
ATOM      7  CG  UNL     1     -34.794  19.524   1.072  0.00  0.00    +0.024 C 
ATOM      8  C   UNL     1     -35.862  22.945   2.055  0.00  0.00    +0.206 C 
BRANCH   4  10
ATOM      9  OXT UNL     1     -35.876  22.077  -1.032  0.00  0.00    -0.248 OA
ATOM     10  C   UNL     1     -34.694  22.096  -0.722  0.00  0.00    +0.332 C 
BRANCH  10  11
ATOM     11  O   UNL     1     -33.686  22.394  -1.576  0.00  0.00    -0.479 OA
ATOM     12  H   UNL     1     -32.858  22.681  -1.242  0.00  0.00    +0.295 HD
ENDBRANCH  10  11
ENDBRANCH   4  10
ENDBRANCH   1   8
BRANCH   1  13
ATOM     13  N   UNL     1     -36.425  23.483   4.289  0.00  0.00    +0.399 N 
ATOM     14  H1  UNL     1     -37.125  23.432   5.030  0.00  0.00    -0.083 HD
ATOM     15  H2  UNL     1     -36.262  24.455   4.023  0.00  0.00    -0.083 HD
BRANCH  13  16
ATOM     16  CA  UNL     1     -35.175  22.916   4.774  0.00  0.00    +0.041 C 
BRANCH  16  18
ATOM     17  OXT UNL     1     -36.151  22.068   6.837  0.00  0.00    -0.253 OA
ATOM     18  C   UNL     1     -35.538  21.855   5.798  0.00  0.00    +0.293 C 
BRANCH  18  19
ATOM     19  O   UNL     1     -35.129  20.615   5.431  0.00  0.00    -0.482 OA
ATOM     20  H   UNL     1     -34.544  20.133   5.981  0.00  0.00    +0.295 HD
ENDBRANCH  18  19
ENDBRANCH  16  18
BRANCH  16  21
ATOM     21  C   UNL     1     -34.326  24.028   5.405  0.00  0.00    -0.006 C 
BRANCH  21  22
ATOM     22  C   UNL     1     -34.845  25.451   5.145  0.00  0.00    +0.025 C 
BRANCH  22  23
ATOM     23  C   UNL     1     -33.798  26.531   5.269  0.00  0.00    -0.022 C 
ATOM     24  C   UNL     1     -33.195  26.779   6.502  0.00  0.00    -0.004 C 
ATOM     25  C   UNL     1     -33.434  27.282   4.151  0.00  0.00    -0.004 C 
ATOM     26  C   UNL     1     -32.227  27.777   6.616  0.00  0.00    -0.000 C 
ATOM     27  C   UNL     1     -32.467  28.280   4.266  0.00  0.00    -0.000 C 
ATOM     28  C   UNL     1     -31.863  28.528   5.499  0.00  0.00    -0.000 C 
ENDBRANCH  22  23
ENDBRANCH  21  22
ENDBRANCH  16  21
ENDBRANCH  13  16
ENDBRANCH   1  13
BRANCH   1  29
ATOM     29  CB  UNL     1     -38.274  23.284   2.672  0.00  0.00    -0.013 C 
BRANCH  29  30
ATOM     30  CG  UNL     1     -38.574  24.669   3.259  0.00  0.00    -0.004 C 
BRANCH  30  31
ATOM     31  CD  UNL     1     -39.092  25.670   2.220  0.00  0.00    -0.024 C 
BRANCH  31  32
ATOM     32  CE  UNL     1     -37.989  26.540   1.618  0.00  0.00    -0.086 C 
BRANCH  32  33
ATOM     33  NZ  UNL     1     -36.952  26.797   2.613  0.00  0.00    +0.380 N 
ATOM     34  HZ1 UNL     1     -36.061  26.428   2.280  0.00  0.00    -0.089 HD
ATOM     35  HZ2 UNL     1     -37.203  26.342   3.491  0.00  0.00    -0.089 HD
ATOM     36  HZ3 UNL     1     -36.868  27.804   2.763  0.00  0.00    -0.089 HD
ENDBRANCH  32  33
ENDBRANCH  31  32
ENDBRANCH  30  31
ENDBRANCH  29  30
ENDBRANCH   1  29
TORSDOF 15
ENDMDL
MODEL 6
REMARK VINA RESULT:      -5.8      2.928      6.125
REMARK  Name = 5362119
REMARK  15 active torsions:
REMARK  status: ('A' for Active; 'I' for Inactive)
REMARK    1  A    between atoms: CA_1  and  C_8
REMARK    2  A    between atoms: CA_1  and  N_13
REMARK    3  A    between atoms: CA_1  and  CB_29
REMARK    4  A    between atoms: CA_4  and  C_10
REMARK    5  A    between atoms: C_10  and  O_11
REMARK    6  A    between atoms: N_13  and  CA_16
REMARK    7  A    between atoms: CA_16  and  C_18
REMARK    8  A    between atoms: CA_16  and  C_21
REMARK    9  A    between atoms: C_18  and  O_19
REMARK   10  A    between atoms: C_21  and  C_22
REMARK   11  A    between atoms: C_22  and  C_23
REMARK   12  A    between atoms: CB_29  and  CG_30
REMARK   13  A    between atoms: CG_30  and  CD_31
REMARK   14  A    between atoms: CD_31  and  CE_32
REMARK   15  A    between atoms: CE_32  and  NZ_33
REMARK                            x       y       z     vdW  Elec       q    Type
REMARK                         _______ _______ _______ _____ _____    ______ ____
ROOT
ATOM      1  CA  UNL     1     -36.911  23.759   2.948  0.00  0.00    +0.018 C 
ENDROOT
BRANCH   1   8
ATOM      2  O   UNL     1     -38.159  25.784   3.060  0.00  0.00    -0.277 OA
ATOM      3  N   UNL     1     -36.169  25.833   1.878  0.00  0.00    -0.273 N 
ATOM      4  CA  UNL     1     -36.158  27.269   1.630  0.00  0.00    +0.174 C 
ATOM      5  CB  UNL     1     -34.734  27.573   1.178  0.00  0.00    +0.033 C 
ATOM      6  CD  UNL     1     -34.957  25.201   1.366  0.00  0.00    +0.094 C 
ATOM      7  CG  UNL     1     -34.286  26.271   0.518  0.00  0.00    +0.024 C 
ATOM      8  C   UNL     1     -37.146  25.218   2.644  0.00  0.00    +0.206 C 
BRANCH   4  10
ATOM      9  OXT UNL     1     -37.274  26.880  -0.479  0.00  0.00    -0.248 OA
ATOM     10  C   UNL     1     -37.156  27.538   0.544  0.00  0.00    +0.332 C 
BRANCH  10  11
ATOM     11  O   UNL     1     -37.915  28.618   0.849  0.00  0.00    -0.479 OA
ATOM     12  H   UNL     1     -37.634  29.216   1.513  0.00  0.00    +0.295 HD
ENDBRANCH  10  11
ENDBRANCH   4  10
ENDBRANCH   1   8
BRANCH   1  13
ATOM     13  N   UNL     1     -36.562  23.700   4.363  0.00  0.00    +0.399 N 
ATOM     14  H1  UNL     1     -37.301  23.213   4.870  0.00  0.00    -0.083 HD
ATOM     15  H2  UNL     1     -36.460  24.652   4.715  0.00  0.00    -0.083 HD
BRANCH  13  16
ATOM     16  CA  UNL     1     -35.305  22.993   4.558  0.00  0.00    +0.041 C 
BRANCH  16  18
ATOM     17  OXT UNL     1     -36.054  22.161   6.720  0.00  0.00    -0.253 OA
ATOM     18  C   UNL     1     -35.549  21.941   5.626  0.00  0.00    +0.293 C 
BRANCH  18  19
ATOM     19  O   UNL     1     -35.168  20.700   5.231  0.00  0.00    -0.482 OA
ATOM     20  H   UNL     1     -35.336  19.962   5.783  0.00  0.00    +0.295 HD
ENDBRANCH  18  19
ENDBRANCH  16  18
BRANCH  16  21
ATOM     21  C   UNL     1     -34.226  23.991   5.001  0.00  0.00    -0.006 C 
BRANCH  21  22
ATOM     22  C   UNL     1     -34.771  25.343   5.488  0.00  0.00    +0.025 C 
BRANCH  22  23
ATOM     23  C   UNL     1     -33.754  26.458   5.505  0.00  0.00    -0.022 C 
ATOM     24  C   UNL     1     -33.435  27.128   4.323  0.00  0.00    -0.004 C 
ATOM     25  C   UNL     1     -33.132  26.818   6.700  0.00  0.00    -0.004 C 
ATOM     26  C   UNL     1     -32.494  28.158   4.339  0.00  0.00    -0.000 C 
ATOM     27  C   UNL     1     -32.193  27.849   6.716  0.00  0.00    -0.000 C 
ATOM     28  C   UNL     1     -31.873  28.519   5.534  0.00  0.00    -0.000 C 
ENDBRANCH  22  23
ENDBRANCH  21  22
ENDBRANCH  16  21
ENDBRANCH  13  16
ENDBRANCH   1  13
BRANCH   1  29
ATOM     29  CB  UNL     1     -38.157  22.916   2.656  0.00  0.00    -0.013 C 
BRANCH  29  30
ATOM     30  CG  UNL     1     -37.941  21.962   1.474  0.00  0.00    -0.004 C 
BRANCH  30  31
ATOM     31  CD  UNL     1     -36.466  21.785   1.097  0.00  0.00    -0.024 C 
BRANCH  31  32
ATOM     32  CE  UNL     1     -35.836  20.530   1.700  0.00  0.00    -0.086 C 
BRANCH  32  33
ATOM     33  NZ  UNL     1     -36.876  19.593   2.111  0.00  0.00    +0.380 N 
ATOM     34  HZ1 UNL     1     -36.445  18.765   2.523  0.00  0.00    -0.089 HD
ATOM     35  HZ2 UNL     1     -37.428  19.320   1.298  0.00  0.00    -0.089 HD
ATOM     36  HZ3 UNL     1     -37.483  20.039   2.799  0.00  0.00    -0.089 HD
ENDBRANCH  32  33
ENDBRANCH  31  32
ENDBRANCH  30  31
ENDBRANCH  29  30
ENDBRANCH   1  29
TORSDOF 15
ENDMDL
MODEL 7
REMARK VINA RESULT:      -5.8      1.810      2.606
REMARK  Name = 5362119
REMARK  15 active torsions:
REMARK  status: ('A' for Active; 'I' for Inactive)
REMARK    1  A    between atoms: CA_1  and  C_8
REMARK    2  A    between atoms: CA_1  and  N_13
REMARK    3  A    between atoms: CA_1  and  CB_29
REMARK    4  A    between atoms: CA_4  and  C_10
REMARK    5  A    between atoms: C_10  and  O_11
REMARK    6  A    between atoms: N_13  and  CA_16
REMARK    7  A    between atoms: CA_16  and  C_18
REMARK    8  A    between atoms: CA_16  and  C_21
REMARK    9  A    between atoms: C_18  and  O_19
REMARK   10  A    between atoms: C_21  and  C_22
REMARK   11  A    between atoms: C_22  and  C_23
REMARK   12  A    between atoms: CB_29  and  CG_30
REMARK   13  A    between atoms: CG_30  and  CD_31
REMARK   14  A    between atoms: CD_31  and  CE_32
REMARK   15  A    between atoms: CE_32  and  NZ_33
REMARK                            x       y       z     vdW  Elec       q    Type
REMARK                         _______ _______ _______ _____ _____    ______ ____
ROOT
ATOM      1  CA  UNL     1     -35.079  24.553   3.990  0.00  0.00    +0.018 C 
ENDROOT
BRANCH   1   8
ATOM      2  O   UNL     1     -34.268  25.931   2.224  0.00  0.00    -0.277 OA
ATOM      3  N   UNL     1     -36.563  25.822   2.512  0.00  0.00    -0.273 N 
ATOM      4  CA  UNL     1     -36.915  26.587   1.323  0.00  0.00    +0.174 C 
ATOM      5  CB  UNL     1     -38.403  26.321   1.118  0.00  0.00    +0.033 C 
ATOM      6  CD  UNL     1     -37.756  25.331   3.195  0.00  0.00    +0.094 C 
ATOM      7  CG  UNL     1     -38.914  26.062   2.534  0.00  0.00    +0.024 C 
ATOM      8  C   UNL     1     -35.253  25.496   2.825  0.00  0.00    +0.206 C 
BRANCH   4  10
ATOM      9  OXT UNL     1     -37.033  28.973   0.955  0.00  0.00    -0.248 OA
ATOM     10  C   UNL     1     -36.644  28.030   1.628  0.00  0.00    +0.332 C 
BRANCH  10  11
ATOM     11  O   UNL     1     -35.904  28.149   2.756  0.00  0.00    -0.479 OA
ATOM     12  H   UNL     1     -34.988  28.339   2.697  0.00  0.00    +0.295 HD
ENDBRANCH  10  11
ENDBRANCH   4  10
ENDBRANCH   1   8
BRANCH   1  13
ATOM     13  N   UNL     1     -34.847  23.237   3.404  0.00  0.00    +0.399 N 
ATOM     14  H1  UNL     1     -33.968  22.863   3.760  0.00  0.00    -0.083 HD
ATOM     15  H2  UNL     1     -34.807  23.333   2.389  0.00  0.00    -0.083 HD
BRANCH  13  16
ATOM     16  CA  UNL     1     -35.927  22.321   3.744  0.00  0.00    +0.041 C 
BRANCH  16  18
ATOM     17  OXT UNL     1     -36.014  22.412   6.175  0.00  0.00    -0.253 OA
ATOM     18  C   UNL     1     -35.663  21.830   5.156  0.00  0.00    +0.293 C 
BRANCH  18  19
ATOM     19  O   UNL     1     -35.009  20.641   5.180  0.00  0.00    -0.482 OA
ATOM     20  H   UNL     1     -34.683  20.303   5.991  0.00  0.00    +0.295 HD
ENDBRANCH  18  19
ENDBRANCH  16  18
BRANCH  16  21
ATOM     21  C   UNL     1     -35.936  21.156   2.745  0.00  0.00    -0.006 C 
BRANCH  21  22
ATOM     22  C   UNL     1     -35.245  21.461   1.405  0.00  0.00    +0.025 C 
BRANCH  22  23
ATOM     23  C   UNL     1     -34.049  20.592   1.107  0.00  0.00    -0.022 C 
ATOM     24  C   UNL     1     -33.950  19.321   1.675  0.00  0.00    -0.004 C 
ATOM     25  C   UNL     1     -33.040  21.058   0.263  0.00  0.00    -0.004 C 
ATOM     26  C   UNL     1     -32.843  18.518   1.400  0.00  0.00    -0.000 C 
ATOM     27  C   UNL     1     -31.935  20.254  -0.013  0.00  0.00    -0.000 C 
ATOM     28  C   UNL     1     -31.836  18.984   0.556  0.00  0.00    -0.000 C 
ENDBRANCH  22  23
ENDBRANCH  21  22
ENDBRANCH  16  21
ENDBRANCH  13  16
ENDBRANCH   1  13
BRANCH   1  29
ATOM     29  CB  UNL     1     -33.903  24.971   4.879  0.00  0.00    -0.013 C 
BRANCH  29  30
ATOM     30  CG  UNL     1     -34.274  26.128   5.816  0.00  0.00    -0.004 C 
BRANCH  30  31
ATOM     31  CD  UNL     1     -33.087  27.035   6.160  0.00  0.00    -0.024 C 
BRANCH  31  32
ATOM     32  CE  UNL     1     -32.464  27.704   4.935  0.00  0.00    -0.086 C 
BRANCH  32  33
ATOM     33  NZ  UNL     1     -33.491  28.400   4.165  0.00  0.00    +0.380 N 
ATOM     34  HZ1 UNL     1     -33.397  29.406   4.303  0.00  0.00    -0.089 HD
ATOM     35  HZ2 UNL     1     -34.414  28.098   4.479  0.00  0.00    -0.089 HD
ATOM     36  HZ3 UNL     1     -33.380  28.180   3.175  0.00  0.00    -0.089 HD
ENDBRANCH  32  33
ENDBRANCH  31  32
ENDBRANCH  30  31
ENDBRANCH  29  30
ENDBRANCH   1  29
TORSDOF 15
ENDMDL
MODEL 8
REMARK VINA RESULT:      -5.8      1.671      2.233
REMARK  Name = 5362119
REMARK  15 active torsions:
REMARK  status: ('A' for Active; 'I' for Inactive)
REMARK    1  A    between atoms: CA_1  and  C_8
REMARK    2  A    between atoms: CA_1  and  N_13
REMARK    3  A    between atoms: CA_1  and  CB_29
REMARK    4  A    between atoms: CA_4  and  C_10
REMARK    5  A    between atoms: C_10  and  O_11
REMARK    6  A    between atoms: N_13  and  CA_16
REMARK    7  A    between atoms: CA_16  and  C_18
REMARK    8  A    between atoms: CA_16  and  C_21
REMARK    9  A    between atoms: C_18  and  O_19
REMARK   10  A    between atoms: C_21  and  C_22
REMARK   11  A    between atoms: C_22  and  C_23
REMARK   12  A    between atoms: CB_29  and  CG_30
REMARK   13  A    between atoms: CG_30  and  CD_31
REMARK   14  A    between atoms: CD_31  and  CE_32
REMARK   15  A    between atoms: CE_32  and  NZ_33
REMARK                            x       y       z     vdW  Elec       q    Type
REMARK                         _______ _______ _______ _____ _____    ______ ____
ROOT
ATOM      1  CA  UNL     1     -35.638  24.327   2.865  0.00  0.00    +0.018 C 
ENDROOT
BRANCH   1   8
ATOM      2  O   UNL     1     -36.200  23.994   0.575  0.00  0.00    -0.277 OA
ATOM      3  N   UNL     1     -37.934  24.485   2.029  0.00  0.00    -0.273 N 
ATOM      4  CA  UNL     1     -39.015  24.289   1.071  0.00  0.00    +0.174 C 
ATOM      5  CB  UNL     1     -40.277  24.203   1.922  0.00  0.00    +0.033 C 
ATOM      6  CD  UNL     1     -38.457  24.787   3.358  0.00  0.00    +0.094 C 
ATOM      7  CG  UNL     1     -39.939  25.056   3.144  0.00  0.00    +0.024 C 
ATOM      8  C   UNL     1     -36.607  24.247   1.712  0.00  0.00    +0.206 C 
BRANCH   4  10
ATOM      9  OXT UNL     1     -39.533  26.568   0.451  0.00  0.00    -0.248 OA
ATOM     10  C   UNL     1     -39.031  25.489   0.172  0.00  0.00    +0.332 C 
BRANCH  10  11
ATOM     11  O   UNL     1     -38.412  25.216  -1.002  0.00  0.00    -0.479 OA
ATOM     12  H   UNL     1     -37.558  24.829  -1.002  0.00  0.00    +0.295 HD
ENDBRANCH  10  11
ENDBRANCH   4  10
ENDBRANCH   1   8
BRANCH   1  13
ATOM     13  N   UNL     1     -34.943  23.044   2.890  0.00  0.00    +0.399 N 
ATOM     14  H1  UNL     1     -34.133  23.114   3.505  0.00  0.00    -0.083 HD
ATOM     15  H2  UNL     1     -34.649  22.813   1.941  0.00  0.00    -0.083 HD
BRANCH  13  16
ATOM     16  CA  UNL     1     -35.821  21.989   3.375  0.00  0.00    +0.041 C 
BRANCH  16  18
ATOM     17  OXT UNL     1     -35.986  22.821   5.657  0.00  0.00    -0.253 OA
ATOM     18  C   UNL     1     -35.653  21.932   4.883  0.00  0.00    +0.293 C 
BRANCH  18  19
ATOM     19  O   UNL     1     -35.110  20.762   5.303  0.00  0.00    -0.482 OA
ATOM     20  H   UNL     1     -35.552  20.246   5.949  0.00  0.00    +0.295 HD
ENDBRANCH  18  19
ENDBRANCH  16  18
BRANCH  16  21
ATOM     21  C   UNL     1     -35.420  20.658   2.723  0.00  0.00    -0.006 C 
BRANCH  21  22
ATOM     22  C   UNL     1     -34.935  20.781   1.270  0.00  0.00    +0.025 C 
BRANCH  22  23
ATOM     23  C   UNL     1     -33.632  20.077   0.984  0.00  0.00    -0.022 C 
ATOM     24  C   UNL     1     -33.386  18.817   1.529  0.00  0.00    -0.004 C 
ATOM     25  C   UNL     1     -32.671  20.687   0.176  0.00  0.00    -0.004 C 
ATOM     26  C   UNL     1     -32.180  18.166   1.265  0.00  0.00    -0.000 C 
ATOM     27  C   UNL     1     -31.467  20.036  -0.088  0.00  0.00    -0.000 C 
ATOM     28  C   UNL     1     -31.221  18.775   0.456  0.00  0.00    -0.000 C 
ENDBRANCH  22  23
ENDBRANCH  21  22
ENDBRANCH  16  21
ENDBRANCH  13  16
ENDBRANCH   1  13
BRANCH   1  29
ATOM     29  CB  UNL     1     -34.648  25.483   2.688  0.00  0.00    -0.013 C 
BRANCH  29  30
ATOM     30  CG  UNL     1     -34.992  26.677   3.586  0.00  0.00    -0.004 C 
BRANCH  30  31
ATOM     31  CD  UNL     1     -35.400  26.272   5.007  0.00  0.00    -0.024 C 
BRANCH  31  32
ATOM     32  CE  UNL     1     -34.208  26.007   5.926  0.00  0.00    -0.086 C 
BRANCH  32  33
ATOM     33  NZ  UNL     1     -33.263  27.117   5.856  0.00  0.00    +0.380 N 
ATOM     34  HZ1 UNL     1     -32.739  27.173   6.730  0.00  0.00    -0.089 HD
ATOM     35  HZ2 UNL     1     -33.773  27.988   5.708  0.00  0.00    -0.089 HD
ATOM     36  HZ3 UNL     1     -32.617  26.965   5.081  0.00  0.00    -0.089 HD
ENDBRANCH  32  33
ENDBRANCH  31  32
ENDBRANCH  30  31
ENDBRANCH  29  30
ENDBRANCH   1  29
TORSDOF 15
ENDMDL
MODEL 9
REMARK VINA RESULT:      -5.8      2.917      5.567
REMARK  Name = 5362119
REMARK  15 active torsions:
REMARK  status: ('A' for Active; 'I' for Inactive)
REMARK    1  A    between atoms: CA_1  and  C_8
REMARK    2  A    between atoms: CA_1  and  N_13
REMARK    3  A    between atoms: CA_1  and  CB_29
REMARK    4  A    between atoms: CA_4  and  C_10
REMARK    5  A    between atoms: C_10  and  O_11
REMARK    6  A    between atoms: N_13  and  CA_16
REMARK    7  A    between atoms: CA_16  and  C_18
REMARK    8  A    between atoms: CA_16  and  C_21
REMARK    9  A    between atoms: C_18  and  O_19
REMARK   10  A    between atoms: C_21  and  C_22
REMARK   11  A    between atoms: C_22  and  C_23
REMARK   12  A    between atoms: CB_29  and  CG_30
REMARK   13  A    between atoms: CG_30  and  CD_31
REMARK   14  A    between atoms: CD_31  and  CE_32
REMARK   15  A    between atoms: CE_32  and  NZ_33
REMARK                            x       y       z     vdW  Elec       q    Type
REMARK                         _______ _______ _______ _____ _____    ______ ____
ROOT
ATOM      1  CA  UNL     1     -37.096  23.681   2.983  0.00  0.00    +0.018 C 
ENDROOT
BRANCH   1   8
ATOM      2  O   UNL     1     -38.801  22.117   2.421  0.00  0.00    -0.277 OA
ATOM      3  N   UNL     1     -39.219  24.347   1.962  0.00  0.00    -0.273 N 
ATOM      4  CA  UNL     1     -40.607  24.175   1.551  0.00  0.00    +0.174 C 
ATOM      5  CB  UNL     1     -41.190  25.584   1.556  0.00  0.00    +0.033 C 
ATOM      6  CD  UNL     1     -38.841  25.757   1.960  0.00  0.00    +0.094 C 
ATOM      7  CG  UNL     1     -39.983  26.469   1.251  0.00  0.00    +0.024 C 
ATOM      8  C   UNL     1     -38.448  23.298   2.436  0.00  0.00    +0.206 C 
BRANCH   4  10
ATOM      9  OXT UNL     1     -40.270  24.185  -0.843  0.00  0.00    -0.248 OA
ATOM     10  C   UNL     1     -40.590  23.585   0.173  0.00  0.00    +0.332 C 
BRANCH  10  11
ATOM     11  O   UNL     1     -40.982  22.289   0.203  0.00  0.00    -0.479 OA
ATOM     12  H   UNL     1     -41.143  21.866   1.024  0.00  0.00    +0.295 HD
ENDBRANCH  10  11
ENDBRANCH   4  10
ENDBRANCH   1   8
BRANCH   1  13
ATOM     13  N   UNL     1     -36.807  22.716   4.038  0.00  0.00    +0.399 N 
ATOM     14  H1  UNL     1     -36.747  21.783   3.631  0.00  0.00    -0.083 HD
ATOM     15  H2  UNL     1     -37.555  22.754   4.730  0.00  0.00    -0.083 HD
BRANCH  13  16
ATOM     16  CA  UNL     1     -35.547  23.030   4.697  0.00  0.00    +0.041 C 
BRANCH  16  18
ATOM     17  OXT UNL     1     -35.133  22.019   6.873  0.00  0.00    -0.253 OA
ATOM     18  C   UNL     1     -35.255  21.893   5.660  0.00  0.00    +0.293 C 
BRANCH  18  19
ATOM     19  O   UNL     1     -35.166  20.692   5.036  0.00  0.00    -0.482 OA
ATOM     20  H   UNL     1     -35.926  20.313   4.640  0.00  0.00    +0.295 HD
ENDBRANCH  18  19
ENDBRANCH  16  18
BRANCH  16  21
ATOM     21  C   UNL     1     -35.684  24.365   5.442  0.00  0.00    -0.006 C 
BRANCH  21  22
ATOM     22  C   UNL     1     -34.458  25.285   5.331  0.00  0.00    +0.025 C 
BRANCH  22  23
ATOM     23  C   UNL     1     -34.329  25.999   4.009  0.00  0.00    -0.022 C 
ATOM     24  C   UNL     1     -33.247  25.726   3.171  0.00  0.00    -0.004 C 
ATOM     25  C   UNL     1     -35.290  26.934   3.623  0.00  0.00    -0.004 C 
ATOM     26  C   UNL     1     -33.127  26.387   1.948  0.00  0.00    -0.000 C 
ATOM     27  C   UNL     1     -35.170  27.594   2.400  0.00  0.00    -0.000 C 
ATOM     28  C   UNL     1     -34.089  27.321   1.563  0.00  0.00    -0.000 C 
ENDBRANCH  22  23
ENDBRANCH  21  22
ENDBRANCH  16  21
ENDBRANCH  13  16
ENDBRANCH   1  13
BRANCH   1  29
ATOM     29  CB  UNL     1     -36.018  23.641   1.894  0.00  0.00    -0.013 C 
BRANCH  29  30
ATOM     30  CG  UNL     1     -36.111  22.370   1.040  0.00  0.00    -0.004 C 
BRANCH  30  31
ATOM     31  CD  UNL     1     -35.051  21.321   1.395  0.00  0.00    -0.024 C 
BRANCH  31  32
ATOM     32  CE  UNL     1     -35.608  19.899   1.459  0.00  0.00    -0.086 C 
BRANCH  32  33
ATOM     33  NZ  UNL     1     -36.761  19.850   2.352  0.00  0.00    +0.380 N 
ATOM     34  HZ1 UNL     1     -36.699  19.020   2.943  0.00  0.00    -0.089 HD
ATOM     35  HZ2 UNL     1     -37.618  19.812   1.800  0.00  0.00    -0.089 HD
ATOM     36  HZ3 UNL     1     -36.771  20.685   2.939  0.00  0.00    -0.089 HD
ENDBRANCH  32  33
ENDBRANCH  31  32
ENDBRANCH  30  31
ENDBRANCH  29  30
ENDBRANCH   1  29
TORSDOF 15
ENDMDL
