MODEL 1
REMARK VINA RESULT:      -5.1      0.000      0.000
REMARK  Name = 194890
REMARK  13 active torsions:
REMARK  status: ('A' for Active; 'I' for Inactive)
REMARK    1  A    between atoms: C_1  and  O_2
REMARK    2  A    between atoms: C_1  and  C_4
REMARK    3  A    between atoms: C_1  and  C_13
REMARK    4  A    between atoms: C_4  and  O_5
REMARK    5  A    between atoms: C_4  and  C_7
REMARK    6  A    between atoms: C_7  and  O_8
REMARK    7  A    between atoms: C_7  and  C_10
REMARK    8  A    between atoms: C_10  and  O_11
REMARK    9  A    between atoms: C_13  and  O_14
REMARK   10  A    between atoms: C_13  and  C_16
REMARK   11  A    between atoms: C_16  and  C_18
REMARK   12  A    between atoms: C_18  and  C_20
REMARK   13  A    between atoms: C_20  and  O_21
REMARK                            x       y       z     vdW  Elec       q    Type
REMARK                         _______ _______ _______ _____ _____    ______ ____
ROOT
ATOM      1  C   UNL     1     -36.722  24.506   3.617  0.00  0.00    +0.172 C 
ENDROOT
BRANCH   1   2
ATOM      2  O   UNL     1     -38.047  24.704   4.130  0.00  0.00    -0.349 OA
ATOM      3  C   UNL     1     -38.871  25.347   3.175  0.00  0.00    +0.174 C 
ENDBRANCH   1   2
BRANCH   1   4
ATOM      4  C   UNL     1     -35.767  24.351   4.814  0.00  0.00    +0.169 C 
BRANCH   4   5
ATOM      5  O   UNL     1     -36.272  23.329   5.683  0.00  0.00    -0.379 OA
ATOM      6  H   UNL     1     -37.020  23.677   6.192  0.00  0.00    +0.211 HD
ENDBRANCH   4   5
BRANCH   4   7
ATOM      7  C   UNL     1     -35.566  25.623   5.657  0.00  0.00    +0.169 C 
BRANCH   7   8
ATOM      8  O   UNL     1     -36.421  26.632   5.103  0.00  0.00    -0.379 OA
ATOM      9  H   UNL     1     -35.954  27.098   4.392  0.00  0.00    +0.211 HD
ENDBRANCH   7   8
BRANCH   7  10
ATOM     10  C   UNL     1     -34.136  26.157   5.637  0.00  0.00    +0.169 C 
BRANCH  10  11
ATOM     11  O   UNL     1     -33.354  25.341   4.769  0.00  0.00    -0.379 OA
ATOM     12  H   UNL     1     -32.415  25.443   4.991  0.00  0.00    +0.211 HD
ENDBRANCH  10  11
ENDBRANCH   7  10
ENDBRANCH   4   7
ENDBRANCH   1   4
BRANCH   1  13
ATOM     13  C   UNL     1     -36.768  23.300   2.658  0.00  0.00    +0.148 C 
BRANCH  13  14
ATOM     14  O   UNL     1     -37.677  22.355   3.238  0.00  0.00    -0.381 OA
ATOM     15  H   UNL     1     -37.900  21.677   2.581  0.00  0.00    +0.210 HD
ENDBRANCH  13  14
BRANCH  13  16
ATOM     16  C   UNL     1     -35.411  22.613   2.472  0.00  0.00    +0.108 C 
BRANCH  16  18
ATOM     17  O   UNL     1     -35.189  20.879   4.178  0.00  0.00    -0.284 OA
ATOM     18  C   UNL     1     -35.400  21.201   3.018  0.00  0.00    +0.250 C 
BRANCH  18  20
ATOM     19  O   UNL     1     -34.897  19.823   1.144  0.00  0.00    -0.242 OA
ATOM     20  C   UNL     1     -35.671  20.095   2.038  0.00  0.00    +0.373 C 
BRANCH  20  21
ATOM     21  O   UNL     1     -36.869  19.549   2.283  0.00  0.00    -0.475 OA
ATOM     22  H   UNL     1     -37.028  18.650   2.068  0.00  0.00    +0.295 HD
ENDBRANCH  20  21
ENDBRANCH  18  20
ENDBRANCH  16  18
ENDBRANCH  13  16
ENDBRANCH   1  13
TORSDOF 13
ENDMDL
MODEL 2
REMARK VINA RESULT:      -4.9      2.037      5.644
REMARK  Name = 194890
REMARK  13 active torsions:
REMARK  status: ('A' for Active; 'I' for Inactive)
REMARK    1  A    between atoms: C_1  and  O_2
REMARK    2  A    between atoms: C_1  and  C_4
REMARK    3  A    between atoms: C_1  and  C_13
REMARK    4  A    between atoms: C_4  and  O_5
REMARK    5  A    between atoms: C_4  and  C_7
REMARK    6  A    between atoms: C_7  and  O_8
REMARK    7  A    between atoms: C_7  and  C_10
REMARK    8  A    between atoms: C_10  and  O_11
REMARK    9  A    between atoms: C_13  and  O_14
REMARK   10  A    between atoms: C_13  and  C_16
REMARK   11  A    between atoms: C_16  and  C_18
REMARK   12  A    between atoms: C_18  and  C_20
REMARK   13  A    between atoms: C_20  and  O_21
REMARK                            x       y       z     vdW  Elec       q    Type
REMARK                         _______ _______ _______ _____ _____    ______ ____
ROOT
ATOM      1  C   UNL     1     -36.112  24.882   4.527  0.00  0.00    +0.172 C 
ENDROOT
BRANCH   1   2
ATOM      2  O   UNL     1     -36.689  25.344   3.299  0.00  0.00    -0.349 OA
ATOM      3  C   UNL     1     -38.098  25.204   3.314  0.00  0.00    +0.174 C 
ENDBRANCH   1   2
BRANCH   1   4
ATOM      4  C   UNL     1     -34.987  23.889   4.181  0.00  0.00    +0.169 C 
BRANCH   4   5
ATOM      5  O   UNL     1     -34.566  24.117   2.830  0.00  0.00    -0.379 OA
ATOM      6  H   UNL     1     -33.826  24.743   2.823  0.00  0.00    +0.211 HD
ENDBRANCH   4   5
BRANCH   4   7
ATOM      7  C   UNL     1     -35.367  22.403   4.308  0.00  0.00    +0.169 C 
BRANCH   7   8
ATOM      8  O   UNL     1     -36.783  22.314   4.095  0.00  0.00    -0.379 OA
ATOM      9  H   UNL     1     -37.009  21.421   3.789  0.00  0.00    +0.211 HD
ENDBRANCH   7   8
BRANCH   7  10
ATOM     10  C   UNL     1     -35.060  21.802   5.676  0.00  0.00    +0.169 C 
BRANCH  10  11
ATOM     11  O   UNL     1     -36.235  21.866   6.480  0.00  0.00    -0.379 OA
ATOM     12  H   UNL     1     -36.241  22.699   6.977  0.00  0.00    +0.211 HD
ENDBRANCH  10  11
ENDBRANCH   7  10
ENDBRANCH   4   7
ENDBRANCH   1   4
BRANCH   1  13
ATOM     13  C   UNL     1     -35.665  26.121   5.329  0.00  0.00    +0.148 C 
BRANCH  13  14
ATOM     14  O   UNL     1     -35.626  27.212   4.399  0.00  0.00    -0.381 OA
ATOM     15  H   UNL     1     -36.492  27.649   4.377  0.00  0.00    +0.210 HD
ENDBRANCH  13  14
BRANCH  13  16
ATOM     16  C   UNL     1     -34.277  25.975   5.959  0.00  0.00    +0.108 C 
BRANCH  16  18
ATOM     17  O   UNL     1     -32.920  26.569   4.018  0.00  0.00    -0.284 OA
ATOM     18  C   UNL     1     -33.212  26.731   5.193  0.00  0.00    +0.250 C 
BRANCH  18  20
ATOM     19  O   UNL     1     -32.482  28.949   5.653  0.00  0.00    -0.242 OA
ATOM     20  C   UNL     1     -32.443  27.774   5.954  0.00  0.00    +0.373 C 
BRANCH  20  21
ATOM     21  O   UNL     1     -31.714  27.195   6.917  0.00  0.00    -0.475 OA
ATOM     22  H   UNL     1     -30.993  26.641   6.690  0.00  0.00    +0.295 HD
ENDBRANCH  20  21
ENDBRANCH  18  20
ENDBRANCH  16  18
ENDBRANCH  13  16
ENDBRANCH   1  13
TORSDOF 13
ENDMDL
MODEL 3
REMARK VINA RESULT:      -4.8      1.493      2.513
REMARK  Name = 194890
REMARK  13 active torsions:
REMARK  status: ('A' for Active; 'I' for Inactive)
REMARK    1  A    between atoms: C_1  and  O_2
REMARK    2  A    between atoms: C_1  and  C_4
REMARK    3  A    between atoms: C_1  and  C_13
REMARK    4  A    between atoms: C_4  and  O_5
REMARK    5  A    between atoms: C_4  and  C_7
REMARK    6  A    between atoms: C_7  and  O_8
REMARK    7  A    between atoms: C_7  and  C_10
REMARK    8  A    between atoms: C_10  and  O_11
REMARK    9  A    between atoms: C_13  and  O_14
REMARK   10  A    between atoms: C_13  and  C_16
REMARK   11  A    between atoms: C_16  and  C_18
REMARK   12  A    between atoms: C_18  and  C_20
REMARK   13  A    between atoms: C_20  and  O_21
REMARK                            x       y       z     vdW  Elec       q    Type
REMARK                         _______ _______ _______ _____ _____    ______ ____
ROOT
ATOM      1  C   UNL     1     -36.018  23.962   5.058  0.00  0.00    +0.172 C 
ENDROOT
BRANCH   1   2
ATOM      2  O   UNL     1     -34.866  23.191   5.425  0.00  0.00    -0.349 OA
ATOM      3  C   UNL     1     -35.223  22.118   6.279  0.00  0.00    +0.174 C 
ENDBRANCH   1   2
BRANCH   1   4
ATOM      4  C   UNL     1     -35.721  25.439   5.373  0.00  0.00    +0.169 C 
BRANCH   4   5
ATOM      5  O   UNL     1     -36.857  26.231   5.000  0.00  0.00    -0.379 OA
ATOM      6  H   UNL     1     -37.176  26.723   5.771  0.00  0.00    +0.211 HD
ENDBRANCH   4   5
BRANCH   4   7
ATOM      7  C   UNL     1     -34.489  26.024   4.659  0.00  0.00    +0.169 C 
BRANCH   7   8
ATOM      8  O   UNL     1     -33.834  26.889   5.597  0.00  0.00    -0.379 OA
ATOM      9  H   UNL     1     -33.226  27.479   5.123  0.00  0.00    +0.211 HD
ENDBRANCH   7   8
BRANCH   7  10
ATOM     10  C   UNL     1     -34.828  26.847   3.419  0.00  0.00    +0.169 C 
BRANCH  10  11
ATOM     11  O   UNL     1     -35.073  28.194   3.816  0.00  0.00    -0.379 OA
ATOM     12  H   UNL     1     -36.030  28.340   3.885  0.00  0.00    +0.211 HD
ENDBRANCH  10  11
ENDBRANCH   7  10
ENDBRANCH   4   7
ENDBRANCH   1   4
BRANCH   1  13
ATOM     13  C   UNL     1     -36.331  23.659   3.579  0.00  0.00    +0.148 C 
BRANCH  13  14
ATOM     14  O   UNL     1     -37.502  22.832   3.574  0.00  0.00    -0.381 OA
ATOM     15  H   UNL     1     -37.971  22.931   4.417  0.00  0.00    +0.210 HD
ENDBRANCH  13  14
BRANCH  13  16
ATOM     16  C   UNL     1     -35.208  22.909   2.856  0.00  0.00    +0.108 C 
BRANCH  16  18
ATOM     17  O   UNL     1     -36.320  22.078   0.847  0.00  0.00    -0.284 OA
ATOM     18  C   UNL     1     -35.736  21.862   1.899  0.00  0.00    +0.250 C 
BRANCH  18  20
ATOM     19  O   UNL     1     -34.467  19.858   2.091  0.00  0.00    -0.242 OA
ATOM     20  C   UNL     1     -35.522  20.425   2.282  0.00  0.00    +0.373 C 
BRANCH  20  21
ATOM     21  O   UNL     1     -36.654  19.911   2.781  0.00  0.00    -0.475 OA
ATOM     22  H   UNL     1     -36.641  19.077   3.209  0.00  0.00    +0.295 HD
ENDBRANCH  20  21
ENDBRANCH  18  20
ENDBRANCH  16  18
ENDBRANCH  13  16
ENDBRANCH   1  13
TORSDOF 13
ENDMDL
MODEL 4
REMARK VINA RESULT:      -4.8      1.647      5.869
REMARK  Name = 194890
REMARK  13 active torsions:
REMARK  status: ('A' for Active; 'I' for Inactive)
REMARK    1  A    between atoms: C_1  and  O_2
REMARK    2  A    between atoms: C_1  and  C_4
REMARK    3  A    between atoms: C_1  and  C_13
REMARK    4  A    between atoms: C_4  and  O_5
REMARK    5  A    between atoms: C_4  and  C_7
REMARK    6  A    between atoms: C_7  and  O_8
REMARK    7  A    between atoms: C_7  and  C_10
REMARK    8  A    between atoms: C_10  and  O_11
REMARK    9  A    between atoms: C_13  and  O_14
REMARK   10  A    between atoms: C_13  and  C_16
REMARK   11  A    between atoms: C_16  and  C_18
REMARK   12  A    between atoms: C_18  and  C_20
REMARK   13  A    between atoms: C_20  and  O_21
REMARK                            x       y       z     vdW  Elec       q    Type
REMARK                         _______ _______ _______ _____ _____    ______ ____
ROOT
ATOM      1  C   UNL     1     -35.736  24.471   4.812  0.00  0.00    +0.172 C 
ENDROOT
BRANCH   1   2
ATOM      2  O   UNL     1     -36.238  23.433   5.664  0.00  0.00    -0.349 OA
ATOM      3  C   UNL     1     -35.210  22.526   6.021  0.00  0.00    +0.174 C 
ENDBRANCH   1   2
BRANCH   1   4
ATOM      4  C   UNL     1     -36.747  24.679   3.669  0.00  0.00    +0.169 C 
BRANCH   4   5
ATOM      5  O   UNL     1     -38.051  24.876   4.232  0.00  0.00    -0.379 OA
ATOM      6  H   UNL     1     -38.423  25.707   3.903  0.00  0.00    +0.211 HD
ENDBRANCH   4   5
BRANCH   4   7
ATOM      7  C   UNL     1     -36.843  23.517   2.664  0.00  0.00    +0.169 C 
BRANCH   7   8
ATOM      8  O   UNL     1     -37.528  22.445   3.328  0.00  0.00    -0.379 OA
ATOM      9  H   UNL     1     -38.292  22.172   2.797  0.00  0.00    +0.211 HD
ENDBRANCH   7   8
BRANCH   7  10
ATOM     10  C   UNL     1     -35.489  22.992   2.197  0.00  0.00    +0.169 C 
BRANCH  10  11
ATOM     11  O   UNL     1     -35.361  21.631   2.600  0.00  0.00    -0.379 OA
ATOM     12  H   UNL     1     -36.233  21.205   2.577  0.00  0.00    +0.211 HD
ENDBRANCH  10  11
ENDBRANCH   7  10
ENDBRANCH   4   7
ENDBRANCH   1   4
BRANCH   1  13
ATOM     13  C   UNL     1     -35.478  25.713   5.689  0.00  0.00    +0.148 C 
BRANCH  13  14
ATOM     14  O   UNL     1     -35.930  26.844   4.933  0.00  0.00    -0.381 OA
ATOM     15  H   UNL     1     -36.888  26.946   5.046  0.00  0.00    +0.210 HD
ENDBRANCH  13  14
BRANCH  13  16
ATOM     16  C   UNL     1     -34.000  25.923   6.034  0.00  0.00    +0.108 C 
BRANCH  16  18
ATOM     17  O   UNL     1     -33.431  26.946   3.891  0.00  0.00    -0.284 OA
ATOM     18  C   UNL     1     -33.326  26.913   5.108  0.00  0.00    +0.250 C 
BRANCH  18  20
ATOM     19  O   UNL     1     -32.438  29.103   5.383  0.00  0.00    -0.242 OA
ATOM     20  C   UNL     1     -32.446  27.947   5.750  0.00  0.00    +0.373 C 
BRANCH  20  21
ATOM     21  O   UNL     1     -31.684  27.379   6.694  0.00  0.00    -0.475 OA
ATOM     22  H   UNL     1     -31.148  27.912   7.248  0.00  0.00    +0.295 HD
ENDBRANCH  20  21
ENDBRANCH  18  20
ENDBRANCH  16  18
ENDBRANCH  13  16
ENDBRANCH   1  13
TORSDOF 13
ENDMDL
MODEL 5
REMARK VINA RESULT:      -4.8      1.785      5.117
REMARK  Name = 194890
REMARK  13 active torsions:
REMARK  status: ('A' for Active; 'I' for Inactive)
REMARK    1  A    between atoms: C_1  and  O_2
REMARK    2  A    between atoms: C_1  and  C_4
REMARK    3  A    between atoms: C_1  and  C_13
REMARK    4  A    between atoms: C_4  and  O_5
REMARK    5  A    between atoms: C_4  and  C_7
REMARK    6  A    between atoms: C_7  and  O_8
REMARK    7  A    between atoms: C_7  and  C_10
REMARK    8  A    between atoms: C_10  and  O_11
REMARK    9  A    between atoms: C_13  and  O_14
REMARK   10  A    between atoms: C_13  and  C_16
REMARK   11  A    between atoms: C_16  and  C_18
REMARK   12  A    between atoms: C_18  and  C_20
REMARK   13  A    between atoms: C_20  and  O_21
REMARK                            x       y       z     vdW  Elec       q    Type
REMARK                         _______ _______ _______ _____ _____    ______ ____
ROOT
ATOM      1  C   UNL     1     -35.736  24.399   4.869  0.00  0.00    +0.172 C 
ENDROOT
BRANCH   1   2
ATOM      2  O   UNL     1     -36.227  23.357   5.723  0.00  0.00    -0.349 OA
ATOM      3  C   UNL     1     -35.189  22.466   6.087  0.00  0.00    +0.174 C 
ENDBRANCH   1   2
BRANCH   1   4
ATOM      4  C   UNL     1     -36.742  24.585   3.719  0.00  0.00    +0.169 C 
BRANCH   4   5
ATOM      5  O   UNL     1     -38.061  24.693   4.268  0.00  0.00    -0.379 OA
ATOM      6  H   UNL     1     -38.472  23.816   4.299  0.00  0.00    +0.211 HD
ENDBRANCH   4   5
BRANCH   4   7
ATOM      7  C   UNL     1     -36.761  23.451   2.678  0.00  0.00    +0.169 C 
BRANCH   7   8
ATOM      8  O   UNL     1     -37.442  22.341   3.282  0.00  0.00    -0.379 OA
ATOM      9  H   UNL     1     -37.309  22.364   4.242  0.00  0.00    +0.211 HD
ENDBRANCH   7   8
BRANCH   7  10
ATOM     10  C   UNL     1     -35.374  22.977   2.256  0.00  0.00    +0.169 C 
BRANCH  10  11
ATOM     11  O   UNL     1     -34.702  24.049   1.600  0.00  0.00    -0.379 OA
ATOM     12  H   UNL     1     -35.357  24.650   1.212  0.00  0.00    +0.211 HD
ENDBRANCH  10  11
ENDBRANCH   7  10
ENDBRANCH   4   7
ENDBRANCH   1   4
BRANCH   1  13
ATOM     13  C   UNL     1     -35.503  25.648   5.741  0.00  0.00    +0.148 C 
BRANCH  13  14
ATOM     14  O   UNL     1     -36.483  26.613   5.338  0.00  0.00    -0.381 OA
ATOM     15  H   UNL     1     -37.359  26.332   5.644  0.00  0.00    +0.210 HD
ENDBRANCH  13  14
BRANCH  13  16
ATOM     16  C   UNL     1     -34.113  26.269   5.564  0.00  0.00    +0.108 C 
BRANCH  16  18
ATOM     17  O   UNL     1     -32.890  25.508   3.592  0.00  0.00    -0.284 OA
ATOM     18  C   UNL     1     -33.670  26.289   4.117  0.00  0.00    +0.250 C 
BRANCH  18  20
ATOM     19  O   UNL     1     -34.613  28.434   3.704  0.00  0.00    -0.242 OA
ATOM     20  C   UNL     1     -34.244  27.372   3.248  0.00  0.00    +0.373 C 
BRANCH  20  21
ATOM     21  O   UNL     1     -34.321  26.950   1.979  0.00  0.00    -0.475 OA
ATOM     22  H   UNL     1     -35.086  27.133   1.470  0.00  0.00    +0.295 HD
ENDBRANCH  20  21
ENDBRANCH  18  20
ENDBRANCH  16  18
ENDBRANCH  13  16
ENDBRANCH   1  13
TORSDOF 13
ENDMDL
MODEL 6
REMARK VINA RESULT:      -4.7      2.181      5.297
REMARK  Name = 194890
REMARK  13 active torsions:
REMARK  status: ('A' for Active; 'I' for Inactive)
REMARK    1  A    between atoms: C_1  and  O_2
REMARK    2  A    between atoms: C_1  and  C_4
REMARK    3  A    between atoms: C_1  and  C_13
REMARK    4  A    between atoms: C_4  and  O_5
REMARK    5  A    between atoms: C_4  and  C_7
REMARK    6  A    between atoms: C_7  and  O_8
REMARK    7  A    between atoms: C_7  and  C_10
REMARK    8  A    between atoms: C_10  and  O_11
REMARK    9  A    between atoms: C_13  and  O_14
REMARK   10  A    between atoms: C_13  and  C_16
REMARK   11  A    between atoms: C_16  and  C_18
REMARK   12  A    between atoms: C_18  and  C_20
REMARK   13  A    between atoms: C_20  and  O_21
REMARK                            x       y       z     vdW  Elec       q    Type
REMARK                         _______ _______ _______ _____ _____    ______ ____
ROOT
ATOM      1  C   UNL     1     -36.624  24.671   4.075  0.00  0.00    +0.172 C 
ENDROOT
BRANCH   1   2
ATOM      2  O   UNL     1     -37.095  23.321   4.167  0.00  0.00    -0.349 OA
ATOM      3  C   UNL     1     -36.365  22.467   3.305  0.00  0.00    +0.174 C 
ENDBRANCH   1   2
BRANCH   1   4
ATOM      4  C   UNL     1     -37.798  25.555   3.618  0.00  0.00    +0.169 C 
BRANCH   4   5
ATOM      5  O   UNL     1     -39.023  24.833   3.802  0.00  0.00    -0.379 OA
ATOM      6  H   UNL     1     -39.398  25.048   4.670  0.00  0.00    +0.211 HD
ENDBRANCH   4   5
BRANCH   4   7
ATOM      7  C   UNL     1     -37.741  26.008   2.148  0.00  0.00    +0.169 C 
BRANCH   7   8
ATOM      8  O   UNL     1     -37.296  27.372   2.148  0.00  0.00    -0.379 OA
ATOM      9  H   UNL     1     -37.015  27.621   1.253  0.00  0.00    +0.211 HD
ENDBRANCH   7   8
BRANCH   7  10
ATOM     10  C   UNL     1     -39.087  25.953   1.432  0.00  0.00    +0.169 C 
BRANCH  10  11
ATOM     11  O   UNL     1     -39.942  26.950   1.986  0.00  0.00    -0.379 OA
ATOM     12  H   UNL     1     -39.404  27.636   2.412  0.00  0.00    +0.211 HD
ENDBRANCH  10  11
ENDBRANCH   7  10
ENDBRANCH   4   7
ENDBRANCH   1   4
BRANCH   1  13
ATOM     13  C   UNL     1     -36.016  25.048   5.441  0.00  0.00    +0.148 C 
BRANCH  13  14
ATOM     14  O   UNL     1     -36.382  26.413   5.685  0.00  0.00    -0.381 OA
ATOM     15  H   UNL     1     -36.337  26.594   6.637  0.00  0.00    +0.210 HD
ENDBRANCH  13  14
BRANCH  13  16
ATOM     16  C   UNL     1     -34.488  24.945   5.481  0.00  0.00    +0.108 C 
BRANCH  16  18
ATOM     17  O   UNL     1     -33.462  26.965   6.393  0.00  0.00    -0.284 OA
ATOM     18  C   UNL     1     -33.816  26.301   5.430  0.00  0.00    +0.250 C 
BRANCH  18  20
ATOM     19  O   UNL     1     -32.556  26.637   3.439  0.00  0.00    -0.242 OA
ATOM     20  C   UNL     1     -33.565  26.880   4.067  0.00  0.00    +0.373 C 
BRANCH  20  21
ATOM     21  O   UNL     1     -34.566  27.704   3.728  0.00  0.00    -0.475 OA
ATOM     22  H   UNL     1     -34.429  28.631   3.727  0.00  0.00    +0.295 HD
ENDBRANCH  20  21
ENDBRANCH  18  20
ENDBRANCH  16  18
ENDBRANCH  13  16
ENDBRANCH   1  13
TORSDOF 13
ENDMDL
MODEL 7
REMARK VINA RESULT:      -4.7      1.661      5.640
REMARK  Name = 194890
REMARK  13 active torsions:
REMARK  status: ('A' for Active; 'I' for Inactive)
REMARK    1  A    between atoms: C_1  and  O_2
REMARK    2  A    between atoms: C_1  and  C_4
REMARK    3  A    between atoms: C_1  and  C_13
REMARK    4  A    between atoms: C_4  and  O_5
REMARK    5  A    between atoms: C_4  and  C_7
REMARK    6  A    between atoms: C_7  and  O_8
REMARK    7  A    between atoms: C_7  and  C_10
REMARK    8  A    between atoms: C_10  and  O_11
REMARK    9  A    between atoms: C_13  and  O_14
REMARK   10  A    between atoms: C_13  and  C_16
REMARK   11  A    between atoms: C_16  and  C_18
REMARK   12  A    between atoms: C_18  and  C_20
REMARK   13  A    between atoms: C_20  and  O_21
REMARK                            x       y       z     vdW  Elec       q    Type
REMARK                         _______ _______ _______ _____ _____    ______ ____
ROOT
ATOM      1  C   UNL     1     -35.732  23.460   4.547  0.00  0.00    +0.172 C 
ENDROOT
BRANCH   1   2
ATOM      2  O   UNL     1     -36.255  22.605   5.572  0.00  0.00    -0.349 OA
ATOM      3  C   UNL     1     -35.210  22.026   6.334  0.00  0.00    +0.174 C 
ENDBRANCH   1   2
BRANCH   1   4
ATOM      4  C   UNL     1     -36.285  22.975   3.195  0.00  0.00    +0.169 C 
BRANCH   4   5
ATOM      5  O   UNL     1     -37.632  22.519   3.379  0.00  0.00    -0.379 OA
ATOM      6  H   UNL     1     -38.249  23.215   3.106  0.00  0.00    +0.211 HD
ENDBRANCH   4   5
BRANCH   4   7
ATOM      7  C   UNL     1     -35.491  21.831   2.538  0.00  0.00    +0.169 C 
BRANCH   7   8
ATOM      8  O   UNL     1     -34.617  22.430   1.571  0.00  0.00    -0.379 OA
ATOM      9  H   UNL     1     -33.863  22.838   2.025  0.00  0.00    +0.211 HD
ENDBRANCH   7   8
BRANCH   7  10
ATOM     10  C   UNL     1     -36.365  20.811   1.813  0.00  0.00    +0.169 C 
BRANCH  10  11
ATOM     11  O   UNL     1     -36.766  19.808   2.742  0.00  0.00    -0.379 OA
ATOM     12  H   UNL     1     -37.720  19.654   2.657  0.00  0.00    +0.211 HD
ENDBRANCH  10  11
ENDBRANCH   7  10
ENDBRANCH   4   7
ENDBRANCH   1   4
BRANCH   1  13
ATOM     13  C   UNL     1     -36.097  24.911   4.919  0.00  0.00    +0.148 C 
BRANCH  13  14
ATOM     14  O   UNL     1     -37.488  25.071   4.611  0.00  0.00    -0.381 OA
ATOM     15  H   UNL     1     -37.753  24.405   3.957  0.00  0.00    +0.210 HD
ENDBRANCH  13  14
BRANCH  13  16
ATOM     16  C   UNL     1     -35.306  25.962   4.133  0.00  0.00    +0.108 C 
BRANCH  16  18
ATOM     17  O   UNL     1     -34.001  26.417   6.147  0.00  0.00    -0.284 OA
ATOM     18  C   UNL     1     -34.182  26.567   4.948  0.00  0.00    +0.250 C 
BRANCH  18  20
ATOM     19  O   UNL     1     -33.344  28.636   4.123  0.00  0.00    -0.242 OA
ATOM     20  C   UNL     1     -33.202  27.433   4.209  0.00  0.00    +0.373 C 
BRANCH  20  21
ATOM     21  O   UNL     1     -32.247  26.676   3.654  0.00  0.00    -0.475 OA
ATOM     22  H   UNL     1     -31.565  26.316   4.187  0.00  0.00    +0.295 HD
ENDBRANCH  20  21
ENDBRANCH  18  20
ENDBRANCH  16  18
ENDBRANCH  13  16
ENDBRANCH   1  13
TORSDOF 13
ENDMDL
MODEL 8
REMARK VINA RESULT:      -4.7      2.581      5.408
REMARK  Name = 194890
REMARK  13 active torsions:
REMARK  status: ('A' for Active; 'I' for Inactive)
REMARK    1  A    between atoms: C_1  and  O_2
REMARK    2  A    between atoms: C_1  and  C_4
REMARK    3  A    between atoms: C_1  and  C_13
REMARK    4  A    between atoms: C_4  and  O_5
REMARK    5  A    between atoms: C_4  and  C_7
REMARK    6  A    between atoms: C_7  and  O_8
REMARK    7  A    between atoms: C_7  and  C_10
REMARK    8  A    between atoms: C_10  and  O_11
REMARK    9  A    between atoms: C_13  and  O_14
REMARK   10  A    between atoms: C_13  and  C_16
REMARK   11  A    between atoms: C_16  and  C_18
REMARK   12  A    between atoms: C_18  and  C_20
REMARK   13  A    between atoms: C_20  and  O_21
REMARK                            x       y       z     vdW  Elec       q    Type
REMARK                         _______ _______ _______ _____ _____    ______ ____
ROOT
ATOM      1  C   UNL     1     -35.602  24.314   4.533  0.00  0.00    +0.172 C 
ENDROOT
BRANCH   1   2
ATOM      2  O   UNL     1     -36.024  23.706   5.762  0.00  0.00    -0.349 OA
ATOM      3  C   UNL     1     -35.400  22.448   5.948  0.00  0.00    +0.174 C 
ENDBRANCH   1   2
BRANCH   1   4
ATOM      4  C   UNL     1     -36.613  25.419   4.177  0.00  0.00    +0.169 C 
BRANCH   4   5
ATOM      5  O   UNL     1     -36.820  26.248   5.328  0.00  0.00    -0.379 OA
ATOM      6  H   UNL     1     -35.992  26.322   5.827  0.00  0.00    +0.211 HD
ENDBRANCH   4   5
BRANCH   4   7
ATOM      7  C   UNL     1     -37.990  24.917   3.709  0.00  0.00    +0.169 C 
BRANCH   7   8
ATOM      8  O   UNL     1     -37.826  23.545   3.322  0.00  0.00    -0.379 OA
ATOM      9  H   UNL     1     -37.796  23.483   2.355  0.00  0.00    +0.211 HD
ENDBRANCH   7   8
BRANCH   7  10
ATOM     10  C   UNL     1     -38.549  25.678   2.510  0.00  0.00    +0.169 C 
BRANCH  10  11
ATOM     11  O   UNL     1     -37.862  26.921   2.394  0.00  0.00    -0.379 OA
ATOM     12  H   UNL     1     -36.936  26.803   2.660  0.00  0.00    +0.211 HD
ENDBRANCH  10  11
ENDBRANCH   7  10
ENDBRANCH   4   7
ENDBRANCH   1   4
BRANCH   1  13
ATOM     13  C   UNL     1     -34.149  24.794   4.724  0.00  0.00    +0.148 C 
BRANCH  13  14
ATOM     14  O   UNL     1     -34.180  25.770   5.775  0.00  0.00    -0.381 OA
ATOM     15  H   UNL     1     -34.942  25.601   6.350  0.00  0.00    +0.210 HD
ENDBRANCH  13  14
BRANCH  13  16
ATOM     16  C   UNL     1     -33.551  25.450   3.475  0.00  0.00    +0.108 C 
BRANCH  16  18
ATOM     17  O   UNL     1     -32.253  27.309   4.380  0.00  0.00    -0.284 OA
ATOM     18  C   UNL     1     -33.185  26.900   3.704  0.00  0.00    +0.250 C 
BRANCH  18  20
ATOM     19  O   UNL     1     -33.699  28.516   2.034  0.00  0.00    -0.242 OA
ATOM     20  C   UNL     1     -34.052  27.930   3.036  0.00  0.00    +0.373 C 
BRANCH  20  21
ATOM     21  O   UNL     1     -35.177  28.108   3.740  0.00  0.00    -0.475 OA
ATOM     22  H   UNL     1     -35.566  27.385   4.193  0.00  0.00    +0.295 HD
ENDBRANCH  20  21
ENDBRANCH  18  20
ENDBRANCH  16  18
ENDBRANCH  13  16
ENDBRANCH   1  13
TORSDOF 13
ENDMDL
MODEL 9
REMARK VINA RESULT:      -4.7      1.896      3.382
REMARK  Name = 194890
REMARK  13 active torsions:
REMARK  status: ('A' for Active; 'I' for Inactive)
REMARK    1  A    between atoms: C_1  and  O_2
REMARK    2  A    between atoms: C_1  and  C_4
REMARK    3  A    between atoms: C_1  and  C_13
REMARK    4  A    between atoms: C_4  and  O_5
REMARK    5  A    between atoms: C_4  and  C_7
REMARK    6  A    between atoms: C_7  and  O_8
REMARK    7  A    between atoms: C_7  and  C_10
REMARK    8  A    between atoms: C_10  and  O_11
REMARK    9  A    between atoms: C_13  and  O_14
REMARK   10  A    between atoms: C_13  and  C_16
REMARK   11  A    between atoms: C_16  and  C_18
REMARK   12  A    between atoms: C_18  and  C_20
REMARK   13  A    between atoms: C_20  and  O_21
REMARK                            x       y       z     vdW  Elec       q    Type
REMARK                         _______ _______ _______ _____ _____    ______ ____
ROOT
ATOM      1  C   UNL     1     -36.278  24.258   4.924  0.00  0.00    +0.172 C 
ENDROOT
BRANCH   1   2
ATOM      2  O   UNL     1     -35.347  23.172   4.827  0.00  0.00    -0.349 OA
ATOM      3  C   UNL     1     -35.228  22.491   6.062  0.00  0.00    +0.174 C 
ENDBRANCH   1   2
BRANCH   1   4
ATOM      4  C   UNL     1     -35.479  25.552   5.162  0.00  0.00    +0.169 C 
BRANCH   4   5
ATOM      5  O   UNL     1     -36.397  26.639   5.337  0.00  0.00    -0.379 OA
ATOM      6  H   UNL     1     -36.280  27.280   4.619  0.00  0.00    +0.211 HD
ENDBRANCH   4   5
BRANCH   4   7
ATOM      7  C   UNL     1     -34.509  25.937   4.031  0.00  0.00    +0.169 C 
BRANCH   7   8
ATOM      8  O   UNL     1     -33.332  25.134   4.197  0.00  0.00    -0.379 OA
ATOM      9  H   UNL     1     -32.545  25.697   4.138  0.00  0.00    +0.211 HD
ENDBRANCH   7   8
BRANCH   7  10
ATOM     10  C   UNL     1     -34.084  27.402   4.055  0.00  0.00    +0.169 C 
BRANCH  10  11
ATOM     11  O   UNL     1     -35.134  28.193   3.504  0.00  0.00    -0.379 OA
ATOM     12  H   UNL     1     -34.956  29.131   3.678  0.00  0.00    +0.211 HD
ENDBRANCH  10  11
ENDBRANCH   7  10
ENDBRANCH   4   7
ENDBRANCH   1   4
BRANCH   1  13
ATOM     13  C   UNL     1     -37.141  24.249   3.646  0.00  0.00    +0.148 C 
BRANCH  13  14
ATOM     14  O   UNL     1     -38.421  24.777   4.017  0.00  0.00    -0.381 OA
ATOM     15  H   UNL     1     -38.440  24.935   4.974  0.00  0.00    +0.210 HD
ENDBRANCH  13  14
BRANCH  13  16
ATOM     16  C   UNL     1     -37.349  22.850   3.057  0.00  0.00    +0.108 C 
BRANCH  16  18
ATOM     17  O   UNL     1     -38.935  23.750   1.433  0.00  0.00    -0.284 OA
ATOM     18  C   UNL     1     -38.495  22.804   2.069  0.00  0.00    +0.250 C 
BRANCH  18  20
ATOM     19  O   UNL     1     -40.299  21.256   2.180  0.00  0.00    -0.242 OA
ATOM     20  C   UNL     1     -39.149  21.469   1.854  0.00  0.00    +0.373 C 
BRANCH  20  21
ATOM     21  O   UNL     1     -38.270  20.606   1.329  0.00  0.00    -0.475 OA
ATOM     22  H   UNL     1     -37.523  20.924   0.861  0.00  0.00    +0.295 HD
ENDBRANCH  20  21
ENDBRANCH  18  20
ENDBRANCH  16  18
ENDBRANCH  13  16
ENDBRANCH   1  13
TORSDOF 13
ENDMDL
