MODEL 1
REMARK VINA RESULT:      -5.1      0.000      0.000
REMARK  Name = 5934812
REMARK  5 active torsions:
REMARK  status: ('A' for Active; 'I' for Inactive)
REMARK    1  A    between atoms: N_3  and  C_17
REMARK    2  A    between atoms: N_4  and  C_7
REMARK    3  A    between atoms: N_4  and  N_12
REMARK    4  A    between atoms: N_12  and  C_13
REMARK    5  A    between atoms: C_17  and  C_18
REMARK                            x       y       z     vdW  Elec       q    Type
REMARK                         _______ _______ _______ _____ _____    ______ ____
ROOT
ATOM      1  S   UNL     1     -36.418  19.531   0.155  0.00  0.00    -0.094 S 
ATOM      2  O   UNL     1     -34.058  16.517  -0.326  0.00  0.00    -0.274 OA
ATOM      3  N   UNL     1     -34.141  18.541   0.839  0.00  0.00    -0.253 N 
ATOM      4  C   UNL     1     -35.962  17.955  -0.620  0.00  0.00    +0.127 C 
ATOM      5  C   UNL     1     -34.620  17.570  -0.033  0.00  0.00    +0.237 C 
ATOM      6  C   UNL     1     -34.941  19.632   1.064  0.00  0.00    +0.218 C 
ATOM      7  C   UNL     1     -37.013  16.894  -0.342  0.00  0.00    +0.021 C 
ENDROOT
BRANCH   6   8
ATOM      8  N   UNL     1     -34.693  20.633   1.834  0.00  0.00    -0.098 NA
BRANCH   8   9
ATOM      9  N   UNL     1     -35.536  20.615   2.940  0.00  0.00    -0.098 NA
BRANCH   9  13
ATOM     10  S   UNL     1     -36.560  22.927   2.150  0.00  0.00    -0.092 S 
ATOM     11  O   UNL     1     -36.090  24.385   5.680  0.00  0.00    -0.274 OA
ATOM     12  N   UNL     1     -35.701  22.393   4.517  0.00  0.00    -0.255 N 
ATOM     13  C   UNL     1     -35.854  21.815   3.283  0.00  0.00    +0.218 C 
ATOM     14  C   UNL     1     -36.681  24.255   3.366  0.00  0.00    +0.146 C 
ATOM     15  C   UNL     1     -36.130  23.706   4.658  0.00  0.00    +0.238 C 
ATOM     16  C   UNL     1     -35.115  21.661   5.632  0.00  0.00    +0.117 C 
ENDBRANCH   9  13
ENDBRANCH   8   9
ENDBRANCH   6   8
BRANCH   3  17
ATOM     17  C   UNL     1     -32.850  18.379   1.495  0.00  0.00    +0.118 C 
BRANCH  17  18
ATOM     18  C   UNL     1     -31.750  18.811   0.567  0.00  0.00    -0.024 C 
ATOM     19  C   UNL     1     -30.744  17.769   0.168  0.00  0.00    +0.028 C 
ATOM     20  C   UNL     1     -31.690  20.063   0.087  0.00  0.00    -0.007 C 
ENDBRANCH  17  18
ENDBRANCH   3  17
TORSDOF 5
ENDMDL
MODEL 2
REMARK VINA RESULT:      -5.1      5.350      7.127
REMARK  Name = 5934812
REMARK  5 active torsions:
REMARK  status: ('A' for Active; 'I' for Inactive)
REMARK    1  A    between atoms: N_3  and  C_17
REMARK    2  A    between atoms: N_4  and  C_7
REMARK    3  A    between atoms: N_4  and  N_12
REMARK    4  A    between atoms: N_12  and  C_13
REMARK    5  A    between atoms: C_17  and  C_18
REMARK                            x       y       z     vdW  Elec       q    Type
REMARK                         _______ _______ _______ _____ _____    ______ ____
ROOT
ATOM      1  S   UNL     1     -36.385  26.344   2.378  0.00  0.00    -0.094 S 
ATOM      2  O   UNL     1     -33.309  25.108   4.353  0.00  0.00    -0.274 OA
ATOM      3  N   UNL     1     -35.641  24.982   4.434  0.00  0.00    -0.253 N 
ATOM      4  C   UNL     1     -34.598  26.270   2.689  0.00  0.00    +0.127 C 
ATOM      5  C   UNL     1     -34.420  25.392   3.911  0.00  0.00    +0.237 C 
ATOM      6  C   UNL     1     -36.772  25.378   3.767  0.00  0.00    +0.218 C 
ATOM      7  C   UNL     1     -33.864  25.702   1.487  0.00  0.00    +0.021 C 
ENDROOT
BRANCH   6   8
ATOM      8  N   UNL     1     -37.992  25.103   4.075  0.00  0.00    -0.098 NA
BRANCH   8   9
ATOM      9  N   UNL     1     -38.446  24.016   3.336  0.00  0.00    -0.098 NA
BRANCH   9  13
ATOM     10  S   UNL     1     -40.301  25.860   2.908  0.00  0.00    -0.092 S 
ATOM     11  O   UNL     1     -41.962  23.626   0.252  0.00  0.00    -0.274 OA
ATOM     12  N   UNL     1     -40.145  23.580   1.724  0.00  0.00    -0.255 N 
ATOM     13  C   UNL     1     -39.503  24.335   2.671  0.00  0.00    +0.218 C 
ATOM     14  C   UNL     1     -41.571  25.507   1.676  0.00  0.00    +0.146 C 
ATOM     15  C   UNL     1     -41.267  24.138   1.125  0.00  0.00    +0.238 C 
ATOM     16  C   UNL     1     -39.670  22.251   1.360  0.00  0.00    +0.117 C 
ENDBRANCH   9  13
ENDBRANCH   8   9
ENDBRANCH   6   8
BRANCH   3  17
ATOM     17  C   UNL     1     -35.696  24.149   5.628  0.00  0.00    +0.118 C 
BRANCH  17  18
ATOM     18  C   UNL     1     -35.475  22.711   5.255  0.00  0.00    -0.024 C 
ATOM     19  C   UNL     1     -35.189  21.751   6.374  0.00  0.00    +0.028 C 
ATOM     20  C   UNL     1     -35.562  22.296   3.981  0.00  0.00    -0.007 C 
ENDBRANCH  17  18
ENDBRANCH   3  17
TORSDOF 5
ENDMDL
MODEL 3
REMARK VINA RESULT:      -5.1      3.076      4.286
REMARK  Name = 5934812
REMARK  5 active torsions:
REMARK  status: ('A' for Active; 'I' for Inactive)
REMARK    1  A    between atoms: N_3  and  C_17
REMARK    2  A    between atoms: N_4  and  C_7
REMARK    3  A    between atoms: N_4  and  N_12
REMARK    4  A    between atoms: N_12  and  C_13
REMARK    5  A    between atoms: C_17  and  C_18
REMARK                            x       y       z     vdW  Elec       q    Type
REMARK                         _______ _______ _______ _____ _____    ______ ____
ROOT
ATOM      1  S   UNL     1     -38.890  23.152   1.738  0.00  0.00    -0.094 S 
ATOM      2  O   UNL     1     -37.656  19.901   0.067  0.00  0.00    -0.274 OA
ATOM      3  N   UNL     1     -37.170  21.244   1.917  0.00  0.00    -0.253 N 
ATOM      4  C   UNL     1     -38.917  21.920   0.406  0.00  0.00    +0.127 C 
ATOM      5  C   UNL     1     -37.855  20.898   0.758  0.00  0.00    +0.237 C 
ATOM      6  C   UNL     1     -37.573  22.383   2.566  0.00  0.00    +0.218 C 
ATOM      7  C   UNL     1     -40.288  21.276   0.294  0.00  0.00    +0.021 C 
ENDROOT
BRANCH   6   8
ATOM      8  N   UNL     1     -37.083  22.874   3.651  0.00  0.00    -0.098 NA
BRANCH   8   9
ATOM      9  N   UNL     1     -37.537  24.174   3.843  0.00  0.00    -0.098 NA
BRANCH   9  13
ATOM     10  S   UNL     1     -35.499  24.594   5.483  0.00  0.00    -0.092 S 
ATOM     11  O   UNL     1     -34.613  27.838   3.613  0.00  0.00    -0.274 OA
ATOM     12  N   UNL     1     -36.201  26.122   3.534  0.00  0.00    -0.255 N 
ATOM     13  C   UNL     1     -36.558  24.952   4.153  0.00  0.00    +0.218 C 
ATOM     14  C   UNL     1     -34.498  26.073   5.223  0.00  0.00    +0.146 C 
ATOM     15  C   UNL     1     -35.092  26.791   4.038  0.00  0.00    +0.238 C 
ATOM     16  C   UNL     1     -36.949  26.640   2.397  0.00  0.00    +0.117 C 
ENDBRANCH   9  13
ENDBRANCH   8   9
ENDBRANCH   6   8
BRANCH   3  17
ATOM     17  C   UNL     1     -36.088  20.407   2.419  0.00  0.00    +0.118 C 
BRANCH  17  18
ATOM     18  C   UNL     1     -34.849  20.636   1.601  0.00  0.00    -0.024 C 
ATOM     19  C   UNL     1     -33.994  19.436   1.306  0.00  0.00    +0.028 C 
ATOM     20  C   UNL     1     -34.537  21.852   1.126  0.00  0.00    -0.007 C 
ENDBRANCH  17  18
ENDBRANCH   3  17
TORSDOF 5
ENDMDL
MODEL 4
REMARK VINA RESULT:      -5.0      3.200      5.317
REMARK  Name = 5934812
REMARK  5 active torsions:
REMARK  status: ('A' for Active; 'I' for Inactive)
REMARK    1  A    between atoms: N_3  and  C_17
REMARK    2  A    between atoms: N_4  and  C_7
REMARK    3  A    between atoms: N_4  and  N_12
REMARK    4  A    between atoms: N_12  and  C_13
REMARK    5  A    between atoms: C_17  and  C_18
REMARK                            x       y       z     vdW  Elec       q    Type
REMARK                         _______ _______ _______ _____ _____    ______ ____
ROOT
ATOM      1  S   UNL     1     -34.506  22.898   0.515  0.00  0.00    -0.094 S 
ATOM      2  O   UNL     1     -35.415  20.275   3.195  0.00  0.00    -0.274 OA
ATOM      3  N   UNL     1     -35.604  22.574   2.823  0.00  0.00    -0.253 N 
ATOM      4  C   UNL     1     -34.489  21.210   1.183  0.00  0.00    +0.127 C 
ATOM      5  C   UNL     1     -35.217  21.276   2.510  0.00  0.00    +0.237 C 
ATOM      6  C   UNL     1     -35.321  23.550   1.902  0.00  0.00    +0.218 C 
ATOM      7  C   UNL     1     -35.166  20.244   0.226  0.00  0.00    +0.021 C 
ENDROOT
BRANCH   6   8
ATOM      8  N   UNL     1     -35.597  24.805   1.990  0.00  0.00    -0.098 NA
BRANCH   8   9
ATOM      9  N   UNL     1     -36.550  25.160   1.042  0.00  0.00    -0.098 NA
BRANCH   9  13
ATOM     10  S   UNL     1     -38.367  25.876   2.833  0.00  0.00    -0.092 S 
ATOM     11  O   UNL     1     -40.830  23.272   1.433  0.00  0.00    -0.274 OA
ATOM     12  N   UNL     1     -38.653  24.039   1.053  0.00  0.00    -0.255 N 
ATOM     13  C   UNL     1     -37.738  24.956   1.501  0.00  0.00    +0.218 C 
ATOM     14  C   UNL     1     -39.954  25.017   2.814  0.00  0.00    +0.146 C 
ATOM     15  C   UNL     1     -39.883  24.008   1.697  0.00  0.00    +0.238 C 
ATOM     16  C   UNL     1     -38.350  23.139  -0.051  0.00  0.00    +0.117 C 
ENDBRANCH   9  13
ENDBRANCH   8   9
ENDBRANCH   6   8
BRANCH   3  17
ATOM     17  C   UNL     1     -36.297  22.862   4.071  0.00  0.00    +0.118 C 
BRANCH  17  18
ATOM     18  C   UNL     1     -35.299  23.030   5.181  0.00  0.00    -0.024 C 
ATOM     19  C   UNL     1     -35.227  21.935   6.206  0.00  0.00    +0.028 C 
ATOM     20  C   UNL     1     -34.482  24.094   5.234  0.00  0.00    -0.007 C 
ENDBRANCH  17  18
ENDBRANCH   3  17
TORSDOF 5
ENDMDL
MODEL 5
REMARK VINA RESULT:      -5.0      1.252      1.712
REMARK  Name = 5934812
REMARK  5 active torsions:
REMARK  status: ('A' for Active; 'I' for Inactive)
REMARK    1  A    between atoms: N_3  and  C_17
REMARK    2  A    between atoms: N_4  and  C_7
REMARK    3  A    between atoms: N_4  and  N_12
REMARK    4  A    between atoms: N_12  and  C_13
REMARK    5  A    between atoms: C_17  and  C_18
REMARK                            x       y       z     vdW  Elec       q    Type
REMARK                         _______ _______ _______ _____ _____    ______ ____
ROOT
ATOM      1  S   UNL     1     -36.993  20.024   0.719  0.00  0.00    -0.094 S 
ATOM      2  O   UNL     1     -34.481  17.475  -0.722  0.00  0.00    -0.274 OA
ATOM      3  N   UNL     1     -34.600  19.102   0.952  0.00  0.00    -0.253 N 
ATOM      4  C   UNL     1     -36.500  18.758  -0.484  0.00  0.00    +0.127 C 
ATOM      5  C   UNL     1     -35.086  18.357  -0.116  0.00  0.00    +0.237 C 
ATOM      6  C   UNL     1     -35.452  20.015   1.518  0.00  0.00    +0.218 C 
ATOM      7  C   UNL     1     -37.444  17.569  -0.434  0.00  0.00    +0.021 C 
ENDROOT
BRANCH   6   8
ATOM      8  N   UNL     1     -35.206  20.796   2.513  0.00  0.00    -0.098 NA
BRANCH   8   9
ATOM      9  N   UNL     1     -36.264  21.676   2.711  0.00  0.00    -0.098 NA
BRANCH   9  13
ATOM     10  S   UNL     1     -35.234  21.828   5.147  0.00  0.00    -0.092 S 
ATOM     11  O   UNL     1     -36.195  25.547   5.364  0.00  0.00    -0.274 OA
ATOM     12  N   UNL     1     -36.362  23.756   3.869  0.00  0.00    -0.255 N 
ATOM     13  C   UNL     1     -36.035  22.432   3.729  0.00  0.00    +0.218 C 
ATOM     14  C   UNL     1     -35.315  23.416   5.999  0.00  0.00    +0.146 C 
ATOM     15  C   UNL     1     -36.002  24.373   5.060  0.00  0.00    +0.238 C 
ATOM     16  C   UNL     1     -37.056  24.483   2.815  0.00  0.00    +0.117 C 
ENDBRANCH   9  13
ENDBRANCH   8   9
ENDBRANCH   6   8
BRANCH   3  17
ATOM     17  C   UNL     1     -33.247  18.891   1.450  0.00  0.00    +0.118 C 
BRANCH  17  18
ATOM     18  C   UNL     1     -32.263  19.595   0.559  0.00  0.00    -0.024 C 
ATOM     19  C   UNL     1     -30.975  18.881   0.265  0.00  0.00    +0.028 C 
ATOM     20  C   UNL     1     -32.537  20.795   0.022  0.00  0.00    -0.007 C 
ENDBRANCH  17  18
ENDBRANCH   3  17
TORSDOF 5
ENDMDL
MODEL 6
REMARK VINA RESULT:      -4.9      5.424      7.587
REMARK  Name = 5934812
REMARK  5 active torsions:
REMARK  status: ('A' for Active; 'I' for Inactive)
REMARK    1  A    between atoms: N_3  and  C_17
REMARK    2  A    between atoms: N_4  and  C_7
REMARK    3  A    between atoms: N_4  and  N_12
REMARK    4  A    between atoms: N_12  and  C_13
REMARK    5  A    between atoms: C_17  and  C_18
REMARK                            x       y       z     vdW  Elec       q    Type
REMARK                         _______ _______ _______ _____ _____    ______ ____
ROOT
ATOM      1  S   UNL     1     -35.671  26.415   1.924  0.00  0.00    -0.094 S 
ATOM      2  O   UNL     1     -38.296  24.213   3.699  0.00  0.00    -0.274 OA
ATOM      3  N   UNL     1     -36.130  25.022   4.041  0.00  0.00    -0.253 N 
ATOM      4  C   UNL     1     -37.269  25.557   1.990  0.00  0.00    +0.127 C 
ATOM      5  C   UNL     1     -37.313  24.852   3.330  0.00  0.00    +0.237 C 
ATOM      6  C   UNL     1     -35.163  25.807   3.469  0.00  0.00    +0.218 C 
ATOM      7  C   UNL     1     -38.417  26.542   1.846  0.00  0.00    +0.021 C 
ENDROOT
BRANCH   6   8
ATOM      8  N   UNL     1     -34.007  26.098   3.958  0.00  0.00    -0.098 NA
BRANCH   8   9
ATOM      9  N   UNL     1     -34.014  27.384   4.486  0.00  0.00    -0.098 NA
BRANCH   9  13
ATOM     10  S   UNL     1     -31.989  28.472   3.168  0.00  0.00    -0.092 S 
ATOM     11  O   UNL     1     -29.916  28.629   6.406  0.00  0.00    -0.274 OA
ATOM     12  N   UNL     1     -32.023  27.917   5.681  0.00  0.00    -0.255 N 
ATOM     13  C   UNL     1     -32.813  27.845   4.563  0.00  0.00    +0.218 C 
ATOM     14  C   UNL     1     -30.496  28.872   4.098  0.00  0.00    +0.146 C 
ATOM     15  C   UNL     1     -30.758  28.468   5.526  0.00  0.00    +0.238 C 
ATOM     16  C   UNL     1     -32.490  27.437   6.975  0.00  0.00    +0.117 C 
ENDBRANCH   9  13
ENDBRANCH   8   9
ENDBRANCH   6   8
BRANCH   3  17
ATOM     17  C   UNL     1     -35.953  24.403   5.348  0.00  0.00    +0.118 C 
BRANCH  17  18
ATOM     18  C   UNL     1     -35.514  22.976   5.179  0.00  0.00    -0.024 C 
ATOM     19  C   UNL     1     -35.332  22.164   6.429  0.00  0.00    +0.028 C 
ATOM     20  C   UNL     1     -35.327  22.440   3.962  0.00  0.00    -0.007 C 
ENDBRANCH  17  18
ENDBRANCH   3  17
TORSDOF 5
ENDMDL
MODEL 7
REMARK VINA RESULT:      -4.9      6.019      9.690
REMARK  Name = 5934812
REMARK  5 active torsions:
REMARK  status: ('A' for Active; 'I' for Inactive)
REMARK    1  A    between atoms: N_3  and  C_17
REMARK    2  A    between atoms: N_4  and  C_7
REMARK    3  A    between atoms: N_4  and  N_12
REMARK    4  A    between atoms: N_12  and  C_13
REMARK    5  A    between atoms: C_17  and  C_18
REMARK                            x       y       z     vdW  Elec       q    Type
REMARK                         _______ _______ _______ _____ _____    ______ ____
ROOT
ATOM      1  S   UNL     1     -34.796  29.805   2.668  0.00  0.00    -0.094 S 
ATOM      2  O   UNL     1     -31.677  31.396   4.288  0.00  0.00    -0.274 OA
ATOM      3  N   UNL     1     -32.661  29.294   4.014  0.00  0.00    -0.253 N 
ATOM      4  C   UNL     1     -33.782  31.235   3.138  0.00  0.00    +0.127 C 
ATOM      5  C   UNL     1     -32.583  30.675   3.875  0.00  0.00    +0.237 C 
ATOM      6  C   UNL     1     -33.741  28.668   3.447  0.00  0.00    +0.218 C 
ATOM      7  C   UNL     1     -33.359  32.023   1.910  0.00  0.00    +0.021 C 
ENDROOT
BRANCH   6   8
ATOM      8  N   UNL     1     -33.999  27.406   3.452  0.00  0.00    -0.098 NA
BRANCH   8   9
ATOM      9  N   UNL     1     -35.096  27.139   4.263  0.00  0.00    -0.098 NA
BRANCH   9  13
ATOM     10  S   UNL     1     -36.721  26.408   2.302  0.00  0.00    -0.092 S 
ATOM     11  O   UNL     1     -37.011  22.879   3.807  0.00  0.00    -0.274 OA
ATOM     12  N   UNL     1     -35.956  24.917   4.256  0.00  0.00    -0.255 N 
ATOM     13  C   UNL     1     -35.805  26.187   3.762  0.00  0.00    +0.218 C 
ATOM     14  C   UNL     1     -37.352  24.718   2.317  0.00  0.00    +0.146 C 
ATOM     15  C   UNL     1     -36.766  24.050   3.534  0.00  0.00    +0.238 C 
ATOM     16  C   UNL     1     -35.295  24.495   5.484  0.00  0.00    +0.117 C 
ENDBRANCH   9  13
ENDBRANCH   8   9
ENDBRANCH   6   8
BRANCH   3  17
ATOM     17  C   UNL     1     -31.619  28.558   4.718  0.00  0.00    +0.118 C 
BRANCH  17  18
ATOM     18  C   UNL     1     -31.932  28.511   6.186  0.00  0.00    -0.024 C 
ATOM     19  C   UNL     1     -32.590  27.265   6.706  0.00  0.00    +0.028 C 
ATOM     20  C   UNL     1     -31.608  29.525   7.004  0.00  0.00    -0.007 C 
ENDBRANCH  17  18
ENDBRANCH   3  17
TORSDOF 5
ENDMDL
MODEL 8
REMARK VINA RESULT:      -4.9      3.689      5.702
REMARK  Name = 5934812
REMARK  5 active torsions:
REMARK  status: ('A' for Active; 'I' for Inactive)
REMARK    1  A    between atoms: N_3  and  C_17
REMARK    2  A    between atoms: N_4  and  C_7
REMARK    3  A    between atoms: N_4  and  N_12
REMARK    4  A    between atoms: N_12  and  C_13
REMARK    5  A    between atoms: C_17  and  C_18
REMARK                            x       y       z     vdW  Elec       q    Type
REMARK                         _______ _______ _______ _____ _____    ______ ____
ROOT
ATOM      1  S   UNL     1     -34.428  23.131   0.631  0.00  0.00    -0.094 S 
ATOM      2  O   UNL     1     -35.493  20.297   3.023  0.00  0.00    -0.274 OA
ATOM      3  N   UNL     1     -35.647  22.622   2.842  0.00  0.00    -0.253 N 
ATOM      4  C   UNL     1     -34.456  21.392   1.150  0.00  0.00    +0.127 C 
ATOM      5  C   UNL     1     -35.253  21.351   2.438  0.00  0.00    +0.237 C 
ATOM      6  C   UNL     1     -35.311  23.671   2.025  0.00  0.00    +0.218 C 
ATOM      7  C   UNL     1     -35.088  20.519   0.080  0.00  0.00    +0.021 C 
ENDROOT
BRANCH   6   8
ATOM      8  N   UNL     1     -35.583  24.916   2.207  0.00  0.00    -0.098 NA
BRANCH   8   9
ATOM      9  N   UNL     1     -34.412  25.661   2.293  0.00  0.00    -0.098 NA
BRANCH   9  13
ATOM     10  S   UNL     1     -35.847  27.603   1.204  0.00  0.00    -0.092 S 
ATOM     11  O   UNL     1     -34.222  30.176   3.559  0.00  0.00    -0.274 OA
ATOM     12  N   UNL     1     -34.128  27.885   3.099  0.00  0.00    -0.255 N 
ATOM     13  C   UNL     1     -34.680  26.921   2.295  0.00  0.00    +0.218 C 
ATOM     14  C   UNL     1     -35.618  29.277   1.838  0.00  0.00    +0.146 C 
ATOM     15  C   UNL     1     -34.583  29.186   2.929  0.00  0.00    +0.238 C 
ATOM     16  C   UNL     1     -33.110  27.558   4.089  0.00  0.00    +0.117 C 
ENDBRANCH   9  13
ENDBRANCH   8   9
ENDBRANCH   6   8
BRANCH   3  17
ATOM     17  C   UNL     1     -36.404  22.809   4.072  0.00  0.00    +0.118 C 
BRANCH  17  18
ATOM     18  C   UNL     1     -35.461  22.937   5.235  0.00  0.00    -0.024 C 
ATOM     19  C   UNL     1     -34.932  24.309   5.538  0.00  0.00    +0.028 C 
ATOM     20  C   UNL     1     -35.132  21.876   5.990  0.00  0.00    -0.007 C 
ENDBRANCH  17  18
ENDBRANCH   3  17
TORSDOF 5
ENDMDL
MODEL 9
REMARK VINA RESULT:      -4.8      5.450      7.636
REMARK  Name = 5934812
REMARK  5 active torsions:
REMARK  status: ('A' for Active; 'I' for Inactive)
REMARK    1  A    between atoms: N_3  and  C_17
REMARK    2  A    between atoms: N_4  and  C_7
REMARK    3  A    between atoms: N_4  and  N_12
REMARK    4  A    between atoms: N_12  and  C_13
REMARK    5  A    between atoms: C_17  and  C_18
REMARK                            x       y       z     vdW  Elec       q    Type
REMARK                         _______ _______ _______ _____ _____    ______ ____
ROOT
ATOM      1  S   UNL     1     -33.823  27.242   1.508  0.00  0.00    -0.094 S 
ATOM      2  O   UNL     1     -33.100  27.709   5.269  0.00  0.00    -0.274 OA
ATOM      3  N   UNL     1     -33.723  26.024   3.775  0.00  0.00    -0.253 N 
ATOM      4  C   UNL     1     -33.426  28.266   2.953  0.00  0.00    +0.127 C 
ATOM      5  C   UNL     1     -33.390  27.324   4.139  0.00  0.00    +0.237 C 
ATOM      6  C   UNL     1     -33.977  25.791   2.448  0.00  0.00    +0.218 C 
ATOM      7  C   UNL     1     -32.094  28.971   2.765  0.00  0.00    +0.021 C 
ENDROOT
BRANCH   6   8
ATOM      8  N   UNL     1     -34.293  24.667   1.902  0.00  0.00    -0.098 NA
BRANCH   8   9
ATOM      9  N   UNL     1     -35.421  24.817   1.104  0.00  0.00    -0.098 NA
BRANCH   9  13
ATOM     10  S   UNL     1     -36.590  22.503   1.653  0.00  0.00    -0.092 S 
ATOM     11  O   UNL     1     -39.493  24.338   3.389  0.00  0.00    -0.274 OA
ATOM     12  N   UNL     1     -37.501  24.831   2.265  0.00  0.00    -0.255 N 
ATOM     13  C   UNL     1     -36.435  24.233   1.645  0.00  0.00    +0.218 C 
ATOM     14  C   UNL     1     -38.161  22.542   2.540  0.00  0.00    +0.146 C 
ATOM     15  C   UNL     1     -38.478  23.994   2.790  0.00  0.00    +0.238 C 
ATOM     16  C   UNL     1     -37.605  26.281   2.372  0.00  0.00    +0.117 C 
ENDBRANCH   9  13
ENDBRANCH   8   9
ENDBRANCH   6   8
BRANCH   3  17
ATOM     17  C   UNL     1     -33.774  24.963   4.772  0.00  0.00    +0.118 C 
BRANCH  17  18
ATOM     18  C   UNL     1     -35.196  24.735   5.199  0.00  0.00    -0.024 C 
ATOM     19  C   UNL     1     -35.672  23.311   5.257  0.00  0.00    +0.028 C 
ATOM     20  C   UNL     1     -35.995  25.755   5.547  0.00  0.00    -0.007 C 
ENDBRANCH  17  18
ENDBRANCH   3  17
TORSDOF 5
ENDMDL
