MODEL 1
REMARK VINA RESULT:      -6.8      0.000      0.000
REMARK  Name = 21603233
REMARK  10 active torsions:
REMARK  status: ('A' for Active; 'I' for Inactive)
REMARK    1  A    between atoms: C_6  and  O_16
REMARK    2  A    between atoms: C_7  and  O_14
REMARK    3  A    between atoms: C_7  and  C_19
REMARK    4  A    between atoms: C_10  and  C_26
REMARK    5  A    between atoms: C_19  and  C_20
REMARK    6  A    between atoms: C_26  and  O_27
REMARK    7  A    between atoms: C_26  and  C_29
REMARK    8  A    between atoms: C_29  and  O_30
REMARK    9  A    between atoms: C_29  and  C_32
REMARK   10  A    between atoms: C_33  and  C_35
REMARK                            x       y       z     vdW  Elec       q    Type
REMARK                         _______ _______ _______ _____ _____    ______ ____
ROOT
ATOM      1  O   UNL     1     -37.667  24.190   1.737  0.00  0.00    -0.466 OA
ATOM      2  O   UNL     1     -37.988  23.140  -1.121  0.00  0.00    -0.271 OA
ATOM      3  O   UNL     1     -40.722  22.775   0.836  0.00  0.00    -0.287 OA
ATOM      4  N   UNL     1     -36.829  21.599   0.208  0.00  0.00    -0.275 N 
ATOM      5  C   UNL     1     -38.350  23.011   1.290  0.00  0.00    +0.282 C 
ATOM      6  C   UNL     1     -38.021  21.823   2.208  0.00  0.00    +0.213 C 
ATOM      7  C   UNL     1     -36.733  21.269   1.601  0.00  0.00    +0.238 C 
ATOM      8  C   UNL     1     -37.740  22.625  -0.041  0.00  0.00    +0.270 C 
ATOM      9  C   UNL     1     -39.787  23.437   1.259  0.00  0.00    +0.219 C 
ATOM     10  C   UNL     1     -38.655  25.128   2.034  0.00  0.00    +0.145 C 
ATOM     11  C   UNL     1     -39.923  24.791   1.792  0.00  0.00    +0.049 C 
ATOM     12  C   UNL     1     -41.213  25.494   1.952  0.00  0.00    +0.037 C 
ATOM     13  H   UNL     1     -36.308  21.149  -0.496  0.00  0.00    +0.152 HD
ENDROOT
BRANCH   7  14
ATOM     14  O   UNL     1     -36.592  19.877   1.780  0.00  0.00    -0.331 OA
ATOM     15  C   UNL     1     -36.251  19.213   0.565  0.00  0.00    +0.176 C 
ENDBRANCH   7  14
BRANCH   6  16
ATOM     16  O   UNL     1     -39.052  20.842   2.134  0.00  0.00    -0.377 OA
ATOM     17  H   UNL     1     -38.814  20.081   2.685  0.00  0.00    +0.211 HD
ENDBRANCH   6  16
BRANCH   7  19
ATOM     18  O   UNL     1     -34.578  22.264   1.450  0.00  0.00    -0.287 OA
ATOM     19  C   UNL     1     -35.511  21.928   2.174  0.00  0.00    +0.218 C 
BRANCH  19  20
ATOM     20  C   UNL     1     -35.443  22.174   3.642  0.00  0.00    +0.039 C 
ATOM     21  C   UNL     1     -35.158  21.117   4.477  0.00  0.00    +0.003 C 
ATOM     22  C   UNL     1     -35.667  23.450   4.110  0.00  0.00    +0.003 C 
ATOM     23  C   UNL     1     -35.094  21.347   5.851  0.00  0.00    +0.000 C 
ATOM     24  C   UNL     1     -35.603  23.681   5.484  0.00  0.00    +0.000 C 
ATOM     25  C   UNL     1     -35.316  22.629   6.355  0.00  0.00    +0.000 C 
ENDBRANCH  19  20
ENDBRANCH   7  19
BRANCH  10  26
ATOM     26  C   UNL     1     -38.151  26.418   2.583  0.00  0.00    +0.198 C 
BRANCH  26  27
ATOM     27  O   UNL     1     -37.877  26.243   3.973  0.00  0.00    -0.375 OA
ATOM     28  H   UNL     1     -37.087  25.689   4.078  0.00  0.00    +0.211 HD
ENDBRANCH  26  27
BRANCH  26  29
ATOM     29  C   UNL     1     -36.895  26.981   1.888  0.00  0.00    +0.167 C 
BRANCH  29  30
ATOM     30  O   UNL     1     -37.158  28.325   1.484  0.00  0.00    -0.377 OA
ATOM     31  H   UNL     1     -37.734  28.751   2.138  0.00  0.00    +0.211 HD
ENDBRANCH  29  30
BRANCH  29  32
ATOM     32  C   UNL     1     -35.658  26.957   2.750  0.00  0.00    +0.008 C 
ATOM     33  C   UNL     1     -34.547  26.286   2.418  0.00  0.00    +0.035 C 
BRANCH  33  35
ATOM     34  O   UNL     1     -32.230  26.011   2.903  0.00  0.00    -0.291 OA
ATOM     35  C   UNL     1     -33.354  26.304   3.307  0.00  0.00    +0.173 C 
ATOM     36  C   UNL     1     -33.592  26.670   4.749  0.00  0.00    +0.077 C 
ENDBRANCH  33  35
ENDBRANCH  29  32
ENDBRANCH  26  29
ENDBRANCH  10  26
TORSDOF 10
ENDMDL
MODEL 2
REMARK VINA RESULT:      -6.3      4.366      8.710
REMARK  Name = 21603233
REMARK  10 active torsions:
REMARK  status: ('A' for Active; 'I' for Inactive)
REMARK    1  A    between atoms: C_6  and  O_16
REMARK    2  A    between atoms: C_7  and  O_14
REMARK    3  A    between atoms: C_7  and  C_19
REMARK    4  A    between atoms: C_10  and  C_26
REMARK    5  A    between atoms: C_19  and  C_20
REMARK    6  A    between atoms: C_26  and  O_27
REMARK    7  A    between atoms: C_26  and  C_29
REMARK    8  A    between atoms: C_29  and  O_30
REMARK    9  A    between atoms: C_29  and  C_32
REMARK   10  A    between atoms: C_33  and  C_35
REMARK                            x       y       z     vdW  Elec       q    Type
REMARK                         _______ _______ _______ _____ _____    ______ ____
ROOT
ATOM      1  O   UNL     1     -33.247  28.269   4.512  0.00  0.00    -0.466 OA
ATOM      2  O   UNL     1     -35.146  30.289   3.212  0.00  0.00    -0.271 OA
ATOM      3  O   UNL     1     -33.684  28.131   1.057  0.00  0.00    -0.287 OA
ATOM      4  N   UNL     1     -33.063  31.265   3.650  0.00  0.00    -0.275 N 
ATOM      5  C   UNL     1     -33.100  28.957   3.262  0.00  0.00    +0.282 C 
ATOM      6  C   UNL     1     -31.661  29.474   3.103  0.00  0.00    +0.213 C 
ATOM      7  C   UNL     1     -31.705  30.829   3.808  0.00  0.00    +0.238 C 
ATOM      8  C   UNL     1     -33.934  30.218   3.352  0.00  0.00    +0.270 C 
ATOM      9  C   UNL     1     -33.547  27.940   2.255  0.00  0.00    +0.219 C 
ATOM     10  C   UNL     1     -33.624  26.963   4.200  0.00  0.00    +0.145 C 
ATOM     11  C   UNL     1     -33.824  26.666   2.915  0.00  0.00    +0.049 C 
ATOM     12  C   UNL     1     -34.235  25.437   2.205  0.00  0.00    +0.037 C 
ATOM     13  H   UNL     1     -33.349  32.203   3.741  0.00  0.00    +0.152 HD
ENDROOT
BRANCH   7  14
ATOM     14  O   UNL     1     -30.808  31.767   3.258  0.00  0.00    -0.331 OA
ATOM     15  C   UNL     1     -31.401  33.057   3.118  0.00  0.00    +0.176 C 
ENDBRANCH   7  14
BRANCH   6  16
ATOM     16  O   UNL     1     -31.353  29.657   1.724  0.00  0.00    -0.377 OA
ATOM     17  H   UNL     1     -31.228  30.600   1.543  0.00  0.00    +0.211 HD
ENDBRANCH   6  16
BRANCH   7  19
ATOM     18  O   UNL     1     -32.184  31.139   6.117  0.00  0.00    -0.287 OA
ATOM     19  C   UNL     1     -31.400  30.711   5.274  0.00  0.00    +0.218 C 
BRANCH  19  20
ATOM     20  C   UNL     1     -30.127  30.063   5.698  0.00  0.00    +0.039 C 
ATOM     21  C   UNL     1     -28.947  30.753   5.533  0.00  0.00    +0.003 C 
ATOM     22  C   UNL     1     -30.178  28.798   6.241  0.00  0.00    +0.003 C 
ATOM     23  C   UNL     1     -27.755  30.147   5.931  0.00  0.00    +0.000 C 
ATOM     24  C   UNL     1     -28.986  28.191   6.639  0.00  0.00    +0.000 C 
ATOM     25  C   UNL     1     -27.775  28.866   6.484  0.00  0.00    +0.000 C 
ENDBRANCH  19  20
ENDBRANCH   7  19
BRANCH  10  26
ATOM     26  C   UNL     1     -33.767  26.054   5.371  0.00  0.00    +0.198 C 
BRANCH  26  27
ATOM     27  O   UNL     1     -33.106  26.647   6.489  0.00  0.00    -0.375 OA
ATOM     28  H   UNL     1     -33.029  27.605   6.348  0.00  0.00    +0.211 HD
ENDBRANCH  26  27
BRANCH  26  29
ATOM     29  C   UNL     1     -35.219  25.717   5.765  0.00  0.00    +0.167 C 
BRANCH  29  30
ATOM     30  O   UNL     1     -36.090  26.684   5.175  0.00  0.00    -0.377 OA
ATOM     31  H   UNL     1     -35.747  27.575   5.347  0.00  0.00    +0.211 HD
ENDBRANCH  29  30
BRANCH  29  32
ATOM     32  C   UNL     1     -35.660  24.336   5.349  0.00  0.00    +0.008 C 
ATOM     33  C   UNL     1     -34.841  23.277   5.345  0.00  0.00    +0.035 C 
BRANCH  33  35
ATOM     34  O   UNL     1     -35.389  20.986   5.709  0.00  0.00    -0.291 OA
ATOM     35  C   UNL     1     -35.335  21.936   4.930  0.00  0.00    +0.173 C 
ATOM     36  C   UNL     1     -35.740  21.783   3.487  0.00  0.00    +0.077 C 
ENDBRANCH  33  35
ENDBRANCH  29  32
ENDBRANCH  26  29
ENDBRANCH  10  26
TORSDOF 10
ENDMDL
MODEL 3
REMARK VINA RESULT:      -6.2      2.020      3.120
REMARK  Name = 21603233
REMARK  10 active torsions:
REMARK  status: ('A' for Active; 'I' for Inactive)
REMARK    1  A    between atoms: C_6  and  O_16
REMARK    2  A    between atoms: C_7  and  O_14
REMARK    3  A    between atoms: C_7  and  C_19
REMARK    4  A    between atoms: C_10  and  C_26
REMARK    5  A    between atoms: C_19  and  C_20
REMARK    6  A    between atoms: C_26  and  O_27
REMARK    7  A    between atoms: C_26  and  C_29
REMARK    8  A    between atoms: C_29  and  O_30
REMARK    9  A    between atoms: C_29  and  C_32
REMARK   10  A    between atoms: C_33  and  C_35
REMARK                            x       y       z     vdW  Elec       q    Type
REMARK                         _______ _______ _______ _____ _____    ______ ____
ROOT
ATOM      1  O   UNL     1     -36.937  23.188   2.456  0.00  0.00    -0.466 OA
ATOM      2  O   UNL     1     -36.983  23.620  -0.575  0.00  0.00    -0.271 OA
ATOM      3  O   UNL     1     -40.031  23.309   0.857  0.00  0.00    -0.287 OA
ATOM      4  N   UNL     1     -36.511  21.385  -0.058  0.00  0.00    -0.275 N 
ATOM      5  C   UNL     1     -37.800  22.588   1.481  0.00  0.00    +0.282 C 
ATOM      6  C   UNL     1     -37.954  21.083   1.758  0.00  0.00    +0.213 C 
ATOM      7  C   UNL     1     -36.757  20.478   1.025  0.00  0.00    +0.238 C 
ATOM      8  C   UNL     1     -37.073  22.643   0.153  0.00  0.00    +0.270 C 
ATOM      9  C   UNL     1     -39.054  23.404   1.583  0.00  0.00    +0.219 C 
ATOM     10  C   UNL     1     -37.695  24.161   3.107  0.00  0.00    +0.145 C 
ATOM     11  C   UNL     1     -38.941  24.367   2.676  0.00  0.00    +0.049 C 
ATOM     12  C   UNL     1     -40.019  25.291   3.082  0.00  0.00    +0.037 C 
ATOM     13  H   UNL     1     -36.000  21.146  -0.865  0.00  0.00    +0.152 HD
ENDROOT
BRANCH   7  14
ATOM     14  O   UNL     1     -37.005  19.175   0.544  0.00  0.00    -0.331 OA
ATOM     15  C   UNL     1     -36.836  19.086  -0.869  0.00  0.00    +0.176 C 
ENDBRANCH   7  14
BRANCH   6  16
ATOM     16  O   UNL     1     -39.166  20.598   1.188  0.00  0.00    -0.377 OA
ATOM     17  H   UNL     1     -39.358  21.087   0.374  0.00  0.00    +0.211 HD
ENDBRANCH   6  16
BRANCH   7  19
ATOM     18  O   UNL     1     -35.625  20.522   3.116  0.00  0.00    -0.287 OA
ATOM     19  C   UNL     1     -35.535  20.417   1.896  0.00  0.00    +0.218 C 
BRANCH  19  20
ATOM     20  C   UNL     1     -34.201  20.226   1.259  0.00  0.00    +0.039 C 
ATOM     21  C   UNL     1     -33.671  21.254   0.513  0.00  0.00    +0.003 C 
ATOM     22  C   UNL     1     -33.547  19.028   1.442  0.00  0.00    +0.003 C 
ATOM     23  C   UNL     1     -32.423  21.076  -0.082  0.00  0.00    +0.000 C 
ATOM     24  C   UNL     1     -32.298  18.848   0.847  0.00  0.00    +0.000 C 
ATOM     25  C   UNL     1     -31.736  19.873   0.084  0.00  0.00    +0.000 C 
ENDBRANCH  19  20
ENDBRANCH   7  19
BRANCH  10  26
ATOM     26  C   UNL     1     -36.993  24.866   4.215  0.00  0.00    +0.198 C 
BRANCH  26  27
ATOM     27  O   UNL     1     -36.259  23.904   4.972  0.00  0.00    -0.375 OA
ATOM     28  H   UNL     1     -35.315  23.974   4.756  0.00  0.00    +0.211 HD
ENDBRANCH  26  27
BRANCH  26  29
ATOM     29  C   UNL     1     -36.039  25.994   3.773  0.00  0.00    +0.167 C 
BRANCH  29  30
ATOM     30  O   UNL     1     -35.710  26.789   4.914  0.00  0.00    -0.377 OA
ATOM     31  H   UNL     1     -34.929  26.417   5.352  0.00  0.00    +0.211 HD
ENDBRANCH  29  30
BRANCH  29  32
ATOM     32  C   UNL     1     -34.766  25.501   3.131  0.00  0.00    +0.008 C 
ATOM     33  C   UNL     1     -33.793  26.320   2.712  0.00  0.00    +0.035 C 
BRANCH  33  35
ATOM     34  O   UNL     1     -31.448  25.903   2.610  0.00  0.00    -0.291 OA
ATOM     35  C   UNL     1     -32.555  25.775   2.091  0.00  0.00    +0.173 C 
ATOM     36  C   UNL     1     -32.717  25.077   0.765  0.00  0.00    +0.077 C 
ENDBRANCH  33  35
ENDBRANCH  29  32
ENDBRANCH  26  29
ENDBRANCH  10  26
TORSDOF 10
ENDMDL
MODEL 4
REMARK VINA RESULT:      -6.1      2.417      3.449
REMARK  Name = 21603233
REMARK  10 active torsions:
REMARK  status: ('A' for Active; 'I' for Inactive)
REMARK    1  A    between atoms: C_6  and  O_16
REMARK    2  A    between atoms: C_7  and  O_14
REMARK    3  A    between atoms: C_7  and  C_19
REMARK    4  A    between atoms: C_10  and  C_26
REMARK    5  A    between atoms: C_19  and  C_20
REMARK    6  A    between atoms: C_26  and  O_27
REMARK    7  A    between atoms: C_26  and  C_29
REMARK    8  A    between atoms: C_29  and  O_30
REMARK    9  A    between atoms: C_29  and  C_32
REMARK   10  A    between atoms: C_33  and  C_35
REMARK                            x       y       z     vdW  Elec       q    Type
REMARK                         _______ _______ _______ _____ _____    ______ ____
ROOT
ATOM      1  O   UNL     1     -36.343  22.950   2.585  0.00  0.00    -0.466 OA
ATOM      2  O   UNL     1     -36.333  23.544  -0.419  0.00  0.00    -0.271 OA
ATOM      3  O   UNL     1     -39.409  23.304   0.967  0.00  0.00    -0.287 OA
ATOM      4  N   UNL     1     -35.973  21.265  -0.018  0.00  0.00    -0.275 N 
ATOM      5  C   UNL     1     -37.222  22.444   1.572  0.00  0.00    +0.282 C 
ATOM      6  C   UNL     1     -37.449  20.936   1.766  0.00  0.00    +0.213 C 
ATOM      7  C   UNL     1     -36.274  20.314   1.013  0.00  0.00    +0.238 C 
ATOM      8  C   UNL     1     -36.478  22.535   0.255  0.00  0.00    +0.270 C 
ATOM      9  C   UNL     1     -38.436  23.313   1.705  0.00  0.00    +0.219 C 
ATOM     10  C   UNL     1     -37.061  23.922   3.280  0.00  0.00    +0.145 C 
ATOM     11  C   UNL     1     -38.291  24.210   2.850  0.00  0.00    +0.049 C 
ATOM     12  C   UNL     1     -39.329  25.163   3.294  0.00  0.00    +0.037 C 
ATOM     13  H   UNL     1     -35.465  21.044  -0.832  0.00  0.00    +0.152 HD
ENDROOT
BRANCH   7  14
ATOM     14  O   UNL     1     -36.579  19.052   0.461  0.00  0.00    -0.331 OA
ATOM     15  C   UNL     1     -36.427  19.038  -0.957  0.00  0.00    +0.176 C 
ENDBRANCH   7  14
BRANCH   6  16
ATOM     16  O   UNL     1     -38.676  20.541   1.160  0.00  0.00    -0.377 OA
ATOM     17  H   UNL     1     -39.300  21.282   1.179  0.00  0.00    +0.211 HD
ENDBRANCH   6  16
BRANCH   7  19
ATOM     18  O   UNL     1     -35.153  20.267   3.110  0.00  0.00    -0.287 OA
ATOM     19  C   UNL     1     -35.067  20.149   1.890  0.00  0.00    +0.218 C 
BRANCH  19  20
ATOM     20  C   UNL     1     -33.753  19.835   1.261  0.00  0.00    +0.039 C 
ATOM     21  C   UNL     1     -33.184  18.603   1.497  0.00  0.00    +0.003 C 
ATOM     22  C   UNL     1     -33.155  20.788   0.467  0.00  0.00    +0.003 C 
ATOM     23  C   UNL     1     -31.954  18.309   0.909  0.00  0.00    +0.000 C 
ATOM     24  C   UNL     1     -31.925  20.495  -0.122  0.00  0.00    +0.000 C 
ATOM     25  C   UNL     1     -31.325  19.255   0.099  0.00  0.00    +0.000 C 
ENDBRANCH  19  20
ENDBRANCH   7  19
BRANCH  10  26
ATOM     26  C   UNL     1     -36.339  24.534   4.430  0.00  0.00    +0.198 C 
BRANCH  26  27
ATOM     27  O   UNL     1     -36.256  23.568   5.478  0.00  0.00    -0.375 OA
ATOM     28  H   UNL     1     -35.473  23.010   5.342  0.00  0.00    +0.211 HD
ENDBRANCH  26  27
BRANCH  26  29
ATOM     29  C   UNL     1     -34.924  25.057   4.113  0.00  0.00    +0.167 C 
BRANCH  29  30
ATOM     30  O   UNL     1     -34.995  25.903   2.965  0.00  0.00    -0.377 OA
ATOM     31  H   UNL     1     -34.232  25.732   2.390  0.00  0.00    +0.211 HD
ENDBRANCH  29  30
BRANCH  29  32
ATOM     32  C   UNL     1     -34.285  25.817   5.248  0.00  0.00    +0.008 C 
ATOM     33  C   UNL     1     -33.294  26.701   5.072  0.00  0.00    +0.035 C 
BRANCH  33  35
ATOM     34  O   UNL     1     -32.863  27.046   7.390  0.00  0.00    -0.291 OA
ATOM     35  C   UNL     1     -32.707  27.426   6.231  0.00  0.00    +0.173 C 
ATOM     36  C   UNL     1     -31.931  28.680   5.920  0.00  0.00    +0.077 C 
ENDBRANCH  33  35
ENDBRANCH  29  32
ENDBRANCH  26  29
ENDBRANCH  10  26
TORSDOF 10
ENDMDL
MODEL 5
REMARK VINA RESULT:      -6.1      3.783      7.910
REMARK  Name = 21603233
REMARK  10 active torsions:
REMARK  status: ('A' for Active; 'I' for Inactive)
REMARK    1  A    between atoms: C_6  and  O_16
REMARK    2  A    between atoms: C_7  and  O_14
REMARK    3  A    between atoms: C_7  and  C_19
REMARK    4  A    between atoms: C_10  and  C_26
REMARK    5  A    between atoms: C_19  and  C_20
REMARK    6  A    between atoms: C_26  and  O_27
REMARK    7  A    between atoms: C_26  and  C_29
REMARK    8  A    between atoms: C_29  and  O_30
REMARK    9  A    between atoms: C_29  and  C_32
REMARK   10  A    between atoms: C_33  and  C_35
REMARK                            x       y       z     vdW  Elec       q    Type
REMARK                         _______ _______ _______ _____ _____    ______ ____
ROOT
ATOM      1  O   UNL     1     -34.680  27.920   3.279  0.00  0.00    -0.466 OA
ATOM      2  O   UNL     1     -37.204  28.130   1.557  0.00  0.00    -0.271 OA
ATOM      3  O   UNL     1     -34.632  26.484   0.104  0.00  0.00    -0.287 OA
ATOM      4  N   UNL     1     -35.975  30.121   1.481  0.00  0.00    -0.275 N 
ATOM      5  C   UNL     1     -34.782  28.145   1.866  0.00  0.00    +0.282 C 
ATOM      6  C   UNL     1     -33.806  29.249   1.429  0.00  0.00    +0.213 C 
ATOM      7  C   UNL     1     -34.611  30.527   1.658  0.00  0.00    +0.238 C 
ATOM      8  C   UNL     1     -36.150  28.744   1.611  0.00  0.00    +0.270 C 
ATOM      9  C   UNL     1     -34.538  26.785   1.283  0.00  0.00    +0.219 C 
ATOM     10  C   UNL     1     -34.299  26.589   3.439  0.00  0.00    +0.145 C 
ATOM     11  C   UNL     1     -34.187  25.839   2.341  0.00  0.00    +0.049 C 
ATOM     12  C   UNL     1     -33.834  24.425   2.104  0.00  0.00    +0.037 C 
ATOM     13  H   UNL     1     -36.710  30.748   1.287  0.00  0.00    +0.152 HD
ENDROOT
BRANCH   7  14
ATOM     14  O   UNL     1     -34.272  31.561   0.761  0.00  0.00    -0.331 OA
ATOM     15  C   UNL     1     -35.427  32.190   0.209  0.00  0.00    +0.176 C 
ENDBRANCH   7  14
BRANCH   6  16
ATOM     16  O   UNL     1     -33.497  29.114   0.045  0.00  0.00    -0.377 OA
ATOM     17  H   UNL     1     -34.170  29.570  -0.482  0.00  0.00    +0.211 HD
ENDBRANCH   6  16
BRANCH   7  19
ATOM     18  O   UNL     1     -35.412  31.266   3.773  0.00  0.00    -0.287 OA
ATOM     19  C   UNL     1     -34.439  31.058   3.052  0.00  0.00    +0.218 C 
BRANCH  19  20
ATOM     20  C   UNL     1     -33.064  31.333   3.558  0.00  0.00    +0.039 C 
ATOM     21  C   UNL     1     -32.329  32.334   2.965  0.00  0.00    +0.003 C 
ATOM     22  C   UNL     1     -32.580  30.575   4.601  0.00  0.00    +0.003 C 
ATOM     23  C   UNL     1     -31.043  32.592   3.438  0.00  0.00    +0.000 C 
ATOM     24  C   UNL     1     -31.293  30.832   5.075  0.00  0.00    +0.000 C 
ATOM     25  C   UNL     1     -30.525  31.841   4.493  0.00  0.00    +0.000 C 
ENDBRANCH  19  20
ENDBRANCH   7  19
BRANCH  10  26
ATOM     26  C   UNL     1     -34.074  26.166   4.849  0.00  0.00    +0.198 C 
BRANCH  26  27
ATOM     27  O   UNL     1     -33.498  27.260   5.564  0.00  0.00    -0.375 OA
ATOM     28  H   UNL     1     -33.703  28.090   5.104  0.00  0.00    +0.211 HD
ENDBRANCH  26  27
BRANCH  26  29
ATOM     29  C   UNL     1     -35.331  25.680   5.597  0.00  0.00    +0.167 C 
BRANCH  29  30
ATOM     30  O   UNL     1     -36.420  26.547   5.274  0.00  0.00    -0.377 OA
ATOM     31  H   UNL     1     -36.137  27.470   5.371  0.00  0.00    +0.211 HD
ENDBRANCH  29  30
BRANCH  29  32
ATOM     32  C   UNL     1     -35.720  24.258   5.279  0.00  0.00    +0.008 C 
ATOM     33  C   UNL     1     -34.882  23.222   5.412  0.00  0.00    +0.035 C 
BRANCH  33  35
ATOM     34  O   UNL     1     -35.364  20.948   5.933  0.00  0.00    -0.291 OA
ATOM     35  C   UNL     1     -35.325  21.839   5.087  0.00  0.00    +0.173 C 
ATOM     36  C   UNL     1     -35.696  21.569   3.652  0.00  0.00    +0.077 C 
ENDBRANCH  33  35
ENDBRANCH  29  32
ENDBRANCH  26  29
ENDBRANCH  10  26
TORSDOF 10
ENDMDL
MODEL 6
REMARK VINA RESULT:      -6.1      2.268      6.671
REMARK  Name = 21603233
REMARK  10 active torsions:
REMARK  status: ('A' for Active; 'I' for Inactive)
REMARK    1  A    between atoms: C_6  and  O_16
REMARK    2  A    between atoms: C_7  and  O_14
REMARK    3  A    between atoms: C_7  and  C_19
REMARK    4  A    between atoms: C_10  and  C_26
REMARK    5  A    between atoms: C_19  and  C_20
REMARK    6  A    between atoms: C_26  and  O_27
REMARK    7  A    between atoms: C_26  and  C_29
REMARK    8  A    between atoms: C_29  and  O_30
REMARK    9  A    between atoms: C_29  and  C_32
REMARK   10  A    between atoms: C_33  and  C_35
REMARK                            x       y       z     vdW  Elec       q    Type
REMARK                         _______ _______ _______ _____ _____    ______ ____
ROOT
ATOM      1  O   UNL     1     -35.808  23.148   2.419  0.00  0.00    -0.466 OA
ATOM      2  O   UNL     1     -33.781  25.408   2.814  0.00  0.00    -0.271 OA
ATOM      3  O   UNL     1     -35.570  24.614   5.572  0.00  0.00    -0.287 OA
ATOM      4  N   UNL     1     -35.725  26.203   1.779  0.00  0.00    -0.275 N 
ATOM      5  C   UNL     1     -35.948  24.349   3.189  0.00  0.00    +0.282 C 
ATOM      6  C   UNL     1     -37.332  24.976   2.955  0.00  0.00    +0.213 C 
ATOM      7  C   UNL     1     -37.110  25.837   1.712  0.00  0.00    +0.238 C 
ATOM      8  C   UNL     1     -34.984  25.362   2.608  0.00  0.00    +0.270 C 
ATOM      9  C   UNL     1     -35.663  23.895   4.590  0.00  0.00    +0.219 C 
ATOM     10  C   UNL     1     -35.586  22.118   3.332  0.00  0.00    +0.145 C 
ATOM     11  C   UNL     1     -35.485  22.444   4.622  0.00  0.00    +0.049 C 
ATOM     12  C   UNL     1     -35.242  21.666   5.854  0.00  0.00    +0.037 C 
ATOM     13  H   UNL     1     -35.339  26.968   1.293  0.00  0.00    +0.152 HD
ENDROOT
BRANCH   7  14
ATOM     14  O   UNL     1     -37.933  26.982   1.679  0.00  0.00    -0.331 OA
ATOM     15  C   UNL     1     -37.405  27.996   0.826  0.00  0.00    +0.176 C 
ENDBRANCH   7  14
BRANCH   6  16
ATOM     16  O   UNL     1     -37.692  25.803   4.058  0.00  0.00    -0.377 OA
ATOM     17  H   UNL     1     -37.287  25.457   4.867  0.00  0.00    +0.211 HD
ENDBRANCH   6  16
BRANCH   7  19
ATOM     18  O   UNL     1     -36.465  24.957  -0.402  0.00  0.00    -0.287 OA
ATOM     19  C   UNL     1     -37.348  25.068   0.444  0.00  0.00    +0.218 C 
BRANCH  19  20
ATOM     20  C   UNL     1     -38.678  24.433   0.222  0.00  0.00    +0.039 C 
ATOM     21  C   UNL     1     -39.666  25.166  -0.398  0.00  0.00    +0.003 C 
ATOM     22  C   UNL     1     -38.871  23.136   0.644  0.00  0.00    +0.003 C 
ATOM     23  C   UNL     1     -40.910  24.572  -0.606  0.00  0.00    +0.000 C 
ATOM     24  C   UNL     1     -40.116  22.542   0.436  0.00  0.00    +0.000 C 
ATOM     25  C   UNL     1     -41.135  23.260  -0.190  0.00  0.00    +0.000 C 
ENDBRANCH  19  20
ENDBRANCH   7  19
BRANCH  10  26
ATOM     26  C   UNL     1     -35.476  20.760   2.732  0.00  0.00    +0.198 C 
BRANCH  26  27
ATOM     27  O   UNL     1     -36.747  20.115   2.834  0.00  0.00    -0.375 OA
ATOM     28  H   UNL     1     -36.708  19.433   3.523  0.00  0.00    +0.211 HD
ENDBRANCH  26  27
BRANCH  26  29
ATOM     29  C   UNL     1     -35.012  20.728   1.262  0.00  0.00    +0.167 C 
BRANCH  29  30
ATOM     30  O   UNL     1     -34.030  21.747   1.070  0.00  0.00    -0.377 OA
ATOM     31  H   UNL     1     -34.469  22.610   1.007  0.00  0.00    +0.211 HD
ENDBRANCH  29  30
BRANCH  29  32
ATOM     32  C   UNL     1     -34.436  19.401   0.832  0.00  0.00    +0.008 C 
ATOM     33  C   UNL     1     -33.287  18.911   1.314  0.00  0.00    +0.035 C 
BRANCH  33  35
ATOM     34  O   UNL     1     -31.643  17.195   1.139  0.00  0.00    -0.291 OA
ATOM     35  C   UNL     1     -32.771  17.592   0.856  0.00  0.00    +0.173 C 
ATOM     36  C   UNL     1     -33.693  16.770  -0.007  0.00  0.00    +0.077 C 
ENDBRANCH  33  35
ENDBRANCH  29  32
ENDBRANCH  26  29
ENDBRANCH  10  26
TORSDOF 10
ENDMDL
MODEL 7
REMARK VINA RESULT:      -6.1      2.607      4.560
REMARK  Name = 21603233
REMARK  10 active torsions:
REMARK  status: ('A' for Active; 'I' for Inactive)
REMARK    1  A    between atoms: C_6  and  O_16
REMARK    2  A    between atoms: C_7  and  O_14
REMARK    3  A    between atoms: C_7  and  C_19
REMARK    4  A    between atoms: C_10  and  C_26
REMARK    5  A    between atoms: C_19  and  C_20
REMARK    6  A    between atoms: C_26  and  O_27
REMARK    7  A    between atoms: C_26  and  C_29
REMARK    8  A    between atoms: C_29  and  O_30
REMARK    9  A    between atoms: C_29  and  C_32
REMARK   10  A    between atoms: C_33  and  C_35
REMARK                            x       y       z     vdW  Elec       q    Type
REMARK                         _______ _______ _______ _____ _____    ______ ____
ROOT
ATOM      1  O   UNL     1     -35.082  24.089   2.714  0.00  0.00    -0.466 OA
ATOM      2  O   UNL     1     -38.056  23.895   3.420  0.00  0.00    -0.271 OA
ATOM      3  O   UNL     1     -35.947  23.276   5.991  0.00  0.00    -0.287 OA
ATOM      4  N   UNL     1     -37.325  21.946   2.349  0.00  0.00    -0.275 N 
ATOM      5  C   UNL     1     -35.736  23.149   3.577  0.00  0.00    +0.282 C 
ATOM      6  C   UNL     1     -35.208  21.728   3.319  0.00  0.00    +0.213 C 
ATOM      7  C   UNL     1     -36.089  21.239   2.170  0.00  0.00    +0.238 C 
ATOM      8  C   UNL     1     -37.186  23.084   3.142  0.00  0.00    +0.270 C 
ATOM      9  C   UNL     1     -35.482  23.704   4.946  0.00  0.00    +0.219 C 
ATOM     10  C   UNL     1     -34.435  25.001   3.545  0.00  0.00    +0.145 C 
ATOM     11  C   UNL     1     -34.601  24.867   4.862  0.00  0.00    +0.049 C 
ATOM     12  C   UNL     1     -34.109  25.621   6.034  0.00  0.00    +0.037 C 
ATOM     13  H   UNL     1     -38.180  21.657   1.954  0.00  0.00    +0.152 HD
ENDROOT
BRANCH   7  14
ATOM     14  O   UNL     1     -36.298  19.845   2.190  0.00  0.00    -0.331 OA
ATOM     15  C   UNL     1     -37.212  19.427   1.178  0.00  0.00    +0.176 C 
ENDBRANCH   7  14
BRANCH   6  16
ATOM     16  O   UNL     1     -35.411  20.910   4.467  0.00  0.00    -0.377 OA
ATOM     17  H   UNL     1     -35.299  19.979   4.224  0.00  0.00    +0.211 HD
ENDBRANCH   6  16
BRANCH   7  19
ATOM     18  O   UNL     1     -36.178  22.222   0.006  0.00  0.00    -0.287 OA
ATOM     19  C   UNL     1     -35.515  21.595   0.829  0.00  0.00    +0.218 C 
BRANCH  19  20
ATOM     20  C   UNL     1     -34.122  21.179   0.505  0.00  0.00    +0.039 C 
ATOM     21  C   UNL     1     -33.321  22.046  -0.205  0.00  0.00    +0.003 C 
ATOM     22  C   UNL     1     -33.685  19.943   0.927  0.00  0.00    +0.003 C 
ATOM     23  C   UNL     1     -32.016  21.657  -0.509  0.00  0.00    +0.000 C 
ATOM     24  C   UNL     1     -32.380  19.553   0.624  0.00  0.00    +0.000 C 
ATOM     25  C   UNL     1     -31.546  20.411  -0.094  0.00  0.00    +0.000 C 
ENDBRANCH  19  20
ENDBRANCH   7  19
BRANCH  10  26
ATOM     26  C   UNL     1     -33.632  26.037   2.836  0.00  0.00    +0.198 C 
BRANCH  26  27
ATOM     27  O   UNL     1     -33.201  25.498   1.586  0.00  0.00    -0.375 OA
ATOM     28  H   UNL     1     -33.239  24.529   1.622  0.00  0.00    +0.211 HD
ENDBRANCH  26  27
BRANCH  26  29
ATOM     29  C   UNL     1     -34.361  27.372   2.586  0.00  0.00    +0.167 C 
BRANCH  29  30
ATOM     30  O   UNL     1     -35.720  27.238   3.005  0.00  0.00    -0.377 OA
ATOM     31  H   UNL     1     -36.304  27.316   2.236  0.00  0.00    +0.211 HD
ENDBRANCH  29  30
BRANCH  29  32
ATOM     32  C   UNL     1     -33.739  28.550   3.294  0.00  0.00    +0.008 C 
ATOM     33  C   UNL     1     -32.676  28.440   4.102  0.00  0.00    +0.035 C 
BRANCH  33  35
ATOM     34  O   UNL     1     -32.807  30.522   5.252  0.00  0.00    -0.291 OA
ATOM     35  C   UNL     1     -32.102  29.639   4.769  0.00  0.00    +0.173 C 
ATOM     36  C   UNL     1     -30.598  29.741   4.798  0.00  0.00    +0.077 C 
ENDBRANCH  33  35
ENDBRANCH  29  32
ENDBRANCH  26  29
ENDBRANCH  10  26
TORSDOF 10
ENDMDL
MODEL 8
REMARK VINA RESULT:      -6.1      2.651      4.402
REMARK  Name = 21603233
REMARK  10 active torsions:
REMARK  status: ('A' for Active; 'I' for Inactive)
REMARK    1  A    between atoms: C_6  and  O_16
REMARK    2  A    between atoms: C_7  and  O_14
REMARK    3  A    between atoms: C_7  and  C_19
REMARK    4  A    between atoms: C_10  and  C_26
REMARK    5  A    between atoms: C_19  and  C_20
REMARK    6  A    between atoms: C_26  and  O_27
REMARK    7  A    between atoms: C_26  and  C_29
REMARK    8  A    between atoms: C_29  and  O_30
REMARK    9  A    between atoms: C_29  and  C_32
REMARK   10  A    between atoms: C_33  and  C_35
REMARK                            x       y       z     vdW  Elec       q    Type
REMARK                         _______ _______ _______ _____ _____    ______ ____
ROOT
ATOM      1  O   UNL     1     -35.345  24.151   2.590  0.00  0.00    -0.466 OA
ATOM      2  O   UNL     1     -38.280  23.719   3.347  0.00  0.00    -0.271 OA
ATOM      3  O   UNL     1     -36.078  23.190   5.859  0.00  0.00    -0.287 OA
ATOM      4  N   UNL     1     -37.430  21.858   2.208  0.00  0.00    -0.275 N 
ATOM      5  C   UNL     1     -35.909  23.142   3.438  0.00  0.00    +0.282 C 
ATOM      6  C   UNL     1     -35.283  21.772   3.131  0.00  0.00    +0.213 C 
ATOM      7  C   UNL     1     -36.150  21.250   1.986  0.00  0.00    +0.238 C 
ATOM      8  C   UNL     1     -37.359  22.981   3.030  0.00  0.00    +0.270 C 
ATOM      9  C   UNL     1     -35.668  23.678   4.818  0.00  0.00    +0.219 C 
ATOM     10  C   UNL     1     -34.748  25.086   3.434  0.00  0.00    +0.145 C 
ATOM     11  C   UNL     1     -34.876  24.905   4.750  0.00  0.00    +0.049 C 
ATOM     12  C   UNL     1     -34.417  25.662   5.932  0.00  0.00    +0.037 C 
ATOM     13  H   UNL     1     -38.270  21.517   1.822  0.00  0.00    +0.152 HD
ENDROOT
BRANCH   7  14
ATOM     14  O   UNL     1     -36.256  19.844   1.971  0.00  0.00    -0.331 OA
ATOM     15  C   UNL     1     -37.136  19.385   0.947  0.00  0.00    +0.176 C 
ENDBRANCH   7  14
BRANCH   6  16
ATOM     16  O   UNL     1     -35.402  20.911   4.259  0.00  0.00    -0.377 OA
ATOM     17  H   UNL     1     -35.846  21.382   4.980  0.00  0.00    +0.211 HD
ENDBRANCH   6  16
BRANCH   7  19
ATOM     18  O   UNL     1     -36.370  22.235  -0.168  0.00  0.00    -0.287 OA
ATOM     19  C   UNL     1     -35.632  21.683   0.644  0.00  0.00    +0.218 C 
BRANCH  19  20
ATOM     20  C   UNL     1     -34.202  21.436   0.307  0.00  0.00    +0.039 C 
ATOM     21  C   UNL     1     -33.657  20.205   0.596  0.00  0.00    +0.003 C 
ATOM     22  C   UNL     1     -33.478  22.447  -0.284  0.00  0.00    +0.003 C 
ATOM     23  C   UNL     1     -32.319  19.973   0.280  0.00  0.00    +0.000 C 
ATOM     24  C   UNL     1     -32.139  22.216  -0.601  0.00  0.00    +0.000 C 
ATOM     25  C   UNL     1     -31.560  20.978  -0.319  0.00  0.00    +0.000 C 
ENDBRANCH  19  20
ENDBRANCH   7  19
BRANCH  10  26
ATOM     26  C   UNL     1     -34.039  26.197   2.739  0.00  0.00    +0.198 C 
BRANCH  26  27
ATOM     27  O   UNL     1     -33.343  25.657   1.615  0.00  0.00    -0.375 OA
ATOM     28  H   UNL     1     -32.506  26.134   1.495  0.00  0.00    +0.211 HD
ENDBRANCH  26  27
BRANCH  26  29
ATOM     29  C   UNL     1     -34.941  27.354   2.265  0.00  0.00    +0.167 C 
BRANCH  29  30
ATOM     30  O   UNL     1     -36.293  27.051   2.609  0.00  0.00    -0.377 OA
ATOM     31  H   UNL     1     -36.748  26.684   1.835  0.00  0.00    +0.211 HD
ENDBRANCH  29  30
BRANCH  29  32
ATOM     32  C   UNL     1     -34.571  28.695   2.848  0.00  0.00    +0.008 C 
ATOM     33  C   UNL     1     -33.356  28.968   3.343  0.00  0.00    +0.035 C 
BRANCH  33  35
ATOM     34  O   UNL     1     -32.761  30.481   5.085  0.00  0.00    -0.291 OA
ATOM     35  C   UNL     1     -33.047  30.312   3.901  0.00  0.00    +0.173 C 
ATOM     36  C   UNL     1     -33.134  31.476   2.948  0.00  0.00    +0.077 C 
ENDBRANCH  33  35
ENDBRANCH  29  32
ENDBRANCH  26  29
ENDBRANCH  10  26
TORSDOF 10
ENDMDL
MODEL 9
REMARK VINA RESULT:      -6.1      2.545      6.472
REMARK  Name = 21603233
REMARK  10 active torsions:
REMARK  status: ('A' for Active; 'I' for Inactive)
REMARK    1  A    between atoms: C_6  and  O_16
REMARK    2  A    between atoms: C_7  and  O_14
REMARK    3  A    between atoms: C_7  and  C_19
REMARK    4  A    between atoms: C_10  and  C_26
REMARK    5  A    between atoms: C_19  and  C_20
REMARK    6  A    between atoms: C_26  and  O_27
REMARK    7  A    between atoms: C_26  and  C_29
REMARK    8  A    between atoms: C_29  and  O_30
REMARK    9  A    between atoms: C_29  and  C_32
REMARK   10  A    between atoms: C_33  and  C_35
REMARK                            x       y       z     vdW  Elec       q    Type
REMARK                         _______ _______ _______ _____ _____    ______ ____
ROOT
ATOM      1  O   UNL     1     -37.106  22.646   2.221  0.00  0.00    -0.466 OA
ATOM      2  O   UNL     1     -36.100  25.429   1.435  0.00  0.00    -0.271 OA
ATOM      3  O   UNL     1     -36.589  24.986   4.752  0.00  0.00    -0.287 OA
ATOM      4  N   UNL     1     -38.405  25.242   1.068  0.00  0.00    -0.275 N 
ATOM      5  C   UNL     1     -37.483  23.919   2.764  0.00  0.00    +0.282 C 
ATOM      6  C   UNL     1     -39.007  23.991   2.950  0.00  0.00    +0.213 C 
ATOM      7  C   UNL     1     -39.496  24.466   1.582  0.00  0.00    +0.238 C 
ATOM      8  C   UNL     1     -37.195  24.957   1.699  0.00  0.00    +0.270 C 
ATOM      9  C   UNL     1     -36.664  24.014   4.017  0.00  0.00    +0.219 C 
ATOM     10  C   UNL     1     -36.255  22.057   3.153  0.00  0.00    +0.145 C 
ATOM     11  C   UNL     1     -35.933  22.767   4.236  0.00  0.00    +0.049 C 
ATOM     12  C   UNL     1     -35.072  22.506   5.408  0.00  0.00    +0.037 C 
ATOM     13  H   UNL     1     -38.500  25.907   0.348  0.00  0.00    +0.152 HD
ENDROOT
BRANCH   7  14
ATOM     14  O   UNL     1     -40.674  25.238   1.654  0.00  0.00    -0.331 OA
ATOM     15  C   UNL     1     -40.503  26.530   1.075  0.00  0.00    +0.176 C 
ENDBRANCH   7  14
BRANCH   6  16
ATOM     16  O   UNL     1     -39.338  24.956   3.943  0.00  0.00    -0.377 OA
ATOM     17  H   UNL     1     -39.987  24.580   4.557  0.00  0.00    +0.211 HD
ENDBRANCH   6  16
BRANCH   7  19
ATOM     18  O   UNL     1     -40.358  22.318   1.032  0.00  0.00    -0.287 OA
ATOM     19  C   UNL     1     -39.758  23.319   0.649  0.00  0.00    +0.218 C 
BRANCH  19  20
ATOM     20  C   UNL     1     -39.281  23.409  -0.760  0.00  0.00    +0.039 C 
ATOM     21  C   UNL     1     -38.150  22.710  -1.121  0.00  0.00    +0.003 C 
ATOM     22  C   UNL     1     -39.988  24.186  -1.651  0.00  0.00    +0.003 C 
ATOM     23  C   UNL     1     -37.704  22.794  -2.440  0.00  0.00    +0.000 C 
ATOM     24  C   UNL     1     -39.542  24.270  -2.970  0.00  0.00    +0.000 C 
ATOM     25  C   UNL     1     -38.399  23.573  -3.364  0.00  0.00    +0.000 C 
ENDBRANCH  19  20
ENDBRANCH   7  19
BRANCH  10  26
ATOM     26  C   UNL     1     -35.796  20.684   2.804  0.00  0.00    +0.198 C 
BRANCH  26  27
ATOM     27  O   UNL     1     -36.938  19.831   2.719  0.00  0.00    -0.375 OA
ATOM     28  H   UNL     1     -37.480  19.937   3.517  0.00  0.00    +0.211 HD
ENDBRANCH  26  27
BRANCH  26  29
ATOM     29  C   UNL     1     -34.987  20.575   1.496  0.00  0.00    +0.167 C 
BRANCH  29  30
ATOM     30  O   UNL     1     -34.451  21.861   1.181  0.00  0.00    -0.377 OA
ATOM     31  H   UNL     1     -35.078  22.548   1.455  0.00  0.00    +0.211 HD
ENDBRANCH  29  30
BRANCH  29  32
ATOM     32  C   UNL     1     -33.863  19.572   1.554  0.00  0.00    +0.008 C 
ATOM     33  C   UNL     1     -32.798  19.618   0.743  0.00  0.00    +0.035 C 
BRANCH  33  35
ATOM     34  O   UNL     1     -31.808  17.621   1.586  0.00  0.00    -0.291 OA
ATOM     35  C   UNL     1     -31.715  18.602   0.851  0.00  0.00    +0.173 C 
ATOM     36  C   UNL     1     -30.472  18.851   0.036  0.00  0.00    +0.077 C 
ENDBRANCH  33  35
ENDBRANCH  29  32
ENDBRANCH  26  29
ENDBRANCH  10  26
TORSDOF 10
ENDMDL
