MODEL 1
REMARK VINA RESULT:      -6.2      0.000      0.000
REMARK  Name = 5281342
REMARK  6 active torsions:
REMARK  status: ('A' for Active; 'I' for Inactive)
REMARK    1  A    between atoms: C_5  and  O_14
REMARK    2  A    between atoms: C_6  and  O_12
REMARK    3  A    between atoms: C_9  and  O_16
REMARK    4  A    between atoms: C_10  and  O_18
REMARK    5  A    between atoms: O_18  and  C_19
REMARK    6  A    between atoms: C_24  and  O_25
REMARK                            x       y       z     vdW  Elec       q    Type
REMARK                         _______ _______ _______ _____ _____    ______ ____
ROOT
ATOM      1  O   UNL     1     -33.788  27.058   5.092  0.00  0.00    -0.423 OA
ATOM      2  O   UNL     1     -31.920  27.694   1.530  0.00  0.00    -0.286 OA
ATOM      3  C   UNL     1     -31.898  27.995   3.886  0.00  0.00    +0.111 C 
ATOM      4  C   UNL     1     -32.597  27.737   5.065  0.00  0.00    +0.158 C 
ATOM      5  C   UNL     1     -30.689  28.693   3.919  0.00  0.00    +0.177 C 
ATOM      6  C   UNL     1     -30.182  29.132   5.143  0.00  0.00    +0.206 C 
ATOM      7  C   UNL     1     -32.087  28.179   6.287  0.00  0.00    +0.078 C 
ATOM      8  C   UNL     1     -32.459  27.519   2.615  0.00  0.00    +0.208 C 
ATOM      9  C   UNL     1     -30.879  28.876   6.324  0.00  0.00    +0.174 C 
ATOM     10  C   UNL     1     -34.325  26.605   3.896  0.00  0.00    +0.304 C 
ATOM     11  C   UNL     1     -33.742  26.794   2.701  0.00  0.00    +0.120 C 
ENDROOT
BRANCH   6  12
ATOM     12  O   UNL     1     -29.001  29.814   5.188  0.00  0.00    -0.465 OA
ATOM     13  C   UNL     1     -29.074  31.236   5.114  0.00  0.00    +0.253 C 
ENDBRANCH   6  12
BRANCH   5  14
ATOM     14  O   UNL     1     -29.978  28.961   2.787  0.00  0.00    -0.503 OA
ATOM     15  H   UNL     1     -29.164  28.524   2.631  0.00  0.00    +0.292 HD
ENDBRANCH   5  14
BRANCH   9  16
ATOM     16  O   UNL     1     -30.391  29.301   7.523  0.00  0.00    -0.503 OA
ATOM     17  H   UNL     1     -29.579  29.766   7.559  0.00  0.00    +0.292 HD
ENDBRANCH   9  16
BRANCH  10  18
ATOM     18  O   UNL     1     -35.524  25.925   3.960  0.00  0.00    -0.423 OA
BRANCH  18  19
ATOM     19  C   UNL     1     -35.470  24.615   4.339  0.00  0.00    +0.149 C 
ATOM     20  C   UNL     1     -35.534  23.611   3.375  0.00  0.00    +0.041 C 
ATOM     21  C   UNL     1     -35.351  24.288   5.687  0.00  0.00    +0.041 C 
ATOM     22  C   UNL     1     -35.478  22.272   3.764  0.00  0.00    +0.040 C 
ATOM     23  C   UNL     1     -35.296  22.949   6.075  0.00  0.00    +0.040 C 
ATOM     24  C   UNL     1     -35.358  21.941   5.113  0.00  0.00    +0.134 C 
BRANCH  24  25
ATOM     25  O   UNL     1     -35.303  20.635   5.491  0.00  0.00    -0.506 OA
ATOM     26  H   UNL     1     -35.444  20.399   6.387  0.00  0.00    +0.292 HD
ENDBRANCH  24  25
ENDBRANCH  18  19
ENDBRANCH  10  18
TORSDOF 6
ENDMDL
MODEL 2
REMARK VINA RESULT:      -6.2      2.135      2.943
REMARK  Name = 5281342
REMARK  6 active torsions:
REMARK  status: ('A' for Active; 'I' for Inactive)
REMARK    1  A    between atoms: C_5  and  O_14
REMARK    2  A    between atoms: C_6  and  O_12
REMARK    3  A    between atoms: C_9  and  O_16
REMARK    4  A    between atoms: C_10  and  O_18
REMARK    5  A    between atoms: O_18  and  C_19
REMARK    6  A    between atoms: C_24  and  O_25
REMARK                            x       y       z     vdW  Elec       q    Type
REMARK                         _______ _______ _______ _____ _____    ______ ____
ROOT
ATOM      1  O   UNL     1     -35.497  25.181   4.973  0.00  0.00    -0.423 OA
ATOM      2  O   UNL     1     -35.268  27.621   1.721  0.00  0.00    -0.286 OA
ATOM      3  C   UNL     1     -34.401  27.039   3.855  0.00  0.00    +0.111 C 
ATOM      4  C   UNL     1     -34.542  26.164   4.932  0.00  0.00    +0.158 C 
ATOM      5  C   UNL     1     -33.409  28.021   3.867  0.00  0.00    +0.177 C 
ATOM      6  C   UNL     1     -32.556  28.124   4.968  0.00  0.00    +0.206 C 
ATOM      7  C   UNL     1     -33.687  26.270   6.031  0.00  0.00    +0.078 C 
ATOM      8  C   UNL     1     -35.314  26.903   2.712  0.00  0.00    +0.208 C 
ATOM      9  C   UNL     1     -32.695  27.251   6.047  0.00  0.00    +0.174 C 
ATOM     10  C   UNL     1     -36.363  25.047   3.898  0.00  0.00    +0.304 C 
ATOM     11  C   UNL     1     -36.322  25.830   2.809  0.00  0.00    +0.120 C 
ENDROOT
BRANCH   6  12
ATOM     12  O   UNL     1     -31.583  29.080   4.991  0.00  0.00    -0.465 OA
ATOM     13  C   UNL     1     -31.908  30.315   5.625  0.00  0.00    +0.253 C 
ENDBRANCH   6  12
BRANCH   5  14
ATOM     14  O   UNL     1     -33.241  28.892   2.831  0.00  0.00    -0.503 OA
ATOM     15  H   UNL     1     -33.253  29.816   2.990  0.00  0.00    +0.292 HD
ENDBRANCH   5  14
BRANCH   9  16
ATOM     16  O   UNL     1     -31.867  27.344   7.125  0.00  0.00    -0.503 OA
ATOM     17  H   UNL     1     -32.196  27.668   7.940  0.00  0.00    +0.292 HD
ENDBRANCH   9  16
BRANCH  10  18
ATOM     18  O   UNL     1     -37.313  24.048   3.974  0.00  0.00    -0.423 OA
BRANCH  18  19
ATOM     19  C   UNL     1     -37.024  22.875   3.336  0.00  0.00    +0.149 C 
ATOM     20  C   UNL     1     -37.899  22.377   2.374  0.00  0.00    +0.041 C 
ATOM     21  C   UNL     1     -35.857  22.184   3.651  0.00  0.00    +0.041 C 
ATOM     22  C   UNL     1     -37.603  21.179   1.722  0.00  0.00    +0.040 C 
ATOM     23  C   UNL     1     -35.563  20.986   3.000  0.00  0.00    +0.040 C 
ATOM     24  C   UNL     1     -36.435  20.484   2.035  0.00  0.00    +0.134 C 
BRANCH  24  25
ATOM     25  O   UNL     1     -36.147  19.316   1.398  0.00  0.00    -0.506 OA
ATOM     26  H   UNL     1     -35.306  19.190   1.006  0.00  0.00    +0.292 HD
ENDBRANCH  24  25
ENDBRANCH  18  19
ENDBRANCH  10  18
TORSDOF 6
ENDMDL
MODEL 3
REMARK VINA RESULT:      -6.1      3.397      8.617
REMARK  Name = 5281342
REMARK  6 active torsions:
REMARK  status: ('A' for Active; 'I' for Inactive)
REMARK    1  A    between atoms: C_5  and  O_14
REMARK    2  A    between atoms: C_6  and  O_12
REMARK    3  A    between atoms: C_9  and  O_16
REMARK    4  A    between atoms: C_10  and  O_18
REMARK    5  A    between atoms: O_18  and  C_19
REMARK    6  A    between atoms: C_24  and  O_25
REMARK                            x       y       z     vdW  Elec       q    Type
REMARK                         _______ _______ _______ _____ _____    ______ ____
ROOT
ATOM      1  O   UNL     1     -36.570  23.438   3.304  0.00  0.00    -0.423 OA
ATOM      2  O   UNL     1     -40.090  22.493   1.488  0.00  0.00    -0.286 OA
ATOM      3  C   UNL     1     -37.841  21.877   1.944  0.00  0.00    +0.111 C 
ATOM      4  C   UNL     1     -36.671  22.269   2.593  0.00  0.00    +0.158 C 
ATOM      5  C   UNL     1     -37.887  20.675   1.234  0.00  0.00    +0.177 C 
ATOM      6  C   UNL     1     -36.751  19.865   1.179  0.00  0.00    +0.206 C 
ATOM      7  C   UNL     1     -35.537  21.457   2.535  0.00  0.00    +0.078 C 
ATOM      8  C   UNL     1     -39.019  22.751   2.022  0.00  0.00    +0.208 C 
ATOM      9  C   UNL     1     -35.579  20.255   1.827  0.00  0.00    +0.174 C 
ATOM     10  C   UNL     1     -37.677  24.269   3.382  0.00  0.00    +0.304 C 
ATOM     11  C   UNL     1     -38.855  23.995   2.799  0.00  0.00    +0.120 C 
ENDROOT
BRANCH   6  12
ATOM     12  O   UNL     1     -36.784  18.689   0.489  0.00  0.00    -0.465 OA
ATOM     13  C   UNL     1     -36.396  18.734  -0.882  0.00  0.00    +0.253 C 
ENDBRANCH   6  12
BRANCH   5  14
ATOM     14  O   UNL     1     -39.014  20.259   0.589  0.00  0.00    -0.503 OA
ATOM     15  H   UNL     1     -39.040  19.409   0.195  0.00  0.00    +0.292 HD
ENDBRANCH   5  14
BRANCH   9  16
ATOM     16  O   UNL     1     -34.466  19.472   1.778  0.00  0.00    -0.503 OA
ATOM     17  H   UNL     1     -34.507  18.582   2.068  0.00  0.00    +0.292 HD
ENDBRANCH   9  16
BRANCH  10  18
ATOM     18  O   UNL     1     -37.539  25.437   4.105  0.00  0.00    -0.423 OA
BRANCH  18  19
ATOM     19  C   UNL     1     -36.265  25.853   4.366  0.00  0.00    +0.149 C 
ATOM     20  C   UNL     1     -35.574  26.606   3.420  0.00  0.00    +0.041 C 
ATOM     21  C   UNL     1     -35.663  25.521   5.578  0.00  0.00    +0.041 C 
ATOM     22  C   UNL     1     -34.272  27.031   3.689  0.00  0.00    +0.040 C 
ATOM     23  C   UNL     1     -34.362  25.946   5.845  0.00  0.00    +0.040 C 
ATOM     24  C   UNL     1     -33.666  26.701   4.901  0.00  0.00    +0.134 C 
BRANCH  24  25
ATOM     25  O   UNL     1     -32.396  27.116   5.162  0.00  0.00    -0.506 OA
ATOM     26  H   UNL     1     -31.674  26.736   4.702  0.00  0.00    +0.292 HD
ENDBRANCH  24  25
ENDBRANCH  18  19
ENDBRANCH  10  18
TORSDOF 6
ENDMDL
MODEL 4
REMARK VINA RESULT:      -6.1      3.396      8.723
REMARK  Name = 5281342
REMARK  6 active torsions:
REMARK  status: ('A' for Active; 'I' for Inactive)
REMARK    1  A    between atoms: C_5  and  O_14
REMARK    2  A    between atoms: C_6  and  O_12
REMARK    3  A    between atoms: C_9  and  O_16
REMARK    4  A    between atoms: C_10  and  O_18
REMARK    5  A    between atoms: O_18  and  C_19
REMARK    6  A    between atoms: C_24  and  O_25
REMARK                            x       y       z     vdW  Elec       q    Type
REMARK                         _______ _______ _______ _____ _____    ______ ____
ROOT
ATOM      1  O   UNL     1     -37.808  24.522   3.836  0.00  0.00    -0.423 OA
ATOM      2  O   UNL     1     -35.435  21.243   3.390  0.00  0.00    -0.286 OA
ATOM      3  C   UNL     1     -37.438  22.366   2.779  0.00  0.00    +0.111 C 
ATOM      4  C   UNL     1     -38.194  23.519   2.984  0.00  0.00    +0.158 C 
ATOM      5  C   UNL     1     -37.880  21.376   1.900  0.00  0.00    +0.177 C 
ATOM      6  C   UNL     1     -39.090  21.548   1.224  0.00  0.00    +0.206 C 
ATOM      7  C   UNL     1     -39.404  23.687   2.307  0.00  0.00    +0.078 C 
ATOM      8  C   UNL     1     -36.169  22.216   3.505  0.00  0.00    +0.208 C 
ATOM      9  C   UNL     1     -39.850  22.700   1.428  0.00  0.00    +0.174 C 
ATOM     10  C   UNL     1     -36.612  24.388   4.525  0.00  0.00    +0.304 C 
ATOM     11  C   UNL     1     -35.801  23.325   4.407  0.00  0.00    +0.120 C 
ENDROOT
BRANCH   6  12
ATOM     12  O   UNL     1     -39.533  20.588   0.362  0.00  0.00    -0.465 OA
ATOM     13  C   UNL     1     -39.145  20.718  -1.003  0.00  0.00    +0.253 C 
ENDBRANCH   6  12
BRANCH   5  14
ATOM     14  O   UNL     1     -37.166  20.237   1.673  0.00  0.00    -0.503 OA
ATOM     15  H   UNL     1     -36.394  20.267   1.143  0.00  0.00    +0.292 HD
ENDBRANCH   5  14
BRANCH   9  16
ATOM     16  O   UNL     1     -41.032  22.875   0.773  0.00  0.00    -0.503 OA
ATOM     17  H   UNL     1     -41.259  23.719   0.436  0.00  0.00    +0.292 HD
ENDBRANCH   9  16
BRANCH  10  18
ATOM     18  O   UNL     1     -36.254  25.417   5.373  0.00  0.00    -0.423 OA
BRANCH  18  19
ATOM     19  C   UNL     1     -35.157  26.150   5.024  0.00  0.00    +0.149 C 
ATOM     20  C   UNL     1     -35.121  26.799   3.791  0.00  0.00    +0.041 C 
ATOM     21  C   UNL     1     -34.079  26.246   5.901  0.00  0.00    +0.041 C 
ATOM     22  C   UNL     1     -33.999  27.549   3.436  0.00  0.00    +0.040 C 
ATOM     23  C   UNL     1     -32.958  26.995   5.544  0.00  0.00    +0.040 C 
ATOM     24  C   UNL     1     -32.919  27.647   4.312  0.00  0.00    +0.134 C 
BRANCH  24  25
ATOM     25  O   UNL     1     -31.825  28.379   3.964  0.00  0.00    -0.506 OA
ATOM     26  H   UNL     1     -31.206  28.036   3.351  0.00  0.00    +0.292 HD
ENDBRANCH  24  25
ENDBRANCH  18  19
ENDBRANCH  10  18
TORSDOF 6
ENDMDL
MODEL 5
REMARK VINA RESULT:      -6.0      6.314      8.243
REMARK  Name = 5281342
REMARK  6 active torsions:
REMARK  status: ('A' for Active; 'I' for Inactive)
REMARK    1  A    between atoms: C_5  and  O_14
REMARK    2  A    between atoms: C_6  and  O_12
REMARK    3  A    between atoms: C_9  and  O_16
REMARK    4  A    between atoms: C_10  and  O_18
REMARK    5  A    between atoms: O_18  and  C_19
REMARK    6  A    between atoms: C_24  and  O_25
REMARK                            x       y       z     vdW  Elec       q    Type
REMARK                         _______ _______ _______ _____ _____    ______ ____
ROOT
ATOM      1  O   UNL     1     -36.959  21.540   1.359  0.00  0.00    -0.423 OA
ATOM      2  O   UNL     1     -36.022  23.177   4.967  0.00  0.00    -0.286 OA
ATOM      3  C   UNL     1     -37.287  23.336   2.962  0.00  0.00    +0.111 C 
ATOM      4  C   UNL     1     -37.556  22.713   1.744  0.00  0.00    +0.158 C 
ATOM      5  C   UNL     1     -37.925  24.530   3.303  0.00  0.00    +0.177 C 
ATOM      6  C   UNL     1     -38.837  25.100   2.413  0.00  0.00    +0.206 C 
ATOM      7  C   UNL     1     -38.468  23.287   0.857  0.00  0.00    +0.078 C 
ATOM      8  C   UNL     1     -36.323  22.709   3.877  0.00  0.00    +0.208 C 
ATOM      9  C   UNL     1     -39.108  24.480   1.193  0.00  0.00    +0.174 C 
ATOM     10  C   UNL     1     -36.047  20.943   2.216  0.00  0.00    +0.304 C 
ATOM     11  C   UNL     1     -35.710  21.449   3.413  0.00  0.00    +0.120 C 
ENDROOT
BRANCH   6  12
ATOM     12  O   UNL     1     -39.467  26.267   2.734  0.00  0.00    -0.465 OA
ATOM     13  C   UNL     1     -40.787  26.164   3.262  0.00  0.00    +0.253 C 
ENDBRANCH   6  12
BRANCH   5  14
ATOM     14  O   UNL     1     -37.687  25.165   4.486  0.00  0.00    -0.503 OA
ATOM     15  H   UNL     1     -38.308  25.784   4.817  0.00  0.00    +0.292 HD
ENDBRANCH   5  14
BRANCH   9  16
ATOM     16  O   UNL     1     -39.996  25.030   0.318  0.00  0.00    -0.503 OA
ATOM     17  H   UNL     1     -39.798  25.054  -0.597  0.00  0.00    +0.292 HD
ENDBRANCH   9  16
BRANCH  10  18
ATOM     18  O   UNL     1     -35.465  19.764   1.796  0.00  0.00    -0.423 OA
BRANCH  18  19
ATOM     19  C   UNL     1     -34.220  19.854   1.242  0.00  0.00    +0.149 C 
ATOM     20  C   UNL     1     -33.868  20.985   0.509  0.00  0.00    +0.041 C 
ATOM     21  C   UNL     1     -33.309  18.815   1.413  0.00  0.00    +0.041 C 
ATOM     22  C   UNL     1     -32.595  21.077  -0.055  0.00  0.00    +0.040 C 
ATOM     23  C   UNL     1     -32.037  18.908   0.848  0.00  0.00    +0.040 C 
ATOM     24  C   UNL     1     -31.680  20.039   0.115  0.00  0.00    +0.134 C 
BRANCH  24  25
ATOM     25  O   UNL     1     -30.438  20.130  -0.436  0.00  0.00    -0.506 OA
ATOM     26  H   UNL     1     -30.277  19.781  -1.290  0.00  0.00    +0.292 HD
ENDBRANCH  24  25
ENDBRANCH  18  19
ENDBRANCH  10  18
TORSDOF 6
ENDMDL
MODEL 6
REMARK VINA RESULT:      -6.0      1.728      3.111
REMARK  Name = 5281342
REMARK  6 active torsions:
REMARK  status: ('A' for Active; 'I' for Inactive)
REMARK    1  A    between atoms: C_5  and  O_14
REMARK    2  A    between atoms: C_6  and  O_12
REMARK    3  A    between atoms: C_9  and  O_16
REMARK    4  A    between atoms: C_10  and  O_18
REMARK    5  A    between atoms: O_18  and  C_19
REMARK    6  A    between atoms: C_24  and  O_25
REMARK                            x       y       z     vdW  Elec       q    Type
REMARK                         _______ _______ _______ _____ _____    ______ ____
ROOT
ATOM      1  O   UNL     1     -34.992  27.011   4.137  0.00  0.00    -0.423 OA
ATOM      2  O   UNL     1     -31.641  27.444   6.409  0.00  0.00    -0.286 OA
ATOM      3  C   UNL     1     -32.845  28.098   4.467  0.00  0.00    +0.111 C 
ATOM      4  C   UNL     1     -34.020  27.894   3.744  0.00  0.00    +0.158 C 
ATOM      5  C   UNL     1     -31.888  29.010   4.020  0.00  0.00    +0.177 C 
ATOM      6  C   UNL     1     -32.115  29.721   2.840  0.00  0.00    +0.206 C 
ATOM      7  C   UNL     1     -34.243  28.606   2.564  0.00  0.00    +0.078 C 
ATOM      8  C   UNL     1     -32.637  27.335   5.706  0.00  0.00    +0.208 C 
ATOM      9  C   UNL     1     -33.289  29.519   2.114  0.00  0.00    +0.174 C 
ATOM     10  C   UNL     1     -34.804  26.286   5.305  0.00  0.00    +0.304 C 
ATOM     11  C   UNL     1     -33.715  26.399   6.081  0.00  0.00    +0.120 C 
ENDROOT
BRANCH   6  12
ATOM     12  O   UNL     1     -31.187  30.616   2.392  0.00  0.00    -0.465 OA
ATOM     13  C   UNL     1     -31.336  31.967   2.820  0.00  0.00    +0.253 C 
ENDBRANCH   6  12
BRANCH   5  14
ATOM     14  O   UNL     1     -30.729  29.236   4.702  0.00  0.00    -0.503 OA
ATOM     15  H   UNL     1     -30.286  28.524   5.119  0.00  0.00    +0.292 HD
ENDBRANCH   5  14
BRANCH   9  16
ATOM     16  O   UNL     1     -33.518  30.208   0.961  0.00  0.00    -0.503 OA
ATOM     17  H   UNL     1     -33.600  29.747   0.149  0.00  0.00    +0.292 HD
ENDBRANCH   9  16
BRANCH  10  18
ATOM     18  O   UNL     1     -35.803  25.406   5.669  0.00  0.00    -0.423 OA
BRANCH  18  19
ATOM     19  C   UNL     1     -35.745  24.152   5.133  0.00  0.00    +0.149 C 
ATOM     20  C   UNL     1     -35.301  23.085   5.911  0.00  0.00    +0.041 C 
ATOM     21  C   UNL     1     -36.130  23.945   3.811  0.00  0.00    +0.041 C 
ATOM     22  C   UNL     1     -35.244  21.803   5.363  0.00  0.00    +0.040 C 
ATOM     23  C   UNL     1     -36.071  22.664   3.262  0.00  0.00    +0.040 C 
ATOM     24  C   UNL     1     -35.629  21.593   4.039  0.00  0.00    +0.134 C 
BRANCH  24  25
ATOM     25  O   UNL     1     -35.572  20.342   3.504  0.00  0.00    -0.506 OA
ATOM     26  H   UNL     1     -34.833  19.792   3.675  0.00  0.00    +0.292 HD
ENDBRANCH  24  25
ENDBRANCH  18  19
ENDBRANCH  10  18
TORSDOF 6
ENDMDL
MODEL 7
REMARK VINA RESULT:      -5.9      3.920      9.399
REMARK  Name = 5281342
REMARK  6 active torsions:
REMARK  status: ('A' for Active; 'I' for Inactive)
REMARK    1  A    between atoms: C_5  and  O_14
REMARK    2  A    between atoms: C_6  and  O_12
REMARK    3  A    between atoms: C_9  and  O_16
REMARK    4  A    between atoms: C_10  and  O_18
REMARK    5  A    between atoms: O_18  and  C_19
REMARK    6  A    between atoms: C_24  and  O_25
REMARK                            x       y       z     vdW  Elec       q    Type
REMARK                         _______ _______ _______ _____ _____    ______ ____
ROOT
ATOM      1  O   UNL     1     -37.710  22.446   2.857  0.00  0.00    -0.423 OA
ATOM      2  O   UNL     1     -34.504  19.948   2.617  0.00  0.00    -0.286 OA
ATOM      3  C   UNL     1     -36.615  20.591   1.735  0.00  0.00    +0.111 C 
ATOM      4  C   UNL     1     -37.676  21.484   1.881  0.00  0.00    +0.158 C 
ATOM      5  C   UNL     1     -36.633  19.630   0.722  0.00  0.00    +0.177 C 
ATOM      6  C   UNL     1     -37.724  19.568  -0.146  0.00  0.00    +0.206 C 
ATOM      7  C   UNL     1     -38.765  21.418   1.011  0.00  0.00    +0.078 C 
ATOM      8  C   UNL     1     -35.481  20.684   2.665  0.00  0.00    +0.208 C 
ATOM      9  C   UNL     1     -38.787  20.459  -0.002  0.00  0.00    +0.174 C 
ATOM     10  C   UNL     1     -36.644  22.540   3.740  0.00  0.00    +0.304 C 
ATOM     11  C   UNL     1     -35.570  21.737   3.695  0.00  0.00    +0.120 C 
ENDROOT
BRANCH   6  12
ATOM     12  O   UNL     1     -37.753  18.633  -1.140  0.00  0.00    -0.465 OA
ATOM     13  C   UNL     1     -38.334  17.371  -0.822  0.00  0.00    +0.253 C 
ENDBRANCH   6  12
BRANCH   5  14
ATOM     14  O   UNL     1     -35.612  18.743   0.549  0.00  0.00    -0.503 OA
ATOM     15  H   UNL     1     -34.945  18.915  -0.086  0.00  0.00    +0.292 HD
ENDBRANCH   5  14
BRANCH   9  16
ATOM     16  O   UNL     1     -39.856  20.405  -0.845  0.00  0.00    -0.503 OA
ATOM     17  H   UNL     1     -39.743  20.590  -1.757  0.00  0.00    +0.292 HD
ENDBRANCH   9  16
BRANCH  10  18
ATOM     18  O   UNL     1     -36.713  23.520   4.710  0.00  0.00    -0.423 OA
BRANCH  18  19
ATOM     19  C   UNL     1     -35.917  24.616   4.535  0.00  0.00    +0.149 C 
ATOM     20  C   UNL     1     -36.116  25.449   3.436  0.00  0.00    +0.041 C 
ATOM     21  C   UNL     1     -34.911  24.895   5.456  0.00  0.00    +0.041 C 
ATOM     22  C   UNL     1     -35.302  26.569   3.259  0.00  0.00    +0.040 C 
ATOM     23  C   UNL     1     -34.098  26.014   5.278  0.00  0.00    +0.040 C 
ATOM     24  C   UNL     1     -34.294  26.852   4.180  0.00  0.00    +0.134 C 
BRANCH  24  25
ATOM     25  O   UNL     1     -33.501  27.944   4.007  0.00  0.00    -0.506 OA
ATOM     26  H   UNL     1     -32.679  27.862   3.566  0.00  0.00    +0.292 HD
ENDBRANCH  24  25
ENDBRANCH  18  19
ENDBRANCH  10  18
TORSDOF 6
ENDMDL
MODEL 8
REMARK VINA RESULT:      -5.9      5.240      8.219
REMARK  Name = 5281342
REMARK  6 active torsions:
REMARK  status: ('A' for Active; 'I' for Inactive)
REMARK    1  A    between atoms: C_5  and  O_14
REMARK    2  A    between atoms: C_6  and  O_12
REMARK    3  A    between atoms: C_9  and  O_16
REMARK    4  A    between atoms: C_10  and  O_18
REMARK    5  A    between atoms: O_18  and  C_19
REMARK    6  A    between atoms: C_24  and  O_25
REMARK                            x       y       z     vdW  Elec       q    Type
REMARK                         _______ _______ _______ _____ _____    ______ ____
ROOT
ATOM      1  O   UNL     1     -34.634  19.909   2.035  0.00  0.00    -0.423 OA
ATOM      2  O   UNL     1     -33.149  22.729  -0.498  0.00  0.00    -0.286 OA
ATOM      3  C   UNL     1     -32.930  20.552   0.427  0.00  0.00    +0.111 C 
ATOM      4  C   UNL     1     -33.500  19.639   1.313  0.00  0.00    +0.158 C 
ATOM      5  C   UNL     1     -31.773  20.223  -0.281  0.00  0.00    +0.177 C 
ATOM      6  C   UNL     1     -31.187  18.969  -0.097  0.00  0.00    +0.206 C 
ATOM      7  C   UNL     1     -32.911  18.386   1.495  0.00  0.00    +0.078 C 
ATOM      8  C   UNL     1     -33.571  21.863   0.256  0.00  0.00    +0.208 C 
ATOM      9  C   UNL     1     -31.754  18.053   0.789  0.00  0.00    +0.174 C 
ATOM     10  C   UNL     1     -35.246  21.144   1.879  0.00  0.00    +0.304 C 
ATOM     11  C   UNL     1     -34.789  22.101   1.056  0.00  0.00    +0.120 C 
ENDROOT
BRANCH   6  12
ATOM     12  O   UNL     1     -30.056  18.636  -0.784  0.00  0.00    -0.465 OA
ATOM     13  C   UNL     1     -28.811  18.923  -0.154  0.00  0.00    +0.253 C 
ENDBRANCH   6  12
BRANCH   5  14
ATOM     14  O   UNL     1     -31.190  21.091  -1.157  0.00  0.00    -0.503 OA
ATOM     15  H   UNL     1     -31.477  21.982  -1.193  0.00  0.00    +0.292 HD
ENDBRANCH   5  14
BRANCH   9  16
ATOM     16  O   UNL     1     -31.189  16.828   0.975  0.00  0.00    -0.503 OA
ATOM     17  H   UNL     1     -31.243  16.410   1.812  0.00  0.00    +0.292 HD
ENDBRANCH   9  16
BRANCH  10  18
ATOM     18  O   UNL     1     -36.385  21.382   2.621  0.00  0.00    -0.423 OA
BRANCH  18  19
ATOM     19  C   UNL     1     -36.437  22.560   3.310  0.00  0.00    +0.149 C 
ATOM     20  C   UNL     1     -35.650  22.733   4.446  0.00  0.00    +0.041 C 
ATOM     21  C   UNL     1     -37.276  23.581   2.873  0.00  0.00    +0.041 C 
ATOM     22  C   UNL     1     -35.703  23.937   5.149  0.00  0.00    +0.040 C 
ATOM     23  C   UNL     1     -37.329  24.784   3.577  0.00  0.00    +0.040 C 
ATOM     24  C   UNL     1     -36.542  24.963   4.714  0.00  0.00    +0.134 C 
BRANCH  24  25
ATOM     25  O   UNL     1     -36.593  26.137   5.400  0.00  0.00    -0.506 OA
ATOM     26  H   UNL     1     -37.413  26.462   5.714  0.00  0.00    +0.292 HD
ENDBRANCH  24  25
ENDBRANCH  18  19
ENDBRANCH  10  18
TORSDOF 6
ENDMDL
MODEL 9
REMARK VINA RESULT:      -5.9      1.808      6.988
REMARK  Name = 5281342
REMARK  6 active torsions:
REMARK  status: ('A' for Active; 'I' for Inactive)
REMARK    1  A    between atoms: C_5  and  O_14
REMARK    2  A    between atoms: C_6  and  O_12
REMARK    3  A    between atoms: C_9  and  O_16
REMARK    4  A    between atoms: C_10  and  O_18
REMARK    5  A    between atoms: O_18  and  C_19
REMARK    6  A    between atoms: C_24  and  O_25
REMARK                            x       y       z     vdW  Elec       q    Type
REMARK                         _______ _______ _______ _____ _____    ______ ____
ROOT
ATOM      1  O   UNL     1     -32.910  26.707   3.990  0.00  0.00    -0.423 OA
ATOM      2  O   UNL     1     -35.822  28.672   1.932  0.00  0.00    -0.286 OA
ATOM      3  C   UNL     1     -35.236  26.820   3.300  0.00  0.00    +0.111 C 
ATOM      4  C   UNL     1     -34.186  26.206   3.981  0.00  0.00    +0.158 C 
ATOM      5  C   UNL     1     -36.517  26.264   3.326  0.00  0.00    +0.177 C 
ATOM      6  C   UNL     1     -36.741  25.086   4.040  0.00  0.00    +0.206 C 
ATOM      7  C   UNL     1     -34.413  25.028   4.694  0.00  0.00    +0.078 C 
ATOM      8  C   UNL     1     -34.967  28.060   2.558  0.00  0.00    +0.208 C 
ATOM      9  C   UNL     1     -35.692  24.469   4.722  0.00  0.00    +0.174 C 
ATOM     10  C   UNL     1     -32.647  27.877   3.292  0.00  0.00    +0.304 C 
ATOM     11  C   UNL     1     -33.578  28.554   2.601  0.00  0.00    +0.120 C 
ENDROOT
BRANCH   6  12
ATOM     12  O   UNL     1     -37.988  24.533   4.073  0.00  0.00    -0.465 OA
ATOM     13  C   UNL     1     -38.369  23.735   2.955  0.00  0.00    +0.253 C 
ENDBRANCH   6  12
BRANCH   5  14
ATOM     14  O   UNL     1     -37.567  26.838   2.673  0.00  0.00    -0.503 OA
ATOM     15  H   UNL     1     -37.420  27.320   1.883  0.00  0.00    +0.292 HD
ENDBRANCH   5  14
BRANCH   9  16
ATOM     16  O   UNL     1     -35.901  23.319   5.422  0.00  0.00    -0.503 OA
ATOM     17  H   UNL     1     -35.502  22.520   5.139  0.00  0.00    +0.292 HD
ENDBRANCH   9  16
BRANCH  10  18
ATOM     18  O   UNL     1     -31.352  28.353   3.322  0.00  0.00    -0.423 OA
BRANCH  18  19
ATOM     19  C   UNL     1     -30.819  28.612   4.553  0.00  0.00    +0.149 C 
ATOM     20  C   UNL     1     -29.518  28.208   4.844  0.00  0.00    +0.041 C 
ATOM     21  C   UNL     1     -31.580  29.278   5.510  0.00  0.00    +0.041 C 
ATOM     22  C   UNL     1     -28.975  28.475   6.101  0.00  0.00    +0.040 C 
ATOM     23  C   UNL     1     -31.036  29.544   6.767  0.00  0.00    +0.040 C 
ATOM     24  C   UNL     1     -29.734  29.142   7.062  0.00  0.00    +0.134 C 
BRANCH  24  25
ATOM     25  O   UNL     1     -29.203  29.402   8.289  0.00  0.00    -0.506 OA
ATOM     26  H   UNL     1     -28.990  28.696   8.867  0.00  0.00    +0.292 HD
ENDBRANCH  24  25
ENDBRANCH  18  19
ENDBRANCH  10  18
TORSDOF 6
ENDMDL
