MODEL 1
REMARK VINA RESULT:      -5.2      0.000      0.000
REMARK  Name = 5358592
REMARK  7 active torsions:
REMARK  status: ('A' for Active; 'I' for Inactive)
REMARK    1  A    between atoms: N_1  and  C_13
REMARK    2  A    between atoms: C_13  and  C_15
REMARK    3  A    between atoms: C_13  and  O_16
REMARK    4  A    between atoms: O_16  and  C_17
REMARK    5  A    between atoms: C_17  and  C_19
REMARK    6  A    between atoms: C_17  and  C_20
REMARK    7  A    between atoms: C_20  and  O_21
REMARK                            x       y       z     vdW  Elec       q    Type
REMARK                         _______ _______ _______ _____ _____    ______ ____
ROOT
ATOM      1  N   UNL     1     -37.968  23.181   2.721  0.00  0.00    -0.243 N 
ATOM      2  N   UNL     1     -38.056  25.377   3.093  0.00  0.00    -0.242 NA
ATOM      3  N   UNL     1     -36.277  22.550   4.348  0.00  0.00    -0.228 NA
ATOM      4  N   UNL     1     -35.478  24.491   5.592  0.00  0.00    -0.229 NA
ATOM      5  C   UNL     1     -37.065  23.432   3.714  0.00  0.00    +0.153 C 
ATOM      6  C   UNL     1     -37.135  24.800   3.930  0.00  0.00    +0.140 C 
ATOM      7  C   UNL     1     -38.536  24.380   2.380  0.00  0.00    +0.223 C 
ATOM      8  C   UNL     1     -36.300  25.324   4.912  0.00  0.00    +0.143 C 
ATOM      9  C   UNL     1     -35.517  23.174   5.273  0.00  0.00    +0.253 C 
ATOM     10  N   UNL     1     -36.307  26.700   5.199  0.00  0.00    -0.342 N 
ATOM     11  H   UNL     1     -35.712  27.062   5.896  0.00  0.00    +0.144 HD
ATOM     12  H   UNL     1     -36.906  27.304   4.702  0.00  0.00    +0.144 HD
ENDROOT
BRANCH   1  13
ATOM     13  C   UNL     1     -38.272  21.899   2.133  0.00  0.00    +0.262 C 
BRANCH  13  15
ATOM     14  O   UNL     1     -40.448  21.036   1.493  0.00  0.00    -0.284 OA
ATOM     15  C   UNL     1     -39.621  21.939   1.442  0.00  0.00    +0.258 C 
ENDBRANCH  13  15
BRANCH  13  16
ATOM     16  O   UNL     1     -37.222  21.579   1.236  0.00  0.00    -0.323 OA
BRANCH  16  17
ATOM     17  C   UNL     1     -36.737  20.254   1.404  0.00  0.00    +0.211 C 
BRANCH  17  19
ATOM     18  O   UNL     1     -38.107  19.162  -0.275  0.00  0.00    -0.286 OA
ATOM     19  C   UNL     1     -36.991  19.467   0.135  0.00  0.00    +0.239 C 
ENDBRANCH  17  19
BRANCH  17  20
ATOM     20  C   UNL     1     -35.246  20.309   1.701  0.00  0.00    +0.175 C 
BRANCH  20  21
ATOM     21  O   UNL     1     -35.035  20.265   3.105  0.00  0.00    -0.379 OA
ATOM     22  H   UNL     1     -35.363  21.086   3.506  0.00  0.00    +0.211 HD
ENDBRANCH  20  21
ENDBRANCH  17  20
ENDBRANCH  16  17
ENDBRANCH  13  16
ENDBRANCH   1  13
TORSDOF 7
ENDMDL
MODEL 2
REMARK VINA RESULT:      -5.2      3.302      5.786
REMARK  Name = 5358592
REMARK  7 active torsions:
REMARK  status: ('A' for Active; 'I' for Inactive)
REMARK    1  A    between atoms: N_1  and  C_13
REMARK    2  A    between atoms: C_13  and  C_15
REMARK    3  A    between atoms: C_13  and  O_16
REMARK    4  A    between atoms: O_16  and  C_17
REMARK    5  A    between atoms: C_17  and  C_19
REMARK    6  A    between atoms: C_17  and  C_20
REMARK    7  A    between atoms: C_20  and  O_21
REMARK                            x       y       z     vdW  Elec       q    Type
REMARK                         _______ _______ _______ _____ _____    ______ ____
ROOT
ATOM      1  N   UNL     1     -36.188  22.964   3.883  0.00  0.00    -0.243 N 
ATOM      2  N   UNL     1     -36.502  21.695   2.078  0.00  0.00    -0.242 NA
ATOM      3  N   UNL     1     -38.161  24.375   3.750  0.00  0.00    -0.228 NA
ATOM      4  N   UNL     1     -39.529  23.805   1.811  0.00  0.00    -0.229 NA
ATOM      5  C   UNL     1     -37.355  23.393   3.319  0.00  0.00    +0.153 C 
ATOM      6  C   UNL     1     -37.533  22.593   2.201  0.00  0.00    +0.140 C 
ATOM      7  C   UNL     1     -35.712  21.945   3.101  0.00  0.00    +0.223 C 
ATOM      8  C   UNL     1     -38.671  22.827   1.435  0.00  0.00    +0.143 C 
ATOM      9  C   UNL     1     -39.226  24.508   2.930  0.00  0.00    +0.253 C 
ATOM     10  N   UNL     1     -38.931  22.063   0.285  0.00  0.00    -0.342 N 
ATOM     11  H   UNL     1     -39.739  22.237  -0.251  0.00  0.00    +0.144 HD
ATOM     12  H   UNL     1     -38.305  21.353   0.014  0.00  0.00    +0.144 HD
ENDROOT
BRANCH   1  13
ATOM     13  C   UNL     1     -35.562  23.481   5.076  0.00  0.00    +0.262 C 
BRANCH  13  15
ATOM     14  O   UNL     1     -35.937  21.765   6.750  0.00  0.00    -0.284 OA
ATOM     15  C   UNL     1     -35.163  22.347   5.999  0.00  0.00    +0.258 C 
ENDBRANCH  13  15
BRANCH  13  16
ATOM     16  O   UNL     1     -34.448  24.260   4.673  0.00  0.00    -0.323 OA
BRANCH  16  17
ATOM     17  C   UNL     1     -34.512  25.599   5.144  0.00  0.00    +0.211 C 
BRANCH  17  19
ATOM     18  O   UNL     1     -34.297  27.750   4.041  0.00  0.00    -0.286 OA
ATOM     19  C   UNL     1     -34.503  26.543   3.959  0.00  0.00    +0.239 C 
ENDBRANCH  17  19
BRANCH  17  20
ATOM     20  C   UNL     1     -35.789  25.777   5.951  0.00  0.00    +0.175 C 
BRANCH  20  21
ATOM     21  O   UNL     1     -36.685  26.625   5.250  0.00  0.00    -0.379 OA
ATOM     22  H   UNL     1     -36.366  27.540   5.295  0.00  0.00    +0.211 HD
ENDBRANCH  20  21
ENDBRANCH  17  20
ENDBRANCH  16  17
ENDBRANCH  13  16
ENDBRANCH   1  13
TORSDOF 7
ENDMDL
MODEL 3
REMARK VINA RESULT:      -5.2      2.919      5.312
REMARK  Name = 5358592
REMARK  7 active torsions:
REMARK  status: ('A' for Active; 'I' for Inactive)
REMARK    1  A    between atoms: N_1  and  C_13
REMARK    2  A    between atoms: C_13  and  C_15
REMARK    3  A    between atoms: C_13  and  O_16
REMARK    4  A    between atoms: O_16  and  C_17
REMARK    5  A    between atoms: C_17  and  C_19
REMARK    6  A    between atoms: C_17  and  C_20
REMARK    7  A    between atoms: C_20  and  O_21
REMARK                            x       y       z     vdW  Elec       q    Type
REMARK                         _______ _______ _______ _____ _____    ______ ____
ROOT
ATOM      1  N   UNL     1     -37.653  23.029   2.534  0.00  0.00    -0.243 N 
ATOM      2  N   UNL     1     -38.758  21.288   1.688  0.00  0.00    -0.242 NA
ATOM      3  N   UNL     1     -35.374  22.209   2.343  0.00  0.00    -0.228 NA
ATOM      4  N   UNL     1     -35.316  19.973   1.367  0.00  0.00    -0.229 NA
ATOM      5  C   UNL     1     -36.703  22.106   2.199  0.00  0.00    +0.153 C 
ATOM      6  C   UNL     1     -37.409  21.034   1.677  0.00  0.00    +0.140 C 
ATOM      7  C   UNL     1     -38.870  22.492   2.209  0.00  0.00    +0.223 C 
ATOM      8  C   UNL     1     -36.665  19.938   1.251  0.00  0.00    +0.143 C 
ATOM      9  C   UNL     1     -34.762  21.091   1.898  0.00  0.00    +0.253 C 
ATOM     10  N   UNL     1     -37.298  18.808   0.706  0.00  0.00    -0.342 N 
ATOM     11  H   UNL     1     -36.762  18.038   0.408  0.00  0.00    +0.144 HD
ATOM     12  H   UNL     1     -38.279  18.785   0.624  0.00  0.00    +0.144 HD
ENDROOT
BRANCH   1  13
ATOM     13  C   UNL     1     -37.427  24.329   3.119  0.00  0.00    +0.262 C 
BRANCH  13  15
ATOM     14  O   UNL     1     -38.501  26.448   2.627  0.00  0.00    -0.284 OA
ATOM     15  C   UNL     1     -38.602  25.246   2.845  0.00  0.00    +0.258 C 
ENDBRANCH  13  15
BRANCH  13  16
ATOM     16  O   UNL     1     -37.208  24.140   4.508  0.00  0.00    -0.323 OA
BRANCH  16  17
ATOM     17  C   UNL     1     -35.868  24.409   4.897  0.00  0.00    +0.211 C 
BRANCH  17  19
ATOM     18  O   UNL     1     -35.477  26.800   5.026  0.00  0.00    -0.286 OA
ATOM     19  C   UNL     1     -35.812  25.759   5.582  0.00  0.00    +0.239 C 
ENDBRANCH  17  19
BRANCH  17  20
ATOM     20  C   UNL     1     -35.403  23.316   5.847  0.00  0.00    +0.175 C 
BRANCH  20  21
ATOM     21  O   UNL     1     -36.066  22.098   5.538  0.00  0.00    -0.379 OA
ATOM     22  H   UNL     1     -35.407  21.418   5.326  0.00  0.00    +0.211 HD
ENDBRANCH  20  21
ENDBRANCH  17  20
ENDBRANCH  16  17
ENDBRANCH  13  16
ENDBRANCH   1  13
TORSDOF 7
ENDMDL
MODEL 4
REMARK VINA RESULT:      -5.2      2.501      4.068
REMARK  Name = 5358592
REMARK  7 active torsions:
REMARK  status: ('A' for Active; 'I' for Inactive)
REMARK    1  A    between atoms: N_1  and  C_13
REMARK    2  A    between atoms: C_13  and  C_15
REMARK    3  A    between atoms: C_13  and  O_16
REMARK    4  A    between atoms: O_16  and  C_17
REMARK    5  A    between atoms: C_17  and  C_19
REMARK    6  A    between atoms: C_17  and  C_20
REMARK    7  A    between atoms: C_20  and  O_21
REMARK                            x       y       z     vdW  Elec       q    Type
REMARK                         _______ _______ _______ _____ _____    ______ ____
ROOT
ATOM      1  N   UNL     1     -35.318  24.526   4.452  0.00  0.00    -0.243 N 
ATOM      2  N   UNL     1     -35.519  26.634   5.147  0.00  0.00    -0.242 NA
ATOM      3  N   UNL     1     -34.048  24.879   2.411  0.00  0.00    -0.228 NA
ATOM      4  N   UNL     1     -33.585  27.248   2.055  0.00  0.00    -0.229 NA
ATOM      5  C   UNL     1     -34.676  25.293   3.522  0.00  0.00    +0.153 C 
ATOM      6  C   UNL     1     -34.812  26.597   3.971  0.00  0.00    +0.140 C 
ATOM      7  C   UNL     1     -35.808  25.376   5.407  0.00  0.00    +0.223 C 
ATOM      8  C   UNL     1     -34.235  27.594   3.191  0.00  0.00    +0.143 C 
ATOM      9  C   UNL     1     -33.531  25.931   1.740  0.00  0.00    +0.253 C 
ATOM     10  N   UNL     1     -34.323  28.944   3.572  0.00  0.00    -0.342 N 
ATOM     11  H   UNL     1     -33.912  29.642   3.012  0.00  0.00    +0.144 HD
ATOM     12  H   UNL     1     -34.797  29.192   4.399  0.00  0.00    +0.144 HD
ENDROOT
BRANCH   1  13
ATOM     13  C   UNL     1     -35.459  23.090   4.440  0.00  0.00    +0.262 C 
BRANCH  13  15
ATOM     14  O   UNL     1     -35.975  22.012   6.552  0.00  0.00    -0.284 OA
ATOM     15  C   UNL     1     -35.142  22.514   5.806  0.00  0.00    +0.258 C 
ENDBRANCH  13  15
BRANCH  13  16
ATOM     16  O   UNL     1     -36.784  22.794   4.030  0.00  0.00    -0.323 OA
BRANCH  16  17
ATOM     17  C   UNL     1     -36.889  22.550   2.634  0.00  0.00    +0.211 C 
BRANCH  17  19
ATOM     18  O   UNL     1     -35.939  20.333   2.897  0.00  0.00    -0.286 OA
ATOM     19  C   UNL     1     -35.995  21.384   2.266  0.00  0.00    +0.239 C 
ENDBRANCH  17  19
BRANCH  17  20
ATOM     20  C   UNL     1     -38.338  22.232   2.297  0.00  0.00    +0.175 C 
BRANCH  20  21
ATOM     21  O   UNL     1     -38.513  20.825   2.217  0.00  0.00    -0.379 OA
ATOM     22  H   UNL     1     -39.247  20.625   1.614  0.00  0.00    +0.211 HD
ENDBRANCH  20  21
ENDBRANCH  17  20
ENDBRANCH  16  17
ENDBRANCH  13  16
ENDBRANCH   1  13
TORSDOF 7
ENDMDL
MODEL 5
REMARK VINA RESULT:      -5.0      2.148      4.102
REMARK  Name = 5358592
REMARK  7 active torsions:
REMARK  status: ('A' for Active; 'I' for Inactive)
REMARK    1  A    between atoms: N_1  and  C_13
REMARK    2  A    between atoms: C_13  and  C_15
REMARK    3  A    between atoms: C_13  and  O_16
REMARK    4  A    between atoms: O_16  and  C_17
REMARK    5  A    between atoms: C_17  and  C_19
REMARK    6  A    between atoms: C_17  and  C_20
REMARK    7  A    between atoms: C_20  and  O_21
REMARK                            x       y       z     vdW  Elec       q    Type
REMARK                         _______ _______ _______ _____ _____    ______ ____
ROOT
ATOM      1  N   UNL     1     -36.018  23.706   3.809  0.00  0.00    -0.243 N 
ATOM      2  N   UNL     1     -34.817  23.965   5.669  0.00  0.00    -0.242 NA
ATOM      3  N   UNL     1     -35.806  25.932   2.861  0.00  0.00    -0.228 NA
ATOM      4  N   UNL     1     -34.450  27.377   4.286  0.00  0.00    -0.229 NA
ATOM      5  C   UNL     1     -35.575  24.997   3.794  0.00  0.00    +0.153 C 
ATOM      6  C   UNL     1     -34.832  25.139   4.956  0.00  0.00    +0.140 C 
ATOM      7  C   UNL     1     -35.538  23.127   4.954  0.00  0.00    +0.223 C 
ATOM      8  C   UNL     1     -34.258  26.385   5.188  0.00  0.00    +0.143 C 
ATOM      9  C   UNL     1     -35.201  27.093   3.194  0.00  0.00    +0.253 C 
ATOM     10  N   UNL     1     -33.487  26.617   6.340  0.00  0.00    -0.342 N 
ATOM     11  H   UNL     1     -33.086  27.502   6.495  0.00  0.00    +0.144 HD
ATOM     12  H   UNL     1     -33.350  25.893   6.994  0.00  0.00    +0.144 HD
ENDROOT
BRANCH   1  13
ATOM     13  C   UNL     1     -36.837  23.061   2.811  0.00  0.00    +0.262 C 
BRANCH  13  15
ATOM     14  O   UNL     1     -35.377  21.281   2.046  0.00  0.00    -0.284 OA
ATOM     15  C   UNL     1     -36.406  21.621   2.620  0.00  0.00    +0.258 C 
ENDBRANCH  13  15
BRANCH  13  16
ATOM     16  O   UNL     1     -38.187  23.163   3.235  0.00  0.00    -0.323 OA
BRANCH  16  17
ATOM     17  C   UNL     1     -38.955  24.042   2.424  0.00  0.00    +0.211 C 
BRANCH  17  19
ATOM     18  O   UNL     1     -40.238  22.056   1.876  0.00  0.00    -0.286 OA
ATOM     19  C   UNL     1     -39.986  23.238   1.660  0.00  0.00    +0.239 C 
ENDBRANCH  17  19
BRANCH  17  20
ATOM     20  C   UNL     1     -39.640  25.064   3.318  0.00  0.00    +0.175 C 
BRANCH  20  21
ATOM     21  O   UNL     1     -38.861  26.250   3.375  0.00  0.00    -0.379 OA
ATOM     22  H   UNL     1     -38.826  26.570   4.290  0.00  0.00    +0.211 HD
ENDBRANCH  20  21
ENDBRANCH  17  20
ENDBRANCH  16  17
ENDBRANCH  13  16
ENDBRANCH   1  13
TORSDOF 7
ENDMDL
MODEL 6
REMARK VINA RESULT:      -5.0      2.727      4.314
REMARK  Name = 5358592
REMARK  7 active torsions:
REMARK  status: ('A' for Active; 'I' for Inactive)
REMARK    1  A    between atoms: N_1  and  C_13
REMARK    2  A    between atoms: C_13  and  C_15
REMARK    3  A    between atoms: C_13  and  O_16
REMARK    4  A    between atoms: O_16  and  C_17
REMARK    5  A    between atoms: C_17  and  C_19
REMARK    6  A    between atoms: C_17  and  C_20
REMARK    7  A    between atoms: C_20  and  O_21
REMARK                            x       y       z     vdW  Elec       q    Type
REMARK                         _______ _______ _______ _____ _____    ______ ____
ROOT
ATOM      1  N   UNL     1     -35.360  24.526   4.415  0.00  0.00    -0.243 N 
ATOM      2  N   UNL     1     -35.247  26.584   5.263  0.00  0.00    -0.242 NA
ATOM      3  N   UNL     1     -34.061  24.839   2.386  0.00  0.00    -0.228 NA
ATOM      4  N   UNL     1     -33.257  27.135   2.194  0.00  0.00    -0.229 NA
ATOM      5  C   UNL     1     -34.617  25.257   3.533  0.00  0.00    +0.153 C 
ATOM      6  C   UNL     1     -34.558  26.530   4.077  0.00  0.00    +0.140 C 
ATOM      7  C   UNL     1     -35.717  25.366   5.436  0.00  0.00    +0.223 C 
ATOM      8  C   UNL     1     -33.845  27.487   3.362  0.00  0.00    +0.143 C 
ATOM      9  C   UNL     1     -33.399  25.850   1.784  0.00  0.00    +0.253 C 
ATOM     10  N   UNL     1     -33.732  28.804   3.841  0.00  0.00    -0.342 N 
ATOM     11  H   UNL     1     -33.225  29.474   3.327  0.00  0.00    +0.144 HD
ATOM     12  H   UNL     1     -34.161  29.057   4.690  0.00  0.00    +0.144 HD
ENDROOT
BRANCH   1  13
ATOM     13  C   UNL     1     -35.711  23.130   4.301  0.00  0.00    +0.262 C 
BRANCH  13  15
ATOM     14  O   UNL     1     -35.992  22.041   6.451  0.00  0.00    -0.284 OA
ATOM     15  C   UNL     1     -35.254  22.367   5.528  0.00  0.00    +0.258 C 
ENDBRANCH  13  15
BRANCH  13  16
ATOM     16  O   UNL     1     -37.115  23.056   4.119  0.00  0.00    -0.323 OA
BRANCH  16  17
ATOM     17  C   UNL     1     -37.509  23.274   2.770  0.00  0.00    +0.211 C 
BRANCH  17  19
ATOM     18  O   UNL     1     -38.973  21.445   2.139  0.00  0.00    -0.286 OA
ATOM     19  C   UNL     1     -37.852  21.944   2.133  0.00  0.00    +0.239 C 
ENDBRANCH  17  19
BRANCH  17  20
ATOM     20  C   UNL     1     -38.719  24.195   2.754  0.00  0.00    +0.175 C 
BRANCH  20  21
ATOM     21  O   UNL     1     -38.824  24.871   3.998  0.00  0.00    -0.379 OA
ATOM     22  H   UNL     1     -38.113  24.573   4.588  0.00  0.00    +0.211 HD
ENDBRANCH  20  21
ENDBRANCH  17  20
ENDBRANCH  16  17
ENDBRANCH  13  16
ENDBRANCH   1  13
TORSDOF 7
ENDMDL
MODEL 7
REMARK VINA RESULT:      -4.9      3.501      4.927
REMARK  Name = 5358592
REMARK  7 active torsions:
REMARK  status: ('A' for Active; 'I' for Inactive)
REMARK    1  A    between atoms: N_1  and  C_13
REMARK    2  A    between atoms: C_13  and  C_15
REMARK    3  A    between atoms: C_13  and  O_16
REMARK    4  A    between atoms: O_16  and  C_17
REMARK    5  A    between atoms: C_17  and  C_19
REMARK    6  A    between atoms: C_17  and  C_20
REMARK    7  A    between atoms: C_20  and  O_21
REMARK                            x       y       z     vdW  Elec       q    Type
REMARK                         _______ _______ _______ _____ _____    ______ ____
ROOT
ATOM      1  N   UNL     1     -34.559  26.333   3.762  0.00  0.00    -0.243 N 
ATOM      2  N   UNL     1     -33.148  27.819   2.887  0.00  0.00    -0.242 NA
ATOM      3  N   UNL     1     -33.812  26.358   6.074  0.00  0.00    -0.228 NA
ATOM      4  N   UNL     1     -31.956  27.912   6.388  0.00  0.00    -0.229 NA
ATOM      5  C   UNL     1     -33.766  26.751   4.792  0.00  0.00    +0.153 C 
ATOM      6  C   UNL     1     -32.897  27.672   4.229  0.00  0.00    +0.140 C 
ATOM      7  C   UNL     1     -34.149  27.001   2.639  0.00  0.00    +0.223 C 
ATOM      8  C   UNL     1     -31.967  28.262   5.080  0.00  0.00    +0.143 C 
ATOM      9  C   UNL     1     -32.867  26.995   6.798  0.00  0.00    +0.253 C 
ATOM     10  N   UNL     1     -31.049  29.208   4.594  0.00  0.00    -0.342 N 
ATOM     11  H   UNL     1     -30.394  29.619   5.204  0.00  0.00    +0.144 HD
ATOM     12  H   UNL     1     -31.059  29.460   3.642  0.00  0.00    +0.144 HD
ENDROOT
BRANCH   1  13
ATOM     13  C   UNL     1     -35.631  25.368   3.833  0.00  0.00    +0.262 C 
BRANCH  13  15
ATOM     14  O   UNL     1     -37.749  26.158   2.952  0.00  0.00    -0.284 OA
ATOM     15  C   UNL     1     -36.658  25.636   2.751  0.00  0.00    +0.258 C 
ENDBRANCH  13  15
BRANCH  13  16
ATOM     16  O   UNL     1     -35.054  24.078   3.713  0.00  0.00    -0.323 OA
BRANCH  16  17
ATOM     17  C   UNL     1     -35.831  23.066   4.339  0.00  0.00    +0.211 C 
BRANCH  17  19
ATOM     18  O   UNL     1     -35.266  20.758   3.850  0.00  0.00    -0.286 OA
ATOM     19  C   UNL     1     -35.785  21.811   3.493  0.00  0.00    +0.239 C 
ENDBRANCH  17  19
BRANCH  17  20
ATOM     20  C   UNL     1     -35.259  22.792   5.722  0.00  0.00    +0.175 C 
BRANCH  20  21
ATOM     21  O   UNL     1     -36.097  21.879   6.415  0.00  0.00    -0.379 OA
ATOM     22  H   UNL     1     -36.624  22.359   7.073  0.00  0.00    +0.211 HD
ENDBRANCH  20  21
ENDBRANCH  17  20
ENDBRANCH  16  17
ENDBRANCH  13  16
ENDBRANCH   1  13
TORSDOF 7
ENDMDL
MODEL 8
REMARK VINA RESULT:      -4.8      3.070      4.517
REMARK  Name = 5358592
REMARK  7 active torsions:
REMARK  status: ('A' for Active; 'I' for Inactive)
REMARK    1  A    between atoms: N_1  and  C_13
REMARK    2  A    between atoms: C_13  and  C_15
REMARK    3  A    between atoms: C_13  and  O_16
REMARK    4  A    between atoms: O_16  and  C_17
REMARK    5  A    between atoms: C_17  and  C_19
REMARK    6  A    between atoms: C_17  and  C_20
REMARK    7  A    between atoms: C_20  and  O_21
REMARK                            x       y       z     vdW  Elec       q    Type
REMARK                         _______ _______ _______ _____ _____    ______ ____
ROOT
ATOM      1  N   UNL     1     -34.932  25.516   4.711  0.00  0.00    -0.243 N 
ATOM      2  N   UNL     1     -33.411  26.792   5.725  0.00  0.00    -0.242 NA
ATOM      3  N   UNL     1     -34.612  26.233   2.411  0.00  0.00    -0.228 NA
ATOM      4  N   UNL     1     -32.869  27.933   2.248  0.00  0.00    -0.229 NA
ATOM      5  C   UNL     1     -34.343  26.256   3.725  0.00  0.00    +0.153 C 
ATOM      6  C   UNL     1     -33.403  27.041   4.375  0.00  0.00    +0.140 C 
ATOM      7  C   UNL     1     -34.340  25.874   5.893  0.00  0.00    +0.223 C 
ATOM      8  C   UNL     1     -32.650  27.903   3.584  0.00  0.00    +0.143 C 
ATOM      9  C   UNL     1     -33.822  27.107   1.751  0.00  0.00    +0.253 C 
ATOM     10  N   UNL     1     -31.673  28.734   4.158  0.00  0.00    -0.342 N 
ATOM     11  H   UNL     1     -31.145  29.341   3.590  0.00  0.00    +0.144 HD
ATOM     12  H   UNL     1     -31.516  28.711   5.130  0.00  0.00    +0.144 HD
ENDROOT
BRANCH   1  13
ATOM     13  C   UNL     1     -35.981  24.539   4.548  0.00  0.00    +0.262 C 
BRANCH  13  15
ATOM     14  O   UNL     1     -38.318  24.626   3.900  0.00  0.00    -0.284 OA
ATOM     15  C   UNL     1     -37.235  25.192   4.002  0.00  0.00    +0.258 C 
ENDBRANCH  13  15
BRANCH  13  16
ATOM     16  O   UNL     1     -35.490  23.523   3.689  0.00  0.00    -0.323 OA
BRANCH  16  17
ATOM     17  C   UNL     1     -35.858  22.217   4.112  0.00  0.00    +0.211 C 
BRANCH  17  19
ATOM     18  O   UNL     1     -35.956  20.209   2.754  0.00  0.00    -0.286 OA
ATOM     19  C   UNL     1     -35.338  21.207   3.111  0.00  0.00    +0.239 C 
ENDBRANCH  17  19
BRANCH  17  20
ATOM     20  C   UNL     1     -35.257  21.958   5.485  0.00  0.00    +0.175 C 
BRANCH  20  21
ATOM     21  O   UNL     1     -35.304  20.568   5.774  0.00  0.00    -0.379 OA
ATOM     22  H   UNL     1     -34.492  20.144   5.454  0.00  0.00    +0.211 HD
ENDBRANCH  20  21
ENDBRANCH  17  20
ENDBRANCH  16  17
ENDBRANCH  13  16
ENDBRANCH   1  13
TORSDOF 7
ENDMDL
MODEL 9
REMARK VINA RESULT:      -4.7      1.903      3.673
REMARK  Name = 5358592
REMARK  7 active torsions:
REMARK  status: ('A' for Active; 'I' for Inactive)
REMARK    1  A    between atoms: N_1  and  C_13
REMARK    2  A    between atoms: C_13  and  C_15
REMARK    3  A    between atoms: C_13  and  O_16
REMARK    4  A    between atoms: O_16  and  C_17
REMARK    5  A    between atoms: C_17  and  C_19
REMARK    6  A    between atoms: C_17  and  C_20
REMARK    7  A    between atoms: C_20  and  O_21
REMARK                            x       y       z     vdW  Elec       q    Type
REMARK                         _______ _______ _______ _____ _____    ______ ____
ROOT
ATOM      1  N   UNL     1     -36.408  22.000   1.932  0.00  0.00    -0.243 N 
ATOM      2  N   UNL     1     -35.388  20.601   3.335  0.00  0.00    -0.242 NA
ATOM      3  N   UNL     1     -36.675  23.928   3.386  0.00  0.00    -0.228 NA
ATOM      4  N   UNL     1     -35.759  23.497   5.606  0.00  0.00    -0.229 NA
ATOM      5  C   UNL     1     -36.277  22.677   3.110  0.00  0.00    +0.153 C 
ATOM      6  C   UNL     1     -35.642  21.792   3.968  0.00  0.00    +0.140 C 
ATOM      7  C   UNL     1     -35.861  20.758   2.116  0.00  0.00    +0.223 C 
ATOM      8  C   UNL     1     -35.384  22.243   5.258  0.00  0.00    +0.143 C 
ATOM      9  C   UNL     1     -36.372  24.251   4.661  0.00  0.00    +0.253 C 
ATOM     10  N   UNL     1     -34.742  21.412   6.194  0.00  0.00    -0.342 N 
ATOM     11  H   UNL     1     -34.565  21.741   7.105  0.00  0.00    +0.144 HD
ATOM     12  H   UNL     1     -34.471  20.501   5.938  0.00  0.00    +0.144 HD
ENDROOT
BRANCH   1  13
ATOM     13  C   UNL     1     -37.008  22.491   0.714  0.00  0.00    +0.262 C 
BRANCH  13  15
ATOM     14  O   UNL     1     -34.844  23.272  -0.055  0.00  0.00    -0.284 OA
ATOM     15  C   UNL     1     -35.941  22.794  -0.319  0.00  0.00    +0.258 C 
ENDBRANCH  13  15
BRANCH  13  16
ATOM     16  O   UNL     1     -37.926  21.508   0.263  0.00  0.00    -0.323 OA
BRANCH  16  17
ATOM     17  C   UNL     1     -39.260  21.991   0.191  0.00  0.00    +0.211 C 
BRANCH  17  19
ATOM     18  O   UNL     1     -39.943  19.754  -0.454  0.00  0.00    -0.286 OA
ATOM     19  C   UNL     1     -40.121  20.966  -0.518  0.00  0.00    +0.239 C 
ENDBRANCH  17  19
BRANCH  17  20
ATOM     20  C   UNL     1     -39.775  22.228   1.602  0.00  0.00    +0.175 C 
BRANCH  20  21
ATOM     21  O   UNL     1     -40.166  20.993   2.183  0.00  0.00    -0.379 OA
ATOM     22  H   UNL     1     -39.847  20.261   1.631  0.00  0.00    +0.211 HD
ENDBRANCH  20  21
ENDBRANCH  17  20
ENDBRANCH  16  17
ENDBRANCH  13  16
ENDBRANCH   1  13
TORSDOF 7
ENDMDL
