MODEL 1
REMARK VINA RESULT:      -6.3      0.000      0.000
REMARK  Name = 57347755
REMARK  6 active torsions:
REMARK  status: ('A' for Active; 'I' for Inactive)
REMARK    1  A    between atoms: C_1  and  C_9
REMARK    2  A    between atoms: C_3  and  O_19
REMARK    3  A    between atoms: C_5  and  O_7
REMARK    4  A    between atoms: C_10  and  C_11
REMARK    5  A    between atoms: C_16  and  O_17
REMARK    6  A    between atoms: O_19  and  S_20
REMARK                            x       y       z     vdW  Elec       q    Type
REMARK                         _______ _______ _______ _____ _____    ______ ____
ROOT
ATOM      1  C   UNL     1     -34.579  19.668   1.155  0.00  0.00    +0.006 C 
ATOM      2  C   UNL     1     -35.409  19.014   0.243  0.00  0.00    +0.040 C 
ATOM      3  C   UNL     1     -35.019  17.792  -0.304  0.00  0.00    +0.179 C 
ATOM      4  C   UNL     1     -33.359  19.097   1.518  0.00  0.00    +0.037 C 
ATOM      5  C   UNL     1     -32.968  17.876   0.970  0.00  0.00    +0.137 C 
ATOM      6  C   UNL     1     -33.799  17.223   0.058  0.00  0.00    +0.076 C 
ENDROOT
BRANCH   5   7
ATOM      7  O   UNL     1     -31.778  17.319   1.326  0.00  0.00    -0.505 OA
ATOM      8  H   UNL     1     -31.462  17.410   2.203  0.00  0.00    +0.292 HD
ENDBRANCH   5   7
BRANCH   1   9
ATOM      9  C   UNL     1     -34.992  20.957   1.735  0.00  0.00    +0.000 C 
ATOM     10  C   UNL     1     -35.329  21.157   3.032  0.00  0.00    +0.000 C 
BRANCH  10  11
ATOM     11  C   UNL     1     -35.721  22.435   3.608  0.00  0.00    +0.000 C 
ATOM     12  C   UNL     1     -36.536  23.305   2.885  0.00  0.00    +0.003 C 
ATOM     13  C   UNL     1     -35.280  22.788   4.883  0.00  0.00    +0.003 C 
ATOM     14  C   UNL     1     -36.910  24.530   3.438  0.00  0.00    +0.037 C 
ATOM     15  C   UNL     1     -35.653  24.014   5.436  0.00  0.00    +0.037 C 
ATOM     16  C   UNL     1     -36.469  24.884   4.713  0.00  0.00    +0.134 C 
BRANCH  16  17
ATOM     17  O   UNL     1     -36.833  26.080   5.251  0.00  0.00    -0.506 OA
ATOM     18  H   UNL     1     -37.706  26.206   5.566  0.00  0.00    +0.292 HD
ENDBRANCH  16  17
ENDBRANCH  10  11
ENDBRANCH   1   9
BRANCH   3  19
ATOM     19  O   UNL     1     -35.830  17.154  -1.193  0.00  0.00    -0.322 OA
BRANCH  19  20
ATOM     20  S   UNL     1     -36.845  15.982  -0.645  0.00  0.00    +0.282 S 
ATOM     21  O   UNL     1     -37.418  15.293  -2.009  0.00  0.00    -0.105 OA
ATOM     22  O   UNL     1     -36.072  14.984   0.069  0.00  0.00    -0.105 OA
ATOM     23  O   UNL     1     -37.962  16.639   0.011  0.00  0.00    -0.012 OA
ENDBRANCH  19  20
ENDBRANCH   3  19
TORSDOF 6
ENDMDL
MODEL 2
REMARK VINA RESULT:      -6.3      3.274      8.800
REMARK  Name = 57347755
REMARK  6 active torsions:
REMARK  status: ('A' for Active; 'I' for Inactive)
REMARK    1  A    between atoms: C_1  and  C_9
REMARK    2  A    between atoms: C_3  and  O_19
REMARK    3  A    between atoms: C_5  and  O_7
REMARK    4  A    between atoms: C_10  and  C_11
REMARK    5  A    between atoms: C_16  and  O_17
REMARK    6  A    between atoms: O_19  and  S_20
REMARK                            x       y       z     vdW  Elec       q    Type
REMARK                         _______ _______ _______ _____ _____    ______ ____
ROOT
ATOM      1  C   UNL     1     -36.029  22.378   3.321  0.00  0.00    +0.006 C 
ATOM      2  C   UNL     1     -35.268  23.127   4.219  0.00  0.00    +0.040 C 
ATOM      3  C   UNL     1     -35.741  24.355   4.681  0.00  0.00    +0.179 C 
ATOM      4  C   UNL     1     -37.264  22.858   2.886  0.00  0.00    +0.037 C 
ATOM      5  C   UNL     1     -37.738  24.087   3.347  0.00  0.00    +0.137 C 
ATOM      6  C   UNL     1     -36.976  24.835   4.245  0.00  0.00    +0.076 C 
ENDROOT
BRANCH   5   7
ATOM      7  O   UNL     1     -38.944  24.554   2.923  0.00  0.00    -0.505 OA
ATOM      8  H   UNL     1     -39.047  25.461   2.712  0.00  0.00    +0.292 HD
ENDBRANCH   5   7
BRANCH   1   9
ATOM      9  C   UNL     1     -35.530  21.080   2.835  0.00  0.00    +0.000 C 
ATOM     10  C   UNL     1     -35.078  20.837   1.582  0.00  0.00    +0.000 C 
BRANCH  10  11
ATOM     11  C   UNL     1     -34.570  19.559   1.107  0.00  0.00    +0.000 C 
ATOM     12  C   UNL     1     -33.336  19.089   1.558  0.00  0.00    +0.003 C 
ATOM     13  C   UNL     1     -35.315  18.805   0.202  0.00  0.00    +0.003 C 
ATOM     14  C   UNL     1     -32.848  17.865   1.101  0.00  0.00    +0.037 C 
ATOM     15  C   UNL     1     -34.827  17.580  -0.255  0.00  0.00    +0.037 C 
ATOM     16  C   UNL     1     -33.593  17.110   0.195  0.00  0.00    +0.134 C 
BRANCH  16  17
ATOM     17  O   UNL     1     -33.116  15.916  -0.251  0.00  0.00    -0.506 OA
ATOM     18  H   UNL     1     -33.670  15.161  -0.250  0.00  0.00    +0.292 HD
ENDBRANCH  16  17
ENDBRANCH  10  11
ENDBRANCH   1   9
BRANCH   3  19
ATOM     19  O   UNL     1     -34.999  25.086   5.559  0.00  0.00    -0.322 OA
BRANCH  19  20
ATOM     20  S   UNL     1     -33.990  26.246   4.976  0.00  0.00    +0.282 S 
ATOM     21  O   UNL     1     -33.215  26.791   6.303  0.00  0.00    -0.105 OA
ATOM     22  O   UNL     1     -33.007  25.624   4.108  0.00  0.00    -0.105 OA
ATOM     23  O   UNL     1     -34.812  27.333   4.476  0.00  0.00    -0.012 OA
ENDBRANCH  19  20
ENDBRANCH   3  19
TORSDOF 6
ENDMDL
MODEL 3
REMARK VINA RESULT:      -6.3      3.882      8.063
REMARK  Name = 57347755
REMARK  6 active torsions:
REMARK  status: ('A' for Active; 'I' for Inactive)
REMARK    1  A    between atoms: C_1  and  C_9
REMARK    2  A    between atoms: C_3  and  O_19
REMARK    3  A    between atoms: C_5  and  O_7
REMARK    4  A    between atoms: C_10  and  C_11
REMARK    5  A    between atoms: C_16  and  O_17
REMARK    6  A    between atoms: O_19  and  S_20
REMARK                            x       y       z     vdW  Elec       q    Type
REMARK                         _______ _______ _______ _____ _____    ______ ____
ROOT
ATOM      1  C   UNL     1     -35.730  20.996   2.067  0.00  0.00    +0.006 C 
ATOM      2  C   UNL     1     -35.539  22.248   2.653  0.00  0.00    +0.040 C 
ATOM      3  C   UNL     1     -36.636  23.065   2.927  0.00  0.00    +0.179 C 
ATOM      4  C   UNL     1     -37.019  20.562   1.755  0.00  0.00    +0.037 C 
ATOM      5  C   UNL     1     -38.115  21.380   2.028  0.00  0.00    +0.137 C 
ATOM      6  C   UNL     1     -37.923  22.631   2.614  0.00  0.00    +0.076 C 
ENDROOT
BRANCH   5   7
ATOM      7  O   UNL     1     -39.373  20.956   1.725  0.00  0.00    -0.505 OA
ATOM      8  H   UNL     1     -39.575  20.676   0.854  0.00  0.00    +0.292 HD
ENDBRANCH   5   7
BRANCH   1   9
ATOM      9  C   UNL     1     -34.572  20.131   1.781  0.00  0.00    +0.000 C 
ATOM     10  C   UNL     1     -33.584  20.417   0.899  0.00  0.00    +0.000 C 
BRANCH  10  11
ATOM     11  C   UNL     1     -32.431  19.571   0.629  0.00  0.00    +0.000 C 
ATOM     12  C   UNL     1     -32.417  18.250   1.075  0.00  0.00    +0.003 C 
ATOM     13  C   UNL     1     -31.341  20.082  -0.075  0.00  0.00    +0.003 C 
ATOM     14  C   UNL     1     -31.311  17.440   0.818  0.00  0.00    +0.037 C 
ATOM     15  C   UNL     1     -30.235  19.272  -0.333  0.00  0.00    +0.037 C 
ATOM     16  C   UNL     1     -30.220  17.950   0.113  0.00  0.00    +0.134 C 
BRANCH  16  17
ATOM     17  O   UNL     1     -29.141  17.160  -0.137  0.00  0.00    -0.506 OA
ATOM     18  H   UNL     1     -29.240  16.378  -0.642  0.00  0.00    +0.292 HD
ENDBRANCH  16  17
ENDBRANCH  10  11
ENDBRANCH   1   9
BRANCH   3  19
ATOM     19  O   UNL     1     -36.449  24.286   3.500  0.00  0.00    -0.322 OA
BRANCH  19  20
ATOM     20  S   UNL     1     -35.655  24.378   4.937  0.00  0.00    +0.282 S 
ATOM     21  O   UNL     1     -36.195  25.772   5.592  0.00  0.00    -0.105 OA
ATOM     22  O   UNL     1     -36.092  23.286   5.788  0.00  0.00    -0.105 OA
ATOM     23  O   UNL     1     -34.243  24.551   4.650  0.00  0.00    -0.012 OA
ENDBRANCH  19  20
ENDBRANCH   3  19
TORSDOF 6
ENDMDL
MODEL 4
REMARK VINA RESULT:      -6.2      1.689      3.611
REMARK  Name = 57347755
REMARK  6 active torsions:
REMARK  status: ('A' for Active; 'I' for Inactive)
REMARK    1  A    between atoms: C_1  and  C_9
REMARK    2  A    between atoms: C_3  and  O_19
REMARK    3  A    between atoms: C_5  and  O_7
REMARK    4  A    between atoms: C_10  and  C_11
REMARK    5  A    between atoms: C_16  and  O_17
REMARK    6  A    between atoms: O_19  and  S_20
REMARK                            x       y       z     vdW  Elec       q    Type
REMARK                         _______ _______ _______ _____ _____    ______ ____
ROOT
ATOM      1  C   UNL     1     -34.764  19.801   1.226  0.00  0.00    +0.006 C 
ATOM      2  C   UNL     1     -33.554  19.171   1.521  0.00  0.00    +0.040 C 
ATOM      3  C   UNL     1     -33.248  17.942   0.938  0.00  0.00    +0.179 C 
ATOM      4  C   UNL     1     -35.665  19.202   0.347  0.00  0.00    +0.037 C 
ATOM      5  C   UNL     1     -35.359  17.972  -0.236  0.00  0.00    +0.137 C 
ATOM      6  C   UNL     1     -34.150  17.342   0.060  0.00  0.00    +0.076 C 
ENDROOT
BRANCH   5   7
ATOM      7  O   UNL     1     -36.239  17.388  -1.095  0.00  0.00    -0.505 OA
ATOM      8  H   UNL     1     -35.942  17.069  -1.924  0.00  0.00    +0.292 HD
ENDBRANCH   5   7
BRANCH   1   9
ATOM      9  C   UNL     1     -35.086  21.101   1.840  0.00  0.00    +0.000 C 
ATOM     10  C   UNL     1     -35.526  21.277   3.109  0.00  0.00    +0.000 C 
BRANCH  10  11
ATOM     11  C   UNL     1     -35.828  22.562   3.721  0.00  0.00    +0.000 C 
ATOM     12  C   UNL     1     -36.776  23.405   3.140  0.00  0.00    +0.003 C 
ATOM     13  C   UNL     1     -35.169  22.952   4.887  0.00  0.00    +0.003 C 
ATOM     14  C   UNL     1     -37.064  24.637   3.726  0.00  0.00    +0.037 C 
ATOM     15  C   UNL     1     -35.457  24.184   5.472  0.00  0.00    +0.037 C 
ATOM     16  C   UNL     1     -36.405  25.027   4.892  0.00  0.00    +0.134 C 
BRANCH  16  17
ATOM     17  O   UNL     1     -36.686  26.231   5.462  0.00  0.00    -0.506 OA
ATOM     18  H   UNL     1     -36.056  26.644   6.018  0.00  0.00    +0.292 HD
ENDBRANCH  16  17
ENDBRANCH  10  11
ENDBRANCH   1   9
BRANCH   3  19
ATOM     19  O   UNL     1     -32.067  17.327   1.225  0.00  0.00    -0.322 OA
BRANCH  19  20
ATOM     20  S   UNL     1     -30.791  17.541   0.210  0.00  0.00    +0.282 S 
ATOM     21  O   UNL     1     -29.609  16.631   0.872  0.00  0.00    -0.105 OA
ATOM     22  O   UNL     1     -31.118  16.974  -1.085  0.00  0.00    -0.105 OA
ATOM     23  O   UNL     1     -30.377  18.929   0.309  0.00  0.00    -0.012 OA
ENDBRANCH  19  20
ENDBRANCH   3  19
TORSDOF 6
ENDMDL
MODEL 5
REMARK VINA RESULT:      -6.1      6.070     10.930
REMARK  Name = 57347755
REMARK  6 active torsions:
REMARK  status: ('A' for Active; 'I' for Inactive)
REMARK    1  A    between atoms: C_1  and  C_9
REMARK    2  A    between atoms: C_3  and  O_19
REMARK    3  A    between atoms: C_5  and  O_7
REMARK    4  A    between atoms: C_10  and  C_11
REMARK    5  A    between atoms: C_16  and  O_17
REMARK    6  A    between atoms: O_19  and  S_20
REMARK                            x       y       z     vdW  Elec       q    Type
REMARK                         _______ _______ _______ _____ _____    ______ ____
ROOT
ATOM      1  C   UNL     1     -32.774  27.710   4.807  0.00  0.00    +0.006 C 
ATOM      2  C   UNL     1     -32.732  28.756   3.883  0.00  0.00    +0.040 C 
ATOM      3  C   UNL     1     -32.253  30.008   4.269  0.00  0.00    +0.179 C 
ATOM      4  C   UNL     1     -32.338  27.919   6.115  0.00  0.00    +0.037 C 
ATOM      5  C   UNL     1     -31.861  29.171   6.501  0.00  0.00    +0.137 C 
ATOM      6  C   UNL     1     -31.818  30.216   5.577  0.00  0.00    +0.076 C 
ENDROOT
BRANCH   5   7
ATOM      7  O   UNL     1     -31.434  29.374   7.778  0.00  0.00    -0.505 OA
ATOM      8  H   UNL     1     -31.113  28.654   8.284  0.00  0.00    +0.292 HD
ENDBRANCH   5   7
BRANCH   1   9
ATOM      9  C   UNL     1     -33.277  26.387   4.399  0.00  0.00    +0.000 C 
ATOM     10  C   UNL     1     -34.088  25.597   5.142  0.00  0.00    +0.000 C 
BRANCH  10  11
ATOM     11  C   UNL     1     -34.598  24.298   4.731  0.00  0.00    +0.000 C 
ATOM     12  C   UNL     1     -34.881  23.326   5.690  0.00  0.00    +0.003 C 
ATOM     13  C   UNL     1     -34.802  24.024   3.379  0.00  0.00    +0.003 C 
ATOM     14  C   UNL     1     -35.368  22.080   5.296  0.00  0.00    +0.037 C 
ATOM     15  C   UNL     1     -35.289  22.778   2.985  0.00  0.00    +0.037 C 
ATOM     16  C   UNL     1     -35.572  21.805   3.944  0.00  0.00    +0.134 C 
BRANCH  16  17
ATOM     17  O   UNL     1     -36.046  20.589   3.560  0.00  0.00    -0.506 OA
ATOM     18  H   UNL     1     -35.449  19.902   3.340  0.00  0.00    +0.292 HD
ENDBRANCH  16  17
ENDBRANCH  10  11
ENDBRANCH   1   9
BRANCH   3  19
ATOM     19  O   UNL     1     -32.210  31.028   3.367  0.00  0.00    -0.322 OA
BRANCH  19  20
ATOM     20  S   UNL     1     -33.611  31.536   2.671  0.00  0.00    +0.282 S 
ATOM     21  O   UNL     1     -34.756  31.134   3.763  0.00  0.00    -0.105 OA
ATOM     22  O   UNL     1     -33.586  32.982   2.561  0.00  0.00    -0.105 OA
ATOM     23  O   UNL     1     -33.835  30.723   1.489  0.00  0.00    -0.012 OA
ENDBRANCH  19  20
ENDBRANCH   3  19
TORSDOF 6
ENDMDL
MODEL 6
REMARK VINA RESULT:      -6.0      6.541     11.258
REMARK  Name = 57347755
REMARK  6 active torsions:
REMARK  status: ('A' for Active; 'I' for Inactive)
REMARK    1  A    between atoms: C_1  and  C_9
REMARK    2  A    between atoms: C_3  and  O_19
REMARK    3  A    between atoms: C_5  and  O_7
REMARK    4  A    between atoms: C_10  and  C_11
REMARK    5  A    between atoms: C_16  and  O_17
REMARK    6  A    between atoms: O_19  and  S_20
REMARK                            x       y       z     vdW  Elec       q    Type
REMARK                         _______ _______ _______ _____ _____    ______ ____
ROOT
ATOM      1  C   UNL     1     -32.874  27.906   4.462  0.00  0.00    +0.006 C 
ATOM      2  C   UNL     1     -32.032  28.078   5.562  0.00  0.00    +0.040 C 
ATOM      3  C   UNL     1     -31.572  29.351   5.896  0.00  0.00    +0.179 C 
ATOM      4  C   UNL     1     -33.255  29.010   3.698  0.00  0.00    +0.037 C 
ATOM      5  C   UNL     1     -32.795  30.283   4.033  0.00  0.00    +0.137 C 
ATOM      6  C   UNL     1     -31.953  30.453   5.132  0.00  0.00    +0.076 C 
ENDROOT
BRANCH   5   7
ATOM      7  O   UNL     1     -33.168  31.360   3.288  0.00  0.00    -0.505 OA
ATOM      8  H   UNL     1     -33.170  32.215   3.670  0.00  0.00    +0.292 HD
ENDBRANCH   5   7
BRANCH   1   9
ATOM      9  C   UNL     1     -33.362  26.562   4.110  0.00  0.00    +0.000 C 
ATOM     10  C   UNL     1     -34.127  25.776   4.905  0.00  0.00    +0.000 C 
BRANCH  10  11
ATOM     11  C   UNL     1     -34.623  24.455   4.550  0.00  0.00    +0.000 C 
ATOM     12  C   UNL     1     -34.888  23.518   5.548  0.00  0.00    +0.003 C 
ATOM     13  C   UNL     1     -34.832  24.125   3.211  0.00  0.00    +0.003 C 
ATOM     14  C   UNL     1     -35.361  22.252   5.207  0.00  0.00    +0.037 C 
ATOM     15  C   UNL     1     -35.306  22.859   2.870  0.00  0.00    +0.037 C 
ATOM     16  C   UNL     1     -35.571  21.921   3.868  0.00  0.00    +0.134 C 
BRANCH  16  17
ATOM     17  O   UNL     1     -36.032  20.685   3.536  0.00  0.00    -0.506 OA
ATOM     18  H   UNL     1     -35.792  19.941   4.052  0.00  0.00    +0.292 HD
ENDBRANCH  16  17
ENDBRANCH  10  11
ENDBRANCH   1   9
BRANCH   3  19
ATOM     19  O   UNL     1     -30.752  29.518   6.970  0.00  0.00    -0.322 OA
BRANCH  19  20
ATOM     20  S   UNL     1     -29.151  29.179   6.810  0.00  0.00    +0.282 S 
ATOM     21  O   UNL     1     -29.111  27.555   6.651  0.00  0.00    -0.105 OA
ATOM     22  O   UNL     1     -28.666  29.761   5.572  0.00  0.00    -0.105 OA
ATOM     23  O   UNL     1     -28.503  29.507   8.067  0.00  0.00    -0.012 OA
ENDBRANCH  19  20
ENDBRANCH   3  19
TORSDOF 6
ENDMDL
MODEL 7
REMARK VINA RESULT:      -5.9      3.207      6.978
REMARK  Name = 57347755
REMARK  6 active torsions:
REMARK  status: ('A' for Active; 'I' for Inactive)
REMARK    1  A    between atoms: C_1  and  C_9
REMARK    2  A    between atoms: C_3  and  O_19
REMARK    3  A    between atoms: C_5  and  O_7
REMARK    4  A    between atoms: C_10  and  C_11
REMARK    5  A    between atoms: C_16  and  O_17
REMARK    6  A    between atoms: O_19  and  S_20
REMARK                            x       y       z     vdW  Elec       q    Type
REMARK                         _______ _______ _______ _____ _____    ______ ____
ROOT
ATOM      1  C   UNL     1     -35.831  21.436   2.149  0.00  0.00    +0.006 C 
ATOM      2  C   UNL     1     -36.884  21.513   1.236  0.00  0.00    +0.040 C 
ATOM      3  C   UNL     1     -37.931  22.409   1.453  0.00  0.00    +0.179 C 
ATOM      4  C   UNL     1     -35.827  22.255   3.278  0.00  0.00    +0.037 C 
ATOM      5  C   UNL     1     -36.874  23.150   3.495  0.00  0.00    +0.137 C 
ATOM      6  C   UNL     1     -37.926  23.227   2.582  0.00  0.00    +0.076 C 
ENDROOT
BRANCH   5   7
ATOM      7  O   UNL     1     -36.869  23.951   4.596  0.00  0.00    -0.505 OA
ATOM      8  H   UNL     1     -36.364  23.710   5.347  0.00  0.00    +0.292 HD
ENDBRANCH   5   7
BRANCH   1   9
ATOM      9  C   UNL     1     -34.724  20.491   1.919  0.00  0.00    +0.000 C 
ATOM     10  C   UNL     1     -33.791  20.605   0.943  0.00  0.00    +0.000 C 
BRANCH  10  11
ATOM     11  C   UNL     1     -32.688  19.681   0.727  0.00  0.00    +0.000 C 
ATOM     12  C   UNL     1     -32.738  18.397   1.268  0.00  0.00    +0.003 C 
ATOM     13  C   UNL     1     -31.581  20.081  -0.021  0.00  0.00    +0.003 C 
ATOM     14  C   UNL     1     -31.679  17.512   1.062  0.00  0.00    +0.037 C 
ATOM     15  C   UNL     1     -30.522  19.196  -0.227  0.00  0.00    +0.037 C 
ATOM     16  C   UNL     1     -30.571  17.912   0.314  0.00  0.00    +0.134 C 
BRANCH  16  17
ATOM     17  O   UNL     1     -29.538  17.049   0.115  0.00  0.00    -0.506 OA
ATOM     18  H   UNL     1     -28.849  16.988   0.746  0.00  0.00    +0.292 HD
ENDBRANCH  16  17
ENDBRANCH  10  11
ENDBRANCH   1   9
BRANCH   3  19
ATOM     19  O   UNL     1     -38.957  22.486   0.561  0.00  0.00    -0.322 OA
BRANCH  19  20
ATOM     20  S   UNL     1     -40.136  21.340   0.603  0.00  0.00    +0.282 S 
ATOM     21  O   UNL     1     -41.424  22.080  -0.072  0.00  0.00    -0.105 OA
ATOM     22  O   UNL     1     -39.752  20.237  -0.259  0.00  0.00    -0.105 OA
ATOM     23  O   UNL     1     -40.459  21.091   1.996  0.00  0.00    -0.012 OA
ENDBRANCH  19  20
ENDBRANCH   3  19
TORSDOF 6
ENDMDL
MODEL 8
REMARK VINA RESULT:      -5.9      4.867      6.762
REMARK  Name = 57347755
REMARK  6 active torsions:
REMARK  status: ('A' for Active; 'I' for Inactive)
REMARK    1  A    between atoms: C_1  and  C_9
REMARK    2  A    between atoms: C_3  and  O_19
REMARK    3  A    between atoms: C_5  and  O_7
REMARK    4  A    between atoms: C_10  and  C_11
REMARK    5  A    between atoms: C_16  and  O_17
REMARK    6  A    between atoms: O_19  and  S_20
REMARK                            x       y       z     vdW  Elec       q    Type
REMARK                         _______ _______ _______ _____ _____    ______ ____
ROOT
ATOM      1  C   UNL     1     -34.819  24.272   4.716  0.00  0.00    +0.006 C 
ATOM      2  C   UNL     1     -35.566  24.213   3.538  0.00  0.00    +0.040 C 
ATOM      3  C   UNL     1     -36.198  23.024   3.172  0.00  0.00    +0.179 C 
ATOM      4  C   UNL     1     -34.704  23.142   5.525  0.00  0.00    +0.037 C 
ATOM      5  C   UNL     1     -35.335  21.953   5.158  0.00  0.00    +0.137 C 
ATOM      6  C   UNL     1     -36.082  21.895   3.981  0.00  0.00    +0.076 C 
ENDROOT
BRANCH   5   7
ATOM      7  O   UNL     1     -35.224  20.851   5.949  0.00  0.00    -0.505 OA
ATOM      8  H   UNL     1     -35.991  20.377   6.202  0.00  0.00    +0.292 HD
ENDBRANCH   5   7
BRANCH   1   9
ATOM      9  C   UNL     1     -34.153  25.527   5.104  0.00  0.00    +0.000 C 
ATOM     10  C   UNL     1     -33.596  26.414   4.245  0.00  0.00    +0.000 C 
BRANCH  10  11
ATOM     11  C   UNL     1     -32.955  27.662   4.628  0.00  0.00    +0.000 C 
ATOM     12  C   UNL     1     -32.887  28.719   3.720  0.00  0.00    +0.003 C 
ATOM     13  C   UNL     1     -32.406  27.802   5.903  0.00  0.00    +0.003 C 
ATOM     14  C   UNL     1     -32.270  29.914   4.087  0.00  0.00    +0.037 C 
ATOM     15  C   UNL     1     -31.789  28.998   6.270  0.00  0.00    +0.037 C 
ATOM     16  C   UNL     1     -31.721  30.055   5.362  0.00  0.00    +0.134 C 
BRANCH  16  17
ATOM     17  O   UNL     1     -31.119  31.221   5.719  0.00  0.00    -0.506 OA
ATOM     18  H   UNL     1     -30.263  31.209   6.101  0.00  0.00    +0.292 HD
ENDBRANCH  16  17
ENDBRANCH  10  11
ENDBRANCH   1   9
BRANCH   3  19
ATOM     19  O   UNL     1     -36.929  22.967   2.024  0.00  0.00    -0.322 OA
BRANCH  19  20
ATOM     20  S   UNL     1     -38.570  22.985   2.124  0.00  0.00    +0.282 S 
ATOM     21  O   UNL     1     -39.038  23.673   0.721  0.00  0.00    -0.105 OA
ATOM     22  O   UNL     1     -39.057  21.618   2.135  0.00  0.00    -0.105 OA
ATOM     23  O   UNL     1     -38.936  23.893   3.196  0.00  0.00    -0.012 OA
ENDBRANCH  19  20
ENDBRANCH   3  19
TORSDOF 6
ENDMDL
MODEL 9
REMARK VINA RESULT:      -5.9      3.157      6.834
REMARK  Name = 57347755
REMARK  6 active torsions:
REMARK  status: ('A' for Active; 'I' for Inactive)
REMARK    1  A    between atoms: C_1  and  C_9
REMARK    2  A    between atoms: C_3  and  O_19
REMARK    3  A    between atoms: C_5  and  O_7
REMARK    4  A    between atoms: C_10  and  C_11
REMARK    5  A    between atoms: C_16  and  O_17
REMARK    6  A    between atoms: O_19  and  S_20
REMARK                            x       y       z     vdW  Elec       q    Type
REMARK                         _______ _______ _______ _____ _____    ______ ____
ROOT
ATOM      1  C   UNL     1     -36.674  22.068   2.013  0.00  0.00    +0.006 C 
ATOM      2  C   UNL     1     -37.794  21.339   1.610  0.00  0.00    +0.040 C 
ATOM      3  C   UNL     1     -39.074  21.795   1.927  0.00  0.00    +0.179 C 
ATOM      4  C   UNL     1     -36.836  23.252   2.733  0.00  0.00    +0.037 C 
ATOM      5  C   UNL     1     -38.116  23.706   3.051  0.00  0.00    +0.137 C 
ATOM      6  C   UNL     1     -39.235  22.977   2.647  0.00  0.00    +0.076 C 
ENDROOT
BRANCH   5   7
ATOM      7  O   UNL     1     -38.273  24.863   3.752  0.00  0.00    -0.505 OA
ATOM      8  H   UNL     1     -37.814  25.635   3.490  0.00  0.00    +0.292 HD
ENDBRANCH   5   7
BRANCH   1   9
ATOM      9  C   UNL     1     -35.322  21.589   1.676  0.00  0.00    +0.000 C 
ATOM     10  C   UNL     1     -34.997  20.305   1.393  0.00  0.00    +0.000 C 
BRANCH  10  11
ATOM     11  C   UNL     1     -33.665  19.835   1.044  0.00  0.00    +0.000 C 
ATOM     12  C   UNL     1     -33.221  18.596   1.503  0.00  0.00    +0.003 C 
ATOM     13  C   UNL     1     -32.833  20.625   0.251  0.00  0.00    +0.003 C 
ATOM     14  C   UNL     1     -31.943  18.147   1.169  0.00  0.00    +0.037 C 
ATOM     15  C   UNL     1     -31.555  20.176  -0.082  0.00  0.00    +0.037 C 
ATOM     16  C   UNL     1     -31.110  18.936   0.376  0.00  0.00    +0.134 C 
BRANCH  16  17
ATOM     17  O   UNL     1     -29.864  18.498   0.052  0.00  0.00    -0.506 OA
ATOM     18  H   UNL     1     -29.485  17.777   0.515  0.00  0.00    +0.292 HD
ENDBRANCH  16  17
ENDBRANCH  10  11
ENDBRANCH   1   9
BRANCH   3  19
ATOM     19  O   UNL     1     -40.166  21.084   1.532  0.00  0.00    -0.322 OA
BRANCH  19  20
ATOM     20  S   UNL     1     -40.550  21.036  -0.067  0.00  0.00    +0.282 S 
ATOM     21  O   UNL     1     -39.705  19.760  -0.632  0.00  0.00    -0.105 OA
ATOM     22  O   UNL     1     -41.962  20.733  -0.204  0.00  0.00    -0.105 OA
ATOM     23  O   UNL     1     -40.001  22.229  -0.687  0.00  0.00    -0.012 OA
ENDBRANCH  19  20
ENDBRANCH   3  19
TORSDOF 6
ENDMDL
