MODEL 1
REMARK VINA RESULT:      -6.1      0.000      0.000
REMARK  Name = 53754048
REMARK  8 active torsions:
REMARK  status: ('A' for Active; 'I' for Inactive)
REMARK    1  A    between atoms: C_2  and  O_17
REMARK    2  A    between atoms: C_3  and  N_7
REMARK    3  A    between atoms: C_4  and  O_19
REMARK    4  A    between atoms: C_5  and  O_21
REMARK    5  A    between atoms: C_6  and  C_23
REMARK    6  A    between atoms: C_10  and  C_14
REMARK    7  A    between atoms: C_14  and  O_15
REMARK    8  A    between atoms: C_23  and  O_24
REMARK                            x       y       z     vdW  Elec       q    Type
REMARK                         _______ _______ _______ _____ _____    ______ ____
ROOT
ATOM      1  O   UNL     1     -37.888  21.844   2.183  0.00  0.00    -0.333 OA
ATOM      2  C   UNL     1     -35.826  20.574   1.968  0.00  0.00    +0.187 C 
ATOM      3  C   UNL     1     -36.465  21.940   2.227  0.00  0.00    +0.223 C 
ATOM      4  C   UNL     1     -36.345  19.964   0.663  0.00  0.00    +0.171 C 
ATOM      5  C   UNL     1     -37.871  20.017   0.585  0.00  0.00    +0.169 C 
ATOM      6  C   UNL     1     -38.376  21.428   0.905  0.00  0.00    +0.175 C 
ENDROOT
BRANCH   3   7
ATOM      7  N   UNL     1     -36.061  22.423   3.532  0.00  0.00    -0.279 N 
ATOM      8  C   UNL     1     -36.069  23.886   3.732  0.00  0.00    +0.126 C 
ATOM      9  C   UNL     1     -35.580  21.573   4.520  0.00  0.00    +0.063 C 
ATOM     10  C   UNL     1     -35.580  24.276   5.106  0.00  0.00    +0.073 C 
ATOM     11  C   UNL     1     -35.141  21.983   5.718  0.00  0.00    +0.016 C 
ATOM     12  C   UNL     1     -35.153  23.395   6.025  0.00  0.00    +0.005 C 
BRANCH  10  14
ATOM     13  O   UNL     1     -34.599  26.290   5.900  0.00  0.00    -0.245 OA
ATOM     14  C   UNL     1     -35.569  25.696   5.464  0.00  0.00    +0.336 C 
BRANCH  14  15
ATOM     15  O   UNL     1     -36.787  26.230   5.237  0.00  0.00    -0.477 OA
ATOM     16  H   UNL     1     -37.531  25.924   5.718  0.00  0.00    +0.295 HD
ENDBRANCH  14  15
ENDBRANCH  10  14
ENDBRANCH   3   7
BRANCH   2  17
ATOM     17  O   UNL     1     -34.410  20.733   1.871  0.00  0.00    -0.378 OA
ATOM     18  H   UNL     1     -34.072  21.114   2.696  0.00  0.00    +0.211 HD
ENDBRANCH   2  17
BRANCH   4  19
ATOM     19  O   UNL     1     -35.911  18.606   0.574  0.00  0.00    -0.379 OA
ATOM     20  H   UNL     1     -35.553  18.323   1.429  0.00  0.00    +0.211 HD
ENDBRANCH   4  19
BRANCH   5  21
ATOM     21  O   UNL     1     -38.260  19.635  -0.731  0.00  0.00    -0.379 OA
ATOM     22  H   UNL     1     -37.469  19.499  -1.275  0.00  0.00    +0.211 HD
ENDBRANCH   5  21
BRANCH   6  23
ATOM     23  C   UNL     1     -39.899  21.498   0.961  0.00  0.00    +0.169 C 
BRANCH  23  24
ATOM     24  O   UNL     1     -40.329  20.969   2.200  0.00  0.00    -0.379 OA
ATOM     25  H   UNL     1     -39.622  20.423   2.582  0.00  0.00    +0.211 HD
ENDBRANCH  23  24
ENDBRANCH   6  23
TORSDOF 8
ENDMDL
MODEL 2
REMARK VINA RESULT:      -5.9      2.524      4.490
REMARK  Name = 53754048
REMARK  8 active torsions:
REMARK  status: ('A' for Active; 'I' for Inactive)
REMARK    1  A    between atoms: C_2  and  O_17
REMARK    2  A    between atoms: C_3  and  N_7
REMARK    3  A    between atoms: C_4  and  O_19
REMARK    4  A    between atoms: C_5  and  O_21
REMARK    5  A    between atoms: C_6  and  C_23
REMARK    6  A    between atoms: C_10  and  C_14
REMARK    7  A    between atoms: C_14  and  O_15
REMARK    8  A    between atoms: C_23  and  O_24
REMARK                            x       y       z     vdW  Elec       q    Type
REMARK                         _______ _______ _______ _____ _____    ______ ____
ROOT
ATOM      1  O   UNL     1     -35.273  23.275   3.203  0.00  0.00    -0.333 OA
ATOM      2  C   UNL     1     -36.960  25.026   3.207  0.00  0.00    +0.187 C 
ATOM      3  C   UNL     1     -35.712  24.451   3.881  0.00  0.00    +0.223 C 
ATOM      4  C   UNL     1     -38.054  23.963   3.081  0.00  0.00    +0.171 C 
ATOM      5  C   UNL     1     -37.510  22.662   2.490  0.00  0.00    +0.169 C 
ATOM      6  C   UNL     1     -36.243  22.224   3.231  0.00  0.00    +0.175 C 
ENDROOT
BRANCH   3   7
ATOM      7  N   UNL     1     -34.651  25.438   3.856  0.00  0.00    -0.279 N 
ATOM      8  C   UNL     1     -34.212  25.976   5.160  0.00  0.00    +0.126 C 
ATOM      9  C   UNL     1     -34.140  25.946   2.669  0.00  0.00    +0.063 C 
ATOM     10  C   UNL     1     -33.144  27.032   5.010  0.00  0.00    +0.073 C 
ATOM     11  C   UNL     1     -33.202  26.901   2.601  0.00  0.00    +0.016 C 
ATOM     12  C   UNL     1     -32.676  27.458   3.826  0.00  0.00    +0.005 C 
BRANCH  10  14
ATOM     13  O   UNL     1     -32.227  28.792   6.318  0.00  0.00    -0.245 OA
ATOM     14  C   UNL     1     -32.581  27.630   6.223  0.00  0.00    +0.336 C 
BRANCH  14  15
ATOM     15  O   UNL     1     -32.521  26.701   7.199  0.00  0.00    -0.477 OA
ATOM     16  H   UNL     1     -32.066  25.895   7.052  0.00  0.00    +0.295 HD
ENDBRANCH  14  15
ENDBRANCH  10  14
ENDBRANCH   3   7
BRANCH   2  17
ATOM     17  O   UNL     1     -37.457  26.109   3.993  0.00  0.00    -0.378 OA
ATOM     18  H   UNL     1     -38.198  26.529   3.531  0.00  0.00    +0.211 HD
ENDBRANCH   2  17
BRANCH   4  19
ATOM     19  O   UNL     1     -39.101  24.463   2.247  0.00  0.00    -0.379 OA
ATOM     20  H   UNL     1     -38.718  24.887   1.465  0.00  0.00    +0.211 HD
ENDBRANCH   4  19
BRANCH   5  21
ATOM     21  O   UNL     1     -38.523  21.667   2.604  0.00  0.00    -0.379 OA
ATOM     22  H   UNL     1     -39.376  22.093   2.784  0.00  0.00    +0.211 HD
ENDBRANCH   5  21
BRANCH   6  23
ATOM     23  C   UNL     1     -35.596  20.998   2.595  0.00  0.00    +0.169 C 
BRANCH  23  24
ATOM     24  O   UNL     1     -36.479  19.901   2.732  0.00  0.00    -0.379 OA
ATOM     25  H   UNL     1     -36.995  19.797   1.916  0.00  0.00    +0.211 HD
ENDBRANCH  23  24
ENDBRANCH   6  23
TORSDOF 8
ENDMDL
MODEL 3
REMARK VINA RESULT:      -5.9      2.665      5.783
REMARK  Name = 53754048
REMARK  8 active torsions:
REMARK  status: ('A' for Active; 'I' for Inactive)
REMARK    1  A    between atoms: C_2  and  O_17
REMARK    2  A    between atoms: C_3  and  N_7
REMARK    3  A    between atoms: C_4  and  O_19
REMARK    4  A    between atoms: C_5  and  O_21
REMARK    5  A    between atoms: C_6  and  C_23
REMARK    6  A    between atoms: C_10  and  C_14
REMARK    7  A    between atoms: C_14  and  O_15
REMARK    8  A    between atoms: C_23  and  O_24
REMARK                            x       y       z     vdW  Elec       q    Type
REMARK                         _______ _______ _______ _____ _____    ______ ____
ROOT
ATOM      1  O   UNL     1     -37.022  25.260   2.717  0.00  0.00    -0.333 OA
ATOM      2  C   UNL     1     -34.909  26.118   3.559  0.00  0.00    +0.187 C 
ATOM      3  C   UNL     1     -36.171  25.308   3.861  0.00  0.00    +0.223 C 
ATOM      4  C   UNL     1     -35.264  27.505   3.017  0.00  0.00    +0.171 C 
ATOM      5  C   UNL     1     -36.295  27.423   1.891  0.00  0.00    +0.169 C 
ATOM      6  C   UNL     1     -37.483  26.552   2.314  0.00  0.00    +0.175 C 
ENDROOT
BRANCH   3   7
ATOM      7  N   UNL     1     -35.801  23.958   4.236  0.00  0.00    -0.279 N 
ATOM      8  C   UNL     1     -35.854  22.934   3.172  0.00  0.00    +0.126 C 
ATOM      9  C   UNL     1     -35.517  23.605   5.549  0.00  0.00    +0.063 C 
ATOM     10  C   UNL     1     -35.502  21.560   3.687  0.00  0.00    +0.073 C 
ATOM     11  C   UNL     1     -35.229  22.358   5.947  0.00  0.00    +0.016 C 
ATOM     12  C   UNL     1     -35.211  21.294   4.971  0.00  0.00    +0.005 C 
BRANCH  10  14
ATOM     13  O   UNL     1     -34.500  20.128   2.074  0.00  0.00    -0.245 OA
ATOM     14  C   UNL     1     -35.473  20.446   2.735  0.00  0.00    +0.336 C 
BRANCH  14  15
ATOM     15  O   UNL     1     -36.679  19.841   2.710  0.00  0.00    -0.477 OA
ATOM     16  H   UNL     1     -37.322  20.050   3.359  0.00  0.00    +0.295 HD
ENDBRANCH  14  15
ENDBRANCH  10  14
ENDBRANCH   3   7
BRANCH   2  17
ATOM     17  O   UNL     1     -34.155  26.271   4.761  0.00  0.00    -0.378 OA
ATOM     18  H   UNL     1     -34.294  27.162   5.118  0.00  0.00    +0.211 HD
ENDBRANCH   2  17
BRANCH   4  19
ATOM     19  O   UNL     1     -34.078  28.137   2.531  0.00  0.00    -0.379 OA
ATOM     20  H   UNL     1     -33.623  27.543   1.916  0.00  0.00    +0.211 HD
ENDBRANCH   4  19
BRANCH   5  21
ATOM     21  O   UNL     1     -36.729  28.746   1.592  0.00  0.00    -0.379 OA
ATOM     22  H   UNL     1     -36.051  29.198   1.066  0.00  0.00    +0.211 HD
ENDBRANCH   5  21
BRANCH   6  23
ATOM     23  C   UNL     1     -38.478  26.340   1.177  0.00  0.00    +0.169 C 
BRANCH  23  24
ATOM     24  O   UNL     1     -39.395  27.418   1.174  0.00  0.00    -0.379 OA
ATOM     25  H   UNL     1     -40.233  27.130   1.569  0.00  0.00    +0.211 HD
ENDBRANCH  23  24
ENDBRANCH   6  23
TORSDOF 8
ENDMDL
MODEL 4
REMARK VINA RESULT:      -5.8      2.269      3.715
REMARK  Name = 53754048
REMARK  8 active torsions:
REMARK  status: ('A' for Active; 'I' for Inactive)
REMARK    1  A    between atoms: C_2  and  O_17
REMARK    2  A    between atoms: C_3  and  N_7
REMARK    3  A    between atoms: C_4  and  O_19
REMARK    4  A    between atoms: C_5  and  O_21
REMARK    5  A    between atoms: C_6  and  C_23
REMARK    6  A    between atoms: C_10  and  C_14
REMARK    7  A    between atoms: C_14  and  O_15
REMARK    8  A    between atoms: C_23  and  O_24
REMARK                            x       y       z     vdW  Elec       q    Type
REMARK                         _______ _______ _______ _____ _____    ______ ____
ROOT
ATOM      1  O   UNL     1     -36.714  22.554   2.540  0.00  0.00    -0.333 OA
ATOM      2  C   UNL     1     -38.687  23.944   2.830  0.00  0.00    +0.187 C 
ATOM      3  C   UNL     1     -37.417  23.379   3.468  0.00  0.00    +0.223 C 
ATOM      4  C   UNL     1     -39.554  22.825   2.248  0.00  0.00    +0.171 C 
ATOM      5  C   UNL     1     -38.733  21.872   1.379  0.00  0.00    +0.169 C 
ATOM      6  C   UNL     1     -37.474  21.416   2.123  0.00  0.00    +0.175 C 
ENDROOT
BRANCH   3   7
ATOM      7  N   UNL     1     -36.557  24.469   3.882  0.00  0.00    -0.279 N 
ATOM      8  C   UNL     1     -36.332  25.549   2.899  0.00  0.00    +0.126 C 
ATOM      9  C   UNL     1     -35.879  24.458   5.094  0.00  0.00    +0.063 C 
ATOM     10  C   UNL     1     -35.381  26.600   3.416  0.00  0.00    +0.073 C 
ATOM     11  C   UNL     1     -35.029  25.416   5.489  0.00  0.00    +0.016 C 
ATOM     12  C   UNL     1     -34.779  26.539   4.615  0.00  0.00    +0.005 C 
BRANCH  10  14
ATOM     13  O   UNL     1     -34.745  27.686   1.399  0.00  0.00    -0.245 OA
ATOM     14  C   UNL     1     -35.092  27.757   2.565  0.00  0.00    +0.336 C 
BRANCH  14  15
ATOM     15  O   UNL     1     -35.270  28.893   3.270  0.00  0.00    -0.477 OA
ATOM     16  H   UNL     1     -35.462  28.851   4.186  0.00  0.00    +0.295 HD
ENDBRANCH  14  15
ENDBRANCH  10  14
ENDBRANCH   3   7
BRANCH   2  17
ATOM     17  O   UNL     1     -39.439  24.638   3.826  0.00  0.00    -0.378 OA
ATOM     18  H   UNL     1     -38.970  24.593   4.674  0.00  0.00    +0.211 HD
ENDBRANCH   2  17
BRANCH   4  19
ATOM     19  O   UNL     1     -40.601  23.401   1.465  0.00  0.00    -0.379 OA
ATOM     20  H   UNL     1     -40.221  23.838   0.688  0.00  0.00    +0.211 HD
ENDBRANCH   4  19
BRANCH   5  21
ATOM     21  O   UNL     1     -39.553  20.753   1.054  0.00  0.00    -0.379 OA
ATOM     22  H   UNL     1     -39.528  20.112   1.782  0.00  0.00    +0.211 HD
ENDBRANCH   5  21
BRANCH   6  23
ATOM     23  C   UNL     1     -36.562  20.563   1.247  0.00  0.00    +0.169 C 
BRANCH  23  24
ATOM     24  O   UNL     1     -36.919  19.204   1.416  0.00  0.00    -0.379 OA
ATOM     25  H   UNL     1     -36.195  18.638   1.103  0.00  0.00    +0.211 HD
ENDBRANCH  23  24
ENDBRANCH   6  23
TORSDOF 8
ENDMDL
MODEL 5
REMARK VINA RESULT:      -5.7      1.486      3.289
REMARK  Name = 53754048
REMARK  8 active torsions:
REMARK  status: ('A' for Active; 'I' for Inactive)
REMARK    1  A    between atoms: C_2  and  O_17
REMARK    2  A    between atoms: C_3  and  N_7
REMARK    3  A    between atoms: C_4  and  O_19
REMARK    4  A    between atoms: C_5  and  O_21
REMARK    5  A    between atoms: C_6  and  C_23
REMARK    6  A    between atoms: C_10  and  C_14
REMARK    7  A    between atoms: C_14  and  O_15
REMARK    8  A    between atoms: C_23  and  O_24
REMARK                            x       y       z     vdW  Elec       q    Type
REMARK                         _______ _______ _______ _____ _____    ______ ____
ROOT
ATOM      1  O   UNL     1     -34.485  20.557   2.233  0.00  0.00    -0.333 OA
ATOM      2  C   UNL     1     -36.840  20.959   1.785  0.00  0.00    +0.187 C 
ATOM      3  C   UNL     1     -35.770  20.679   2.842  0.00  0.00    +0.223 C 
ATOM      4  C   UNL     1     -36.801  19.909   0.672  0.00  0.00    +0.171 C 
ATOM      5  C   UNL     1     -35.380  19.696   0.148  0.00  0.00    +0.169 C 
ATOM      6  C   UNL     1     -34.409  19.467   1.311  0.00  0.00    +0.175 C 
ENDROOT
BRANCH   3   7
ATOM      7  N   UNL     1     -35.741  21.765   3.801  0.00  0.00    -0.279 N 
ATOM      8  C   UNL     1     -36.096  23.107   3.297  0.00  0.00    +0.126 C 
ATOM      9  C   UNL     1     -35.295  21.589   5.104  0.00  0.00    +0.063 C 
ATOM     10  C   UNL     1     -35.980  24.165   4.367  0.00  0.00    +0.073 C 
ATOM     11  C   UNL     1     -35.196  22.577   6.005  0.00  0.00    +0.016 C 
ATOM     12  C   UNL     1     -35.565  23.919   5.620  0.00  0.00    +0.005 C 
BRANCH  10  14
ATOM     13  O   UNL     1     -36.327  26.000   2.895  0.00  0.00    -0.245 OA
ATOM     14  C   UNL     1     -36.340  25.544   4.025  0.00  0.00    +0.336 C 
BRANCH  14  15
ATOM     15  O   UNL     1     -36.680  26.214   5.144  0.00  0.00    -0.477 OA
ATOM     16  H   UNL     1     -36.023  26.659   5.643  0.00  0.00    +0.295 HD
ENDBRANCH  14  15
ENDBRANCH  10  14
ENDBRANCH   3   7
BRANCH   2  17
ATOM     17  O   UNL     1     -38.126  20.927   2.405  0.00  0.00    -0.378 OA
ATOM     18  H   UNL     1     -38.810  20.840   1.724  0.00  0.00    +0.211 HD
ENDBRANCH   2  17
BRANCH   4  19
ATOM     19  O   UNL     1     -37.646  20.330  -0.401  0.00  0.00    -0.379 OA
ATOM     20  H   UNL     1     -37.805  21.283  -0.333  0.00  0.00    +0.211 HD
ENDBRANCH   4  19
BRANCH   5  21
ATOM     21  O   UNL     1     -35.394  18.567  -0.720  0.00  0.00    -0.379 OA
ATOM     22  H   UNL     1     -34.557  18.084  -0.635  0.00  0.00    +0.211 HD
ENDBRANCH   5  21
BRANCH   6  23
ATOM     23  C   UNL     1     -32.960  19.374   0.843  0.00  0.00    +0.169 C 
BRANCH  23  24
ATOM     24  O   UNL     1     -32.350  18.269   1.482  0.00  0.00    -0.379 OA
ATOM     25  H   UNL     1     -32.716  17.445   1.121  0.00  0.00    +0.211 HD
ENDBRANCH  23  24
ENDBRANCH   6  23
TORSDOF 8
ENDMDL
MODEL 6
REMARK VINA RESULT:      -5.7      2.572      3.642
REMARK  Name = 53754048
REMARK  8 active torsions:
REMARK  status: ('A' for Active; 'I' for Inactive)
REMARK    1  A    between atoms: C_2  and  O_17
REMARK    2  A    between atoms: C_3  and  N_7
REMARK    3  A    between atoms: C_4  and  O_19
REMARK    4  A    between atoms: C_5  and  O_21
REMARK    5  A    between atoms: C_6  and  C_23
REMARK    6  A    between atoms: C_10  and  C_14
REMARK    7  A    between atoms: C_14  and  O_15
REMARK    8  A    between atoms: C_23  and  O_24
REMARK                            x       y       z     vdW  Elec       q    Type
REMARK                         _______ _______ _______ _____ _____    ______ ____
ROOT
ATOM      1  O   UNL     1     -38.418  25.186   3.203  0.00  0.00    -0.333 OA
ATOM      2  C   UNL     1     -37.248  23.072   2.943  0.00  0.00    +0.187 C 
ATOM      3  C   UNL     1     -37.161  24.597   2.874  0.00  0.00    +0.223 C 
ATOM      4  C   UNL     1     -38.399  22.547   2.082  0.00  0.00    +0.171 C 
ATOM      5  C   UNL     1     -39.698  23.307   2.355  0.00  0.00    +0.169 C 
ATOM      6  C   UNL     1     -39.459  24.819   2.294  0.00  0.00    +0.175 C 
ENDROOT
BRANCH   3   7
ATOM      7  N   UNL     1     -36.157  25.068   3.806  0.00  0.00    -0.279 N 
ATOM      8  C   UNL     1     -35.198  26.071   3.300  0.00  0.00    +0.126 C 
ATOM      9  C   UNL     1     -36.018  24.530   5.079  0.00  0.00    +0.063 C 
ATOM     10  C   UNL     1     -34.168  26.447   4.337  0.00  0.00    +0.073 C 
ATOM     11  C   UNL     1     -35.067  24.894   5.950  0.00  0.00    +0.016 C 
ATOM     12  C   UNL     1     -34.108  25.903   5.563  0.00  0.00    +0.005 C 
BRANCH  10  14
ATOM     13  O   UNL     1     -33.330  28.663   4.138  0.00  0.00    -0.245 OA
ATOM     14  C   UNL     1     -33.171  27.464   3.992  0.00  0.00    +0.336 C 
BRANCH  14  15
ATOM     15  O   UNL     1     -32.068  26.867   3.495  0.00  0.00    -0.477 OA
ATOM     16  H   UNL     1     -31.271  27.352   3.410  0.00  0.00    +0.295 HD
ENDBRANCH  14  15
ENDBRANCH  10  14
ENDBRANCH   3   7
BRANCH   2  17
ATOM     17  O   UNL     1     -36.023  22.514   2.466  0.00  0.00    -0.378 OA
ATOM     18  H   UNL     1     -35.484  22.226   3.219  0.00  0.00    +0.211 HD
ENDBRANCH   2  17
BRANCH   4  19
ATOM     19  O   UNL     1     -38.594  21.158   2.353  0.00  0.00    -0.379 OA
ATOM     20  H   UNL     1     -37.767  20.678   2.197  0.00  0.00    +0.211 HD
ENDBRANCH   4  19
BRANCH   5  21
ATOM     21  O   UNL     1     -40.655  22.913   1.376  0.00  0.00    -0.379 OA
ATOM     22  H   UNL     1     -41.517  22.784   1.801  0.00  0.00    +0.211 HD
ENDBRANCH   5  21
BRANCH   6  23
ATOM     23  C   UNL     1     -40.699  25.616   2.683  0.00  0.00    +0.169 C 
BRANCH  23  24
ATOM     24  O   UNL     1     -40.322  26.606   3.621  0.00  0.00    -0.379 OA
ATOM     25  H   UNL     1     -39.375  26.797   3.527  0.00  0.00    +0.211 HD
ENDBRANCH  23  24
ENDBRANCH   6  23
TORSDOF 8
ENDMDL
MODEL 7
REMARK VINA RESULT:      -5.6      1.861      2.657
REMARK  Name = 53754048
REMARK  8 active torsions:
REMARK  status: ('A' for Active; 'I' for Inactive)
REMARK    1  A    between atoms: C_2  and  O_17
REMARK    2  A    between atoms: C_3  and  N_7
REMARK    3  A    between atoms: C_4  and  O_19
REMARK    4  A    between atoms: C_5  and  O_21
REMARK    5  A    between atoms: C_6  and  C_23
REMARK    6  A    between atoms: C_10  and  C_14
REMARK    7  A    between atoms: C_14  and  O_15
REMARK    8  A    between atoms: C_23  and  O_24
REMARK                            x       y       z     vdW  Elec       q    Type
REMARK                         _______ _______ _______ _____ _____    ______ ____
ROOT
ATOM      1  O   UNL     1     -34.949  22.330   1.186  0.00  0.00    -0.333 OA
ATOM      2  C   UNL     1     -36.638  20.713   1.848  0.00  0.00    +0.187 C 
ATOM      3  C   UNL     1     -35.307  21.385   2.192  0.00  0.00    +0.223 C 
ATOM      4  C   UNL     1     -36.601  20.107   0.443  0.00  0.00    +0.171 C 
ATOM      5  C   UNL     1     -36.067  21.105  -0.585  0.00  0.00    +0.169 C 
ATOM      6  C   UNL     1     -34.755  21.729  -0.097  0.00  0.00    +0.175 C 
ENDROOT
BRANCH   3   7
ATOM      7  N   UNL     1     -35.424  22.066   3.465  0.00  0.00    -0.279 N 
ATOM      8  C   UNL     1     -35.765  23.503   3.422  0.00  0.00    +0.126 C 
ATOM      9  C   UNL     1     -35.123  21.443   4.669  0.00  0.00    +0.063 C 
ATOM     10  C   UNL     1     -35.806  24.120   4.799  0.00  0.00    +0.073 C 
ATOM     11  C   UNL     1     -35.160  22.052   5.862  0.00  0.00    +0.016 C 
ATOM     12  C   UNL     1     -35.528  23.448   5.928  0.00  0.00    +0.005 C 
BRANCH  10  14
ATOM     13  O   UNL     1     -35.488  26.378   5.470  0.00  0.00    -0.245 OA
ATOM     14  C   UNL     1     -36.171  25.534   4.918  0.00  0.00    +0.336 C 
BRANCH  14  15
ATOM     15  O   UNL     1     -37.365  25.744   4.327  0.00  0.00    -0.477 OA
ATOM     16  H   UNL     1     -37.912  25.017   4.102  0.00  0.00    +0.295 HD
ENDBRANCH  14  15
ENDBRANCH  10  14
ENDBRANCH   3   7
BRANCH   2  17
ATOM     17  O   UNL     1     -36.892  19.672   2.792  0.00  0.00    -0.378 OA
ATOM     18  H   UNL     1     -36.402  19.852   3.610  0.00  0.00    +0.211 HD
ENDBRANCH   2  17
BRANCH   4  19
ATOM     19  O   UNL     1     -37.919  19.701   0.071  0.00  0.00    -0.379 OA
ATOM     20  H   UNL     1     -37.928  18.746  -0.094  0.00  0.00    +0.211 HD
ENDBRANCH   4  19
BRANCH   5  21
ATOM     21  O   UNL     1     -35.861  20.409  -1.811  0.00  0.00    -0.379 OA
ATOM     22  H   UNL     1     -36.399  20.816  -2.508  0.00  0.00    +0.211 HD
ENDBRANCH   5  21
BRANCH   6  23
ATOM     23  C   UNL     1     -34.251  22.822  -1.035  0.00  0.00    +0.169 C 
BRANCH  23  24
ATOM     24  O   UNL     1     -35.367  23.436  -1.652  0.00  0.00    -0.379 OA
ATOM     25  H   UNL     1     -35.369  23.226  -2.599  0.00  0.00    +0.211 HD
ENDBRANCH  23  24
ENDBRANCH   6  23
TORSDOF 8
ENDMDL
MODEL 8
REMARK VINA RESULT:      -5.6      1.917      6.229
REMARK  Name = 53754048
REMARK  8 active torsions:
REMARK  status: ('A' for Active; 'I' for Inactive)
REMARK    1  A    between atoms: C_2  and  O_17
REMARK    2  A    between atoms: C_3  and  N_7
REMARK    3  A    between atoms: C_4  and  O_19
REMARK    4  A    between atoms: C_5  and  O_21
REMARK    5  A    between atoms: C_6  and  C_23
REMARK    6  A    between atoms: C_10  and  C_14
REMARK    7  A    between atoms: C_14  and  O_15
REMARK    8  A    between atoms: C_23  and  O_24
REMARK                            x       y       z     vdW  Elec       q    Type
REMARK                         _______ _______ _______ _____ _____    ______ ____
ROOT
ATOM      1  O   UNL     1     -36.820  23.498   2.363  0.00  0.00    -0.333 OA
ATOM      2  C   UNL     1     -35.544  22.288   4.041  0.00  0.00    +0.187 C 
ATOM      3  C   UNL     1     -36.604  22.212   2.941  0.00  0.00    +0.223 C 
ATOM      4  C   UNL     1     -35.902  23.357   5.075  0.00  0.00    +0.171 C 
ATOM      5  C   UNL     1     -36.275  24.682   4.410  0.00  0.00    +0.169 C 
ATOM      6  C   UNL     1     -37.313  24.454   3.305  0.00  0.00    +0.175 C 
ENDROOT
BRANCH   3   7
ATOM      7  N   UNL     1     -36.166  21.294   1.909  0.00  0.00    -0.279 N 
ATOM      8  C   UNL     1     -37.147  20.290   1.451  0.00  0.00    +0.126 C 
ATOM      9  C   UNL     1     -34.857  21.274   1.443  0.00  0.00    +0.063 C 
ATOM     10  C   UNL     1     -36.565  19.356   0.416  0.00  0.00    +0.073 C 
ATOM     11  C   UNL     1     -34.395  20.404   0.534  0.00  0.00    +0.016 C 
ATOM     12  C   UNL     1     -35.293  19.411  -0.008  0.00  0.00    +0.005 C 
BRANCH  10  14
ATOM     13  O   UNL     1     -38.178  18.508  -1.111  0.00  0.00    -0.245 OA
ATOM     14  C   UNL     1     -37.435  18.329  -0.161  0.00  0.00    +0.336 C 
BRANCH  14  15
ATOM     15  O   UNL     1     -37.283  17.173   0.517  0.00  0.00    -0.477 OA
ATOM     16  H   UNL     1     -37.528  16.360   0.120  0.00  0.00    +0.295 HD
ENDBRANCH  14  15
ENDBRANCH  10  14
ENDBRANCH   3   7
BRANCH   2  17
ATOM     17  O   UNL     1     -35.460  21.022   4.695  0.00  0.00    -0.378 OA
ATOM     18  H   UNL     1     -34.778  21.059   5.384  0.00  0.00    +0.211 HD
ENDBRANCH   2  17
BRANCH   4  19
ATOM     19  O   UNL     1     -34.788  23.560   5.947  0.00  0.00    -0.379 OA
ATOM     20  H   UNL     1     -34.219  22.776   5.932  0.00  0.00    +0.211 HD
ENDBRANCH   4  19
BRANCH   5  21
ATOM     21  O   UNL     1     -36.798  25.549   5.412  0.00  0.00    -0.379 OA
ATOM     22  H   UNL     1     -37.124  25.022   6.158  0.00  0.00    +0.211 HD
ENDBRANCH   5  21
BRANCH   6  23
ATOM     23  C   UNL     1     -37.622  25.732   2.531  0.00  0.00    +0.169 C 
BRANCH  23  24
ATOM     24  O   UNL     1     -38.579  26.478   3.257  0.00  0.00    -0.379 OA
ATOM     25  H   UNL     1     -38.640  26.133   4.162  0.00  0.00    +0.211 HD
ENDBRANCH  23  24
ENDBRANCH   6  23
TORSDOF 8
ENDMDL
MODEL 9
REMARK VINA RESULT:      -5.6      2.274      2.970
REMARK  Name = 53754048
REMARK  8 active torsions:
REMARK  status: ('A' for Active; 'I' for Inactive)
REMARK    1  A    between atoms: C_2  and  O_17
REMARK    2  A    between atoms: C_3  and  N_7
REMARK    3  A    between atoms: C_4  and  O_19
REMARK    4  A    between atoms: C_5  and  O_21
REMARK    5  A    between atoms: C_6  and  C_23
REMARK    6  A    between atoms: C_10  and  C_14
REMARK    7  A    between atoms: C_14  and  O_15
REMARK    8  A    between atoms: C_23  and  O_24
REMARK                            x       y       z     vdW  Elec       q    Type
REMARK                         _______ _______ _______ _____ _____    ______ ____
ROOT
ATOM      1  O   UNL     1     -35.400  23.203   1.323  0.00  0.00    -0.333 OA
ATOM      2  C   UNL     1     -35.983  21.658   3.106  0.00  0.00    +0.187 C 
ATOM      3  C   UNL     1     -35.105  22.832   2.669  0.00  0.00    +0.223 C 
ATOM      4  C   UNL     1     -35.869  20.490   2.124  0.00  0.00    +0.171 C 
ATOM      5  C   UNL     1     -36.040  20.953   0.677  0.00  0.00    +0.169 C 
ATOM      6  C   UNL     1     -35.135  22.155   0.387  0.00  0.00    +0.175 C 
ENDROOT
BRANCH   3   7
ATOM      7  N   UNL     1     -35.345  23.966   3.538  0.00  0.00    -0.279 N 
ATOM      8  C   UNL     1     -34.154  24.652   4.081  0.00  0.00    +0.126 C 
ATOM      9  C   UNL     1     -36.622  24.333   3.942  0.00  0.00    +0.063 C 
ATOM     10  C   UNL     1     -34.523  25.780   5.013  0.00  0.00    +0.073 C 
ATOM     11  C   UNL     1     -36.884  25.336   4.791  0.00  0.00    +0.016 C 
ATOM     12  C   UNL     1     -35.786  26.097   5.340  0.00  0.00    +0.005 C 
BRANCH  10  14
ATOM     13  O   UNL     1     -33.333  26.823   6.788  0.00  0.00    -0.245 OA
ATOM     14  C   UNL     1     -33.444  26.579   5.599  0.00  0.00    +0.336 C 
BRANCH  14  15
ATOM     15  O   UNL     1     -32.608  26.995   4.625  0.00  0.00    -0.477 OA
ATOM     16  H   UNL     1     -32.949  27.240   3.787  0.00  0.00    +0.295 HD
ENDBRANCH  14  15
ENDBRANCH  10  14
ENDBRANCH   3   7
BRANCH   2  17
ATOM     17  O   UNL     1     -35.561  21.218   4.397  0.00  0.00    -0.378 OA
ATOM     18  H   UNL     1     -34.863  21.805   4.726  0.00  0.00    +0.211 HD
ENDBRANCH   2  17
BRANCH   4  19
ATOM     19  O   UNL     1     -36.867  19.516   2.433  0.00  0.00    -0.379 OA
ATOM     20  H   UNL     1     -36.499  18.627   2.316  0.00  0.00    +0.211 HD
ENDBRANCH   4  19
BRANCH   5  21
ATOM     21  O   UNL     1     -35.709  19.863  -0.179  0.00  0.00    -0.379 OA
ATOM     22  H   UNL     1     -35.315  20.203  -0.997  0.00  0.00    +0.211 HD
ENDBRANCH   5  21
BRANCH   6  23
ATOM     23  C   UNL     1     -35.364  22.729  -1.008  0.00  0.00    +0.169 C 
BRANCH  23  24
ATOM     24  O   UNL     1     -36.648  22.333  -1.452  0.00  0.00    -0.379 OA
ATOM     25  H   UNL     1     -36.587  21.996  -2.361  0.00  0.00    +0.211 HD
ENDBRANCH  23  24
ENDBRANCH   6  23
TORSDOF 8
ENDMDL
