MODEL 1
REMARK VINA RESULT:      -5.7      0.000      0.000
REMARK  Name = 54347690
REMARK  4 active torsions:
REMARK  status: ('A' for Active; 'I' for Inactive)
REMARK    1  A    between atoms: N_3  and  C_16
REMARK    2  A    between atoms: C_14  and  O_18
REMARK    3  A    between atoms: C_17  and  C_20
REMARK    4  A    between atoms: C_20  and  O_21
REMARK                            x       y       z     vdW  Elec       q    Type
REMARK                         _______ _______ _______ _____ _____    ______ ____
ROOT
ATOM      1 CL   UNL     1     -36.921  21.482  -0.468  0.00  0.00    -0.077 Cl
ATOM      2  O   UNL     1     -35.140  21.275   4.987  0.00  0.00    -0.193 OA
ATOM      3  N   UNL     1     -36.197  22.465   3.317  0.00  0.00    -0.178 N 
ATOM      4  N   UNL     1     -35.303  20.255   2.967  0.00  0.00    -0.305 NA
ATOM      5  N   UNL     1     -35.454  19.191   0.914  0.00  0.00    -0.331 N 
ATOM      6  C   UNL     1     -36.616  22.489   1.996  0.00  0.00    +0.095 C 
ATOM      7  C   UNL     1     -35.525  21.324   3.817  0.00  0.00    +0.276 C 
ATOM      8  C   UNL     1     -36.410  21.468   1.166  0.00  0.00    +0.118 C 
ATOM      9  C   UNL     1     -35.700  20.281   1.719  0.00  0.00    +0.203 C 
ATOM     10  H   UNL     1     -34.985  18.406   1.279  0.00  0.00    +0.145 HD
ATOM     11  H   UNL     1     -35.746  19.197  -0.025  0.00  0.00    +0.145 HD
ENDROOT
BRANCH   3  16
ATOM     12 CL   UNL     1     -34.039  24.656   4.903  0.00  0.00    -0.108 Cl
ATOM     13  O   UNL     1     -37.773  24.115   3.833  0.00  0.00    -0.333 OA
ATOM     14  C   UNL     1     -36.345  25.977   4.156  0.00  0.00    +0.159 C 
ATOM     15  C   UNL     1     -35.488  24.753   3.892  0.00  0.00    +0.157 C 
ATOM     16  C   UNL     1     -36.461  23.611   4.140  0.00  0.00    +0.224 C 
ATOM     17  C   UNL     1     -37.700  25.539   3.613  0.00  0.00    +0.174 C 
BRANCH  14  18
ATOM     18  O   UNL     1     -36.477  26.240   5.552  0.00  0.00    -0.380 OA
ATOM     19  H   UNL     1     -37.336  26.658   5.722  0.00  0.00    +0.210 HD
ENDBRANCH  14  18
BRANCH  17  20
ATOM     20  C   UNL     1     -37.864  25.797   2.121  0.00  0.00    +0.169 C 
BRANCH  20  21
ATOM     21  O   UNL     1     -37.861  27.198   1.895  0.00  0.00    -0.379 OA
ATOM     22  H   UNL     1     -38.172  27.381   0.995  0.00  0.00    +0.211 HD
ENDBRANCH  20  21
ENDBRANCH  17  20
ENDBRANCH   3  16
TORSDOF 4
ENDMDL
MODEL 2
REMARK VINA RESULT:      -5.5      2.250      2.782
REMARK  Name = 54347690
REMARK  4 active torsions:
REMARK  status: ('A' for Active; 'I' for Inactive)
REMARK    1  A    between atoms: N_3  and  C_16
REMARK    2  A    between atoms: C_14  and  O_18
REMARK    3  A    between atoms: C_17  and  C_20
REMARK    4  A    between atoms: C_20  and  O_21
REMARK                            x       y       z     vdW  Elec       q    Type
REMARK                         _______ _______ _______ _____ _____    ______ ____
ROOT
ATOM      1 CL   UNL     1     -34.056  19.460   1.857  0.00  0.00    -0.077 Cl
ATOM      2  O   UNL     1     -38.663  22.806   2.597  0.00  0.00    -0.193 OA
ATOM      3  N   UNL     1     -36.434  22.417   3.046  0.00  0.00    -0.178 N 
ATOM      4  N   UNL     1     -37.753  20.949   1.664  0.00  0.00    -0.305 NA
ATOM      5  N   UNL     1     -36.849  19.046   0.701  0.00  0.00    -0.331 N 
ATOM      6  C   UNL     1     -35.338  21.592   2.851  0.00  0.00    +0.095 C 
ATOM      7  C   UNL     1     -37.671  22.092   2.440  0.00  0.00    +0.276 C 
ATOM      8  C   UNL     1     -35.401  20.490   2.107  0.00  0.00    +0.118 C 
ATOM      9  C   UNL     1     -36.715  20.171   1.482  0.00  0.00    +0.203 C 
ATOM     10  H   UNL     1     -37.718  18.835   0.287  0.00  0.00    +0.145 HD
ATOM     11  H   UNL     1     -36.078  18.452   0.556  0.00  0.00    +0.145 HD
ENDROOT
BRANCH   3  16
ATOM     12 CL   UNL     1     -35.448  22.749   6.347  0.00  0.00    -0.108 Cl
ATOM     13  O   UNL     1     -36.061  24.726   3.015  0.00  0.00    -0.333 OA
ATOM     14  C   UNL     1     -34.631  24.948   4.892  0.00  0.00    +0.159 C 
ATOM     15  C   UNL     1     -35.070  23.500   4.789  0.00  0.00    +0.157 C 
ATOM     16  C   UNL     1     -36.275  23.585   3.865  0.00  0.00    +0.224 C 
ATOM     17  C   UNL     1     -34.915  25.466   3.486  0.00  0.00    +0.174 C 
BRANCH  14  18
ATOM     18  O   UNL     1     -35.433  25.680   5.817  0.00  0.00    -0.380 OA
ATOM     19  H   UNL     1     -35.439  26.618   5.569  0.00  0.00    +0.210 HD
ENDBRANCH  14  18
BRANCH  17  20
ATOM     20  C   UNL     1     -33.767  25.230   2.514  0.00  0.00    +0.169 C 
BRANCH  20  21
ATOM     21  O   UNL     1     -32.581  25.782   3.063  0.00  0.00    -0.379 OA
ATOM     22  H   UNL     1     -32.457  26.683   2.727  0.00  0.00    +0.211 HD
ENDBRANCH  20  21
ENDBRANCH  17  20
ENDBRANCH   3  16
TORSDOF 4
ENDMDL
MODEL 3
REMARK VINA RESULT:      -5.2      3.049      5.065
REMARK  Name = 54347690
REMARK  4 active torsions:
REMARK  status: ('A' for Active; 'I' for Inactive)
REMARK    1  A    between atoms: N_3  and  C_16
REMARK    2  A    between atoms: C_14  and  O_18
REMARK    3  A    between atoms: C_17  and  C_20
REMARK    4  A    between atoms: C_20  and  O_21
REMARK                            x       y       z     vdW  Elec       q    Type
REMARK                         _______ _______ _______ _____ _____    ______ ____
ROOT
ATOM      1 CL   UNL     1     -34.904  27.364   2.428  0.00  0.00    -0.077 Cl
ATOM      2  O   UNL     1     -35.818  22.990   6.034  0.00  0.00    -0.193 OA
ATOM      3  N   UNL     1     -36.211  23.938   3.967  0.00  0.00    -0.178 N 
ATOM      4  N   UNL     1     -34.824  24.990   5.634  0.00  0.00    -0.305 NA
ATOM      5  N   UNL     1     -33.799  27.032   5.252  0.00  0.00    -0.331 N 
ATOM      6  C   UNL     1     -35.974  25.006   3.118  0.00  0.00    +0.095 C 
ATOM      7  C   UNL     1     -35.624  23.926   5.256  0.00  0.00    +0.276 C 
ATOM      8  C   UNL     1     -35.206  26.037   3.467  0.00  0.00    +0.118 C 
ATOM      9  C   UNL     1     -34.602  25.998   4.828  0.00  0.00    +0.203 C 
ATOM     10  H   UNL     1     -33.399  27.007   6.152  0.00  0.00    +0.145 HD
ATOM     11  H   UNL     1     -33.624  27.796   4.658  0.00  0.00    +0.145 HD
ENDROOT
BRANCH   3  16
ATOM     12 CL   UNL     1     -39.506  23.950   2.909  0.00  0.00    -0.108 Cl
ATOM     13  O   UNL     1     -36.225  21.803   3.012  0.00  0.00    -0.333 OA
ATOM     14  C   UNL     1     -38.088  22.002   1.562  0.00  0.00    +0.159 C 
ATOM     15  C   UNL     1     -37.960  23.285   2.360  0.00  0.00    +0.157 C 
ATOM     16  C   UNL     1     -37.053  22.870   3.508  0.00  0.00    +0.224 C 
ATOM     17  C   UNL     1     -36.697  21.395   1.711  0.00  0.00    +0.174 C 
BRANCH  14  18
ATOM     18  O   UNL     1     -39.038  21.110   2.142  0.00  0.00    -0.380 OA
ATOM     19  H   UNL     1     -38.817  20.963   3.076  0.00  0.00    +0.210 HD
ENDBRANCH  14  18
BRANCH  17  20
ATOM     20  C   UNL     1     -35.707  21.896   0.669  0.00  0.00    +0.169 C 
BRANCH  20  21
ATOM     21  O   UNL     1     -34.443  22.078   1.288  0.00  0.00    -0.379 OA
ATOM     22  H   UNL     1     -33.745  22.040   0.616  0.00  0.00    +0.211 HD
ENDBRANCH  20  21
ENDBRANCH  17  20
ENDBRANCH   3  16
TORSDOF 4
ENDMDL
MODEL 4
REMARK VINA RESULT:      -5.2      3.195      5.169
REMARK  Name = 54347690
REMARK  4 active torsions:
REMARK  status: ('A' for Active; 'I' for Inactive)
REMARK    1  A    between atoms: N_3  and  C_16
REMARK    2  A    between atoms: C_14  and  O_18
REMARK    3  A    between atoms: C_17  and  C_20
REMARK    4  A    between atoms: C_20  and  O_21
REMARK                            x       y       z     vdW  Elec       q    Type
REMARK                         _______ _______ _______ _____ _____    ______ ____
ROOT
ATOM      1 CL   UNL     1     -37.059  27.626   1.170  0.00  0.00    -0.077 Cl
ATOM      2  O   UNL     1     -33.394  25.438   5.010  0.00  0.00    -0.193 OA
ATOM      3  N   UNL     1     -34.969  25.055   3.368  0.00  0.00    -0.178 N 
ATOM      4  N   UNL     1     -34.310  27.273   4.040  0.00  0.00    -0.305 NA
ATOM      5  N   UNL     1     -35.230  29.164   3.068  0.00  0.00    -0.331 N 
ATOM      6  C   UNL     1     -35.846  25.609   2.450  0.00  0.00    +0.095 C 
ATOM      7  C   UNL     1     -34.181  25.903   4.184  0.00  0.00    +0.276 C 
ATOM      8  C   UNL     1     -35.980  26.926   2.300  0.00  0.00    +0.118 C 
ATOM      9  C   UNL     1     -35.140  27.794   3.171  0.00  0.00    +0.203 C 
ATOM     10  H   UNL     1     -34.675  29.738   3.643  0.00  0.00    +0.145 HD
ATOM     11  H   UNL     1     -35.850  29.569   2.419  0.00  0.00    +0.145 HD
ENDROOT
BRANCH   3  16
ATOM     12 CL   UNL     1     -35.304  22.947   6.092  0.00  0.00    -0.108 Cl
ATOM     13  O   UNL     1     -35.174  23.055   2.173  0.00  0.00    -0.333 OA
ATOM     14  C   UNL     1     -36.215  21.691   3.808  0.00  0.00    +0.159 C 
ATOM     15  C   UNL     1     -35.907  23.040   4.430  0.00  0.00    +0.157 C 
ATOM     16  C   UNL     1     -34.890  23.625   3.463  0.00  0.00    +0.224 C 
ATOM     17  C   UNL     1     -36.158  22.009   2.318  0.00  0.00    +0.174 C 
BRANCH  14  18
ATOM     18  O   UNL     1     -35.205  20.728   4.107  0.00  0.00    -0.380 OA
ATOM     19  H   UNL     1     -35.025  20.192   3.318  0.00  0.00    +0.210 HD
ENDBRANCH  14  18
BRANCH  17  20
ATOM     20  C   UNL     1     -37.479  22.520   1.760  0.00  0.00    +0.169 C 
BRANCH  20  21
ATOM     21  O   UNL     1     -38.542  21.808   2.374  0.00  0.00    -0.379 OA
ATOM     22  H   UNL     1     -39.277  22.415   2.552  0.00  0.00    +0.211 HD
ENDBRANCH  20  21
ENDBRANCH  17  20
ENDBRANCH   3  16
TORSDOF 4
ENDMDL
MODEL 5
REMARK VINA RESULT:      -5.1      1.664      2.144
REMARK  Name = 54347690
REMARK  4 active torsions:
REMARK  status: ('A' for Active; 'I' for Inactive)
REMARK    1  A    between atoms: N_3  and  C_16
REMARK    2  A    between atoms: C_14  and  O_18
REMARK    3  A    between atoms: C_17  and  C_20
REMARK    4  A    between atoms: C_20  and  O_21
REMARK                            x       y       z     vdW  Elec       q    Type
REMARK                         _______ _______ _______ _____ _____    ______ ____
ROOT
ATOM      1 CL   UNL     1     -36.378  20.629  -0.966  0.00  0.00    -0.077 Cl
ATOM      2  O   UNL     1     -35.512  21.898   4.566  0.00  0.00    -0.193 OA
ATOM      3  N   UNL     1     -36.445  22.498   2.543  0.00  0.00    -0.178 N 
ATOM      4  N   UNL     1     -35.184  20.466   2.838  0.00  0.00    -0.305 NA
ATOM      5  N   UNL     1     -34.832  18.987   1.090  0.00  0.00    -0.331 N 
ATOM      6  C   UNL     1     -36.638  22.167   1.212  0.00  0.00    +0.095 C 
ATOM      7  C   UNL     1     -35.701  21.630   3.379  0.00  0.00    +0.276 C 
ATOM      8  C   UNL     1     -36.147  21.050   0.677  0.00  0.00    +0.118 C 
ATOM      9  C   UNL     1     -35.368  20.157   1.579  0.00  0.00    +0.203 C 
ATOM     10  H   UNL     1     -34.317  18.395   1.685  0.00  0.00    +0.145 HD
ATOM     11  H   UNL     1     -34.963  18.742   0.146  0.00  0.00    +0.145 HD
ENDROOT
BRANCH   3  16
ATOM     12 CL   UNL     1     -35.647  25.794   1.855  0.00  0.00    -0.108 Cl
ATOM     13  O   UNL     1     -38.353  23.469   3.485  0.00  0.00    -0.333 OA
ATOM     14  C   UNL     1     -38.347  25.566   2.382  0.00  0.00    +0.159 C 
ATOM     15  C   UNL     1     -37.107  24.799   1.965  0.00  0.00    +0.157 C 
ATOM     16  C   UNL     1     -37.010  23.722   3.034  0.00  0.00    +0.224 C 
ATOM     17  C   UNL     1     -39.242  24.455   2.919  0.00  0.00    +0.174 C 
BRANCH  14  18
ATOM     18  O   UNL     1     -38.073  26.481   3.442  0.00  0.00    -0.380 OA
ATOM     19  H   UNL     1     -37.114  26.538   3.580  0.00  0.00    +0.210 HD
ENDBRANCH  14  18
BRANCH  17  20
ATOM     20  C   UNL     1     -40.075  23.777   1.839  0.00  0.00    +0.169 C 
BRANCH  20  21
ATOM     21  O   UNL     1     -40.174  22.394   2.138  0.00  0.00    -0.379 OA
ATOM     22  H   UNL     1     -41.103  22.162   2.294  0.00  0.00    +0.211 HD
ENDBRANCH  20  21
ENDBRANCH  17  20
ENDBRANCH   3  16
TORSDOF 4
ENDMDL
MODEL 6
REMARK VINA RESULT:      -5.0      2.580      3.168
REMARK  Name = 54347690
REMARK  4 active torsions:
REMARK  status: ('A' for Active; 'I' for Inactive)
REMARK    1  A    between atoms: N_3  and  C_16
REMARK    2  A    between atoms: C_14  and  O_18
REMARK    3  A    between atoms: C_17  and  C_20
REMARK    4  A    between atoms: C_20  and  O_21
REMARK                            x       y       z     vdW  Elec       q    Type
REMARK                         _______ _______ _______ _____ _____    ______ ____
ROOT
ATOM      1 CL   UNL     1     -40.174  24.134   2.272  0.00  0.00    -0.077 Cl
ATOM      2  O   UNL     1     -35.391  20.961   2.431  0.00  0.00    -0.193 OA
ATOM      3  N   UNL     1     -36.384  23.023   2.726  0.00  0.00    -0.178 N 
ATOM      4  N   UNL     1     -37.623  21.075   2.038  0.00  0.00    -0.305 NA
ATOM      5  N   UNL     1     -39.902  21.163   1.628  0.00  0.00    -0.331 N 
ATOM      6  C   UNL     1     -37.552  23.765   2.679  0.00  0.00    +0.095 C 
ATOM      7  C   UNL     1     -36.415  21.645   2.399  0.00  0.00    +0.276 C 
ATOM      8  C   UNL     1     -38.722  23.229   2.335  0.00  0.00    +0.118 C 
ATOM      9  C   UNL     1     -38.726  21.779   1.994  0.00  0.00    +0.203 C 
ATOM     10  H   UNL     1     -39.905  20.204   1.403  0.00  0.00    +0.145 HD
ATOM     11  H   UNL     1     -40.738  21.681   1.591  0.00  0.00    +0.145 HD
ENDROOT
BRANCH   3  16
ATOM     12 CL   UNL     1     -34.465  25.372   1.061  0.00  0.00    -0.108 Cl
ATOM     13  O   UNL     1     -35.059  23.668   4.543  0.00  0.00    -0.333 OA
ATOM     14  C   UNL     1     -34.305  25.783   3.786  0.00  0.00    +0.159 C 
ATOM     15  C   UNL     1     -35.129  25.143   2.686  0.00  0.00    +0.157 C 
ATOM     16  C   UNL     1     -35.168  23.682   3.109  0.00  0.00    +0.224 C 
ATOM     17  C   UNL     1     -34.751  24.997   5.014  0.00  0.00    +0.174 C 
BRANCH  14  18
ATOM     18  O   UNL     1     -32.908  25.571   3.593  0.00  0.00    -0.380 OA
ATOM     19  H   UNL     1     -32.682  25.732   2.663  0.00  0.00    +0.210 HD
ENDBRANCH  14  18
BRANCH  17  20
ATOM     20  C   UNL     1     -35.999  25.566   5.674  0.00  0.00    +0.169 C 
BRANCH  20  21
ATOM     21  O   UNL     1     -36.241  26.864   5.153  0.00  0.00    -0.379 OA
ATOM     22  H   UNL     1     -36.324  27.495   5.884  0.00  0.00    +0.211 HD
ENDBRANCH  20  21
ENDBRANCH  17  20
ENDBRANCH   3  16
TORSDOF 4
ENDMDL
MODEL 7
REMARK VINA RESULT:      -5.0      2.836      4.211
REMARK  Name = 54347690
REMARK  4 active torsions:
REMARK  status: ('A' for Active; 'I' for Inactive)
REMARK    1  A    between atoms: N_3  and  C_16
REMARK    2  A    between atoms: C_14  and  O_18
REMARK    3  A    between atoms: C_17  and  C_20
REMARK    4  A    between atoms: C_20  and  O_21
REMARK                            x       y       z     vdW  Elec       q    Type
REMARK                         _______ _______ _______ _____ _____    ______ ____
ROOT
ATOM      1 CL   UNL     1     -34.816  25.952  -0.353  0.00  0.00    -0.077 Cl
ATOM      2  O   UNL     1     -39.458  23.832   2.279  0.00  0.00    -0.193 OA
ATOM      3  N   UNL     1     -37.179  24.191   2.316  0.00  0.00    -0.178 N 
ATOM      4  N   UNL     1     -38.573  24.901   0.483  0.00  0.00    -0.305 NA
ATOM      5  N   UNL     1     -37.695  25.992  -1.362  0.00  0.00    -0.331 N 
ATOM      6  C   UNL     1     -36.076  24.711   1.659  0.00  0.00    +0.095 C 
ATOM      7  C   UNL     1     -38.459  24.286   1.718  0.00  0.00    +0.276 C 
ATOM      8  C   UNL     1     -36.170  25.305   0.471  0.00  0.00    +0.118 C 
ATOM      9  C   UNL     1     -37.528  25.391  -0.135  0.00  0.00    +0.203 C 
ATOM     10  H   UNL     1     -38.593  26.049  -1.763  0.00  0.00    +0.145 HD
ATOM     11  H   UNL     1     -36.919  26.364  -1.838  0.00  0.00    +0.145 HD
ENDROOT
BRANCH   3  16
ATOM     12 CL   UNL     1     -35.498  21.293   3.185  0.00  0.00    -0.108 Cl
ATOM     13  O   UNL     1     -37.124  24.559   4.625  0.00  0.00    -0.333 OA
ATOM     14  C   UNL     1     -35.335  23.132   5.238  0.00  0.00    +0.159 C 
ATOM     15  C   UNL     1     -35.596  22.967   3.753  0.00  0.00    +0.157 C 
ATOM     16  C   UNL     1     -36.985  23.566   3.593  0.00  0.00    +0.224 C 
ATOM     17  C   UNL     1     -36.004  24.470   5.531  0.00  0.00    +0.174 C 
BRANCH  14  18
ATOM     18  O   UNL     1     -35.985  22.120   6.006  0.00  0.00    -0.380 OA
ATOM     19  H   UNL     1     -35.347  21.714   6.613  0.00  0.00    +0.210 HD
ENDBRANCH  14  18
BRANCH  17  20
ATOM     20  C   UNL     1     -35.096  25.666   5.282  0.00  0.00    +0.169 C 
BRANCH  20  21
ATOM     21  O   UNL     1     -35.883  26.749   4.812  0.00  0.00    -0.379 OA
ATOM     22  H   UNL     1     -36.822  26.516   4.873  0.00  0.00    +0.211 HD
ENDBRANCH  20  21
ENDBRANCH  17  20
ENDBRANCH   3  16
TORSDOF 4
ENDMDL
MODEL 8
REMARK VINA RESULT:      -4.9      2.800      3.931
REMARK  Name = 54347690
REMARK  4 active torsions:
REMARK  status: ('A' for Active; 'I' for Inactive)
REMARK    1  A    between atoms: N_3  and  C_16
REMARK    2  A    between atoms: C_14  and  O_18
REMARK    3  A    between atoms: C_17  and  C_20
REMARK    4  A    between atoms: C_20  and  O_21
REMARK                            x       y       z     vdW  Elec       q    Type
REMARK                         _______ _______ _______ _____ _____    ______ ____
ROOT
ATOM      1 CL   UNL     1     -35.901  24.747  -1.333  0.00  0.00    -0.077 Cl
ATOM      2  O   UNL     1     -40.007  22.879   2.220  0.00  0.00    -0.193 OA
ATOM      3  N   UNL     1     -37.779  23.388   1.897  0.00  0.00    -0.178 N 
ATOM      4  N   UNL     1     -39.430  23.634   0.159  0.00  0.00    -0.305 NA
ATOM      5  N   UNL     1     -38.868  24.400  -1.954  0.00  0.00    -0.331 N 
ATOM      6  C   UNL     1     -36.808  23.842   1.019  0.00  0.00    +0.095 C 
ATOM      7  C   UNL     1     -39.122  23.281   1.461  0.00  0.00    +0.276 C 
ATOM      8  C   UNL     1     -37.089  24.186  -0.237  0.00  0.00    +0.118 C 
ATOM      9  C   UNL     1     -38.509  24.062  -0.669  0.00  0.00    +0.203 C 
ATOM     10  H   UNL     1     -39.807  24.318  -2.240  0.00  0.00    +0.145 HD
ATOM     11  H   UNL     1     -38.187  24.722  -2.586  0.00  0.00    +0.145 HD
ENDROOT
BRANCH   3  16
ATOM     12 CL   UNL     1     -35.661  20.909   3.056  0.00  0.00    -0.108 Cl
ATOM     13  O   UNL     1     -37.557  24.185   4.085  0.00  0.00    -0.333 OA
ATOM     14  C   UNL     1     -35.548  23.106   4.726  0.00  0.00    +0.159 C 
ATOM     15  C   UNL     1     -35.923  22.638   3.332  0.00  0.00    +0.157 C 
ATOM     16  C   UNL     1     -37.386  23.039   3.232  0.00  0.00    +0.224 C 
ATOM     17  C   UNL     1     -36.355  24.392   4.857  0.00  0.00    +0.174 C 
BRANCH  14  18
ATOM     18  O   UNL     1     -35.986  22.189   5.727  0.00  0.00    -0.380 OA
ATOM     19  H   UNL     1     -36.946  22.068   5.658  0.00  0.00    +0.210 HD
ENDBRANCH  14  18
BRANCH  17  20
ATOM     20  C   UNL     1     -35.638  25.614   4.300  0.00  0.00    +0.169 C 
BRANCH  20  21
ATOM     21  O   UNL     1     -36.113  26.770   4.970  0.00  0.00    -0.379 OA
ATOM     22  H   UNL     1     -37.042  26.922   4.735  0.00  0.00    +0.211 HD
ENDBRANCH  20  21
ENDBRANCH  17  20
ENDBRANCH   3  16
TORSDOF 4
ENDMDL
MODEL 9
REMARK VINA RESULT:      -4.8      3.507      5.069
REMARK  Name = 54347690
REMARK  4 active torsions:
REMARK  status: ('A' for Active; 'I' for Inactive)
REMARK    1  A    between atoms: N_3  and  C_16
REMARK    2  A    between atoms: C_14  and  O_18
REMARK    3  A    between atoms: C_17  and  C_20
REMARK    4  A    between atoms: C_20  and  O_21
REMARK                            x       y       z     vdW  Elec       q    Type
REMARK                         _______ _______ _______ _____ _____    ______ ____
ROOT
ATOM      1 CL   UNL     1     -32.161  24.661  -0.020  0.00  0.00    -0.077 Cl
ATOM      2  O   UNL     1     -33.714  27.055   4.962  0.00  0.00    -0.193 OA
ATOM      3  N   UNL     1     -34.276  25.698   3.183  0.00  0.00    -0.178 N 
ATOM      4  N   UNL     1     -32.128  26.774   3.364  0.00  0.00    -0.305 NA
ATOM      5  N   UNL     1     -30.492  26.505   1.746  0.00  0.00    -0.331 N 
ATOM      6  C   UNL     1     -33.876  25.134   1.983  0.00  0.00    +0.095 C 
ATOM      7  C   UNL     1     -33.385  26.538   3.893  0.00  0.00    +0.276 C 
ATOM      8  C   UNL     1     -32.670  25.351   1.462  0.00  0.00    +0.118 C 
ATOM      9  C   UNL     1     -31.753  26.239   2.229  0.00  0.00    +0.203 C 
ATOM     10  H   UNL     1     -29.885  27.092   2.253  0.00  0.00    +0.145 HD
ATOM     11  H   UNL     1     -30.197  26.111   0.895  0.00  0.00    +0.145 HD
ENDROOT
BRANCH   3  16
ATOM     12 CL   UNL     1     -37.384  26.656   1.999  0.00  0.00    -0.108 Cl
ATOM     13  O   UNL     1     -35.552  24.202   4.450  0.00  0.00    -0.333 OA
ATOM     14  C   UNL     1     -37.548  24.163   3.174  0.00  0.00    +0.159 C 
ATOM     15  C   UNL     1     -36.598  25.169   2.552  0.00  0.00    +0.157 C 
ATOM     16  C   UNL     1     -35.595  25.410   3.670  0.00  0.00    +0.224 C 
ATOM     17  C   UNL     1     -36.603  23.313   4.016  0.00  0.00    +0.174 C 
BRANCH  14  18
ATOM     18  O   UNL     1     -38.491  24.790   4.041  0.00  0.00    -0.380 OA
ATOM     19  H   UNL     1     -38.092  24.918   4.916  0.00  0.00    +0.210 HD
ENDBRANCH  14  18
BRANCH  17  20
ATOM     20  C   UNL     1     -35.966  22.170   3.239  0.00  0.00    +0.169 C 
BRANCH  20  21
ATOM     21  O   UNL     1     -35.693  21.104   4.134  0.00  0.00    -0.379 OA
ATOM     22  H   UNL     1     -36.407  21.038   4.787  0.00  0.00    +0.211 HD
ENDBRANCH  20  21
ENDBRANCH  17  20
ENDBRANCH   3  16
TORSDOF 4
ENDMDL
