MODEL 1
REMARK VINA RESULT:      -6.0      0.000      0.000
REMARK  Name = 194146
REMARK  8 active torsions:
REMARK  status: ('A' for Active; 'I' for Inactive)
REMARK    1  A    between atoms: C_2  and  O_7
REMARK    2  A    between atoms: C_3  and  O_9
REMARK    3  A    between atoms: C_4  and  O_11
REMARK    4  A    between atoms: C_5  and  C_14
REMARK    5  A    between atoms: C_6  and  S_17
REMARK    6  A    between atoms: C_14  and  O_15
REMARK    7  A    between atoms: S_17  and  C_18
REMARK    8  A    between atoms: C_23  and  N_24
REMARK                            x       y       z     vdW  Elec       q    Type
REMARK                         _______ _______ _______ _____ _____    ______ ____
ROOT
ATOM      1  O   UNL     1     -37.842  23.890   3.271  0.00  0.00    -0.332 OA
ATOM      2  C   UNL     1     -39.305  21.963   1.724  0.00  0.00    +0.170 C 
ATOM      3  C   UNL     1     -39.936  23.269   2.210  0.00  0.00    +0.178 C 
ATOM      4  C   UNL     1     -38.093  21.571   2.576  0.00  0.00    +0.178 C 
ATOM      5  C   UNL     1     -38.873  24.342   2.402  0.00  0.00    +0.244 C 
ATOM      6  C   UNL     1     -37.142  22.761   2.747  0.00  0.00    +0.196 C 
ENDROOT
BRANCH   2   7
ATOM      7  O   UNL     1     -40.298  20.939   1.807  0.00  0.00    -0.379 OA
ATOM      8  H   UNL     1     -40.881  20.992   1.033  0.00  0.00    +0.211 HD
ENDBRANCH   2   7
BRANCH   3   9
ATOM      9  O   UNL     1     -40.875  23.724   1.236  0.00  0.00    -0.379 OA
ATOM     10  H   UNL     1     -40.548  23.508   0.348  0.00  0.00    +0.211 HD
ENDBRANCH   3   9
BRANCH   4  11
ATOM     11  O   UNL     1     -37.402  20.507   1.922  0.00  0.00    -0.379 OA
ATOM     12  H   UNL     1     -37.328  20.702   0.975  0.00  0.00    +0.211 HD
ENDBRANCH   4  11
BRANCH   5  14
ATOM     13  O   UNL     1     -40.627  25.663   3.335  0.00  0.00    -0.247 OA
ATOM     14  C   UNL     1     -39.433  25.527   3.121  0.00  0.00    +0.344 C 
BRANCH  14  15
ATOM     15  O   UNL     1     -38.471  26.404   3.497  0.00  0.00    -0.478 OA
ATOM     16  H   UNL     1     -38.630  27.325   3.443  0.00  0.00    +0.295 HD
ENDBRANCH  14  15
ENDBRANCH   5  14
BRANCH   6  17
ATOM     17  S   UNL     1     -35.767  22.317   3.869  0.00  0.00    -0.083 S 
BRANCH  17  18
ATOM     18  C   UNL     1     -35.038  23.919   4.168  0.00  0.00    +0.028 C 
ATOM     19  C   UNL     1     -34.412  24.601   3.129  0.00  0.00    +0.007 C 
ATOM     20  C   UNL     1     -35.100  24.482   5.441  0.00  0.00    +0.007 C 
ATOM     21  C   UNL     1     -33.842  25.853   3.363  0.00  0.00    +0.015 C 
ATOM     22  C   UNL     1     -34.531  25.733   5.676  0.00  0.00    +0.015 C 
ATOM     23  C   UNL     1     -33.902  26.419   4.636  0.00  0.00    +0.042 C 
BRANCH  23  24
ATOM     24  N   UNL     1     -33.327  27.686   4.873  0.00  0.00    -0.357 N 
ATOM     25  H   UNL     1     -32.354  27.808   4.790  0.00  0.00    +0.142 HD
ATOM     26  H   UNL     1     -33.900  28.447   5.119  0.00  0.00    +0.142 HD
ENDBRANCH  23  24
ENDBRANCH  17  18
ENDBRANCH   6  17
TORSDOF 8
ENDMDL
MODEL 2
REMARK VINA RESULT:      -5.9      4.332      6.018
REMARK  Name = 194146
REMARK  8 active torsions:
REMARK  status: ('A' for Active; 'I' for Inactive)
REMARK    1  A    between atoms: C_2  and  O_7
REMARK    2  A    between atoms: C_3  and  O_9
REMARK    3  A    between atoms: C_4  and  O_11
REMARK    4  A    between atoms: C_5  and  C_14
REMARK    5  A    between atoms: C_6  and  S_17
REMARK    6  A    between atoms: C_14  and  O_15
REMARK    7  A    between atoms: S_17  and  C_18
REMARK    8  A    between atoms: C_23  and  N_24
REMARK                            x       y       z     vdW  Elec       q    Type
REMARK                         _______ _______ _______ _____ _____    ______ ____
ROOT
ATOM      1  O   UNL     1     -35.511  22.231   3.361  0.00  0.00    -0.332 OA
ATOM      2  C   UNL     1     -35.937  25.070   3.458  0.00  0.00    +0.170 C 
ATOM      3  C   UNL     1     -36.034  24.186   4.703  0.00  0.00    +0.178 C 
ATOM      4  C   UNL     1     -36.145  24.259   2.174  0.00  0.00    +0.178 C 
ATOM      5  C   UNL     1     -35.175  22.939   4.547  0.00  0.00    +0.244 C 
ATOM      6  C   UNL     1     -35.273  22.999   2.180  0.00  0.00    +0.196 C 
ENDROOT
BRANCH   2   7
ATOM      7  O   UNL     1     -36.946  26.077   3.555  0.00  0.00    -0.379 OA
ATOM      8  H   UNL     1     -37.703  25.829   3.002  0.00  0.00    +0.211 HD
ENDBRANCH   2   7
BRANCH   3   9
ATOM      9  O   UNL     1     -35.572  24.922   5.835  0.00  0.00    -0.379 OA
ATOM     10  H   UNL     1     -36.297  25.464   6.185  0.00  0.00    +0.211 HD
ENDBRANCH   3   9
BRANCH   4  11
ATOM     11  O   UNL     1     -35.786  25.074   1.058  0.00  0.00    -0.379 OA
ATOM     12  H   UNL     1     -34.876  25.392   1.169  0.00  0.00    +0.211 HD
ENDBRANCH   4  11
BRANCH   5  14
ATOM     13  O   UNL     1     -35.973  22.271   6.693  0.00  0.00    -0.247 OA
ATOM     14  C   UNL     1     -35.464  21.951   5.630  0.00  0.00    +0.344 C 
BRANCH  14  15
ATOM     15  O   UNL     1     -35.102  20.691   5.289  0.00  0.00    -0.478 OA
ATOM     16  H   UNL     1     -34.778  20.513   4.429  0.00  0.00    +0.295 HD
ENDBRANCH  14  15
ENDBRANCH   5  14
BRANCH   6  17
ATOM     17  S   UNL     1     -35.624  21.978   0.703  0.00  0.00    -0.083 S 
BRANCH  17  18
ATOM     18  C   UNL     1     -34.241  20.849   0.730  0.00  0.00    +0.028 C 
ATOM     19  C   UNL     1     -33.069  21.171   0.052  0.00  0.00    +0.007 C 
ATOM     20  C   UNL     1     -34.340  19.649   1.432  0.00  0.00    +0.007 C 
ATOM     21  C   UNL     1     -31.989  20.289   0.074  0.00  0.00    +0.015 C 
ATOM     22  C   UNL     1     -33.260  18.767   1.454  0.00  0.00    +0.015 C 
ATOM     23  C   UNL     1     -32.084  19.087   0.774  0.00  0.00    +0.042 C 
BRANCH  23  24
ATOM     24  N   UNL     1     -30.991  18.195   0.797  0.00  0.00    -0.357 N 
ATOM     25  H   UNL     1     -30.341  18.194   0.058  0.00  0.00    +0.142 HD
ATOM     26  H   UNL     1     -30.878  17.575   1.553  0.00  0.00    +0.142 HD
ENDBRANCH  23  24
ENDBRANCH  17  18
ENDBRANCH   6  17
TORSDOF 8
ENDMDL
MODEL 3
REMARK VINA RESULT:      -5.5      1.323      2.039
REMARK  Name = 194146
REMARK  8 active torsions:
REMARK  status: ('A' for Active; 'I' for Inactive)
REMARK    1  A    between atoms: C_2  and  O_7
REMARK    2  A    between atoms: C_3  and  O_9
REMARK    3  A    between atoms: C_4  and  O_11
REMARK    4  A    between atoms: C_5  and  C_14
REMARK    5  A    between atoms: C_6  and  S_17
REMARK    6  A    between atoms: C_14  and  O_15
REMARK    7  A    between atoms: S_17  and  C_18
REMARK    8  A    between atoms: C_23  and  N_24
REMARK                            x       y       z     vdW  Elec       q    Type
REMARK                         _______ _______ _______ _____ _____    ______ ____
ROOT
ATOM      1  O   UNL     1     -37.517  22.723   3.262  0.00  0.00    -0.332 OA
ATOM      2  C   UNL     1     -36.922  20.543   1.490  0.00  0.00    +0.170 C 
ATOM      3  C   UNL     1     -38.285  21.237   1.501  0.00  0.00    +0.178 C 
ATOM      4  C   UNL     1     -36.178  20.741   2.816  0.00  0.00    +0.178 C 
ATOM      5  C   UNL     1     -38.154  22.673   1.992  0.00  0.00    +0.244 C 
ATOM      6  C   UNL     1     -36.182  22.218   3.225  0.00  0.00    +0.196 C 
ENDROOT
BRANCH   2   7
ATOM      7  O   UNL     1     -37.143  19.148   1.271  0.00  0.00    -0.379 OA
ATOM      8  H   UNL     1     -37.571  19.021   0.410  0.00  0.00    +0.211 HD
ENDBRANCH   2   7
BRANCH   3   9
ATOM      9  O   UNL     1     -38.811  21.253   0.175  0.00  0.00    -0.379 OA
ATOM     10  H   UNL     1     -38.087  21.137  -0.460  0.00  0.00    +0.211 HD
ENDBRANCH   3   9
BRANCH   4  11
ATOM     11  O   UNL     1     -34.829  20.302   2.650  0.00  0.00    -0.379 OA
ATOM     12  H   UNL     1     -34.580  20.369   1.715  0.00  0.00    +0.211 HD
ENDBRANCH   4  11
BRANCH   5  14
ATOM     13  O   UNL     1     -40.487  22.982   1.604  0.00  0.00    -0.247 OA
ATOM     14  C   UNL     1     -39.496  23.273   2.256  0.00  0.00    +0.344 C 
BRANCH  14  15
ATOM     15  O   UNL     1     -39.474  24.154   3.285  0.00  0.00    -0.478 OA
ATOM     16  H   UNL     1     -39.449  25.074   3.114  0.00  0.00    +0.295 HD
ENDBRANCH  14  15
ENDBRANCH   5  14
BRANCH   6  17
ATOM     17  S   UNL     1     -35.402  22.422   4.867  0.00  0.00    -0.083 S 
BRANCH  17  18
ATOM     18  C   UNL     1     -34.756  24.083   4.735  0.00  0.00    +0.028 C 
ATOM     19  C   UNL     1     -34.297  24.552   3.509  0.00  0.00    +0.007 C 
ATOM     20  C   UNL     1     -34.717  24.902   5.861  0.00  0.00    +0.007 C 
ATOM     21  C   UNL     1     -33.792  25.849   3.406  0.00  0.00    +0.015 C 
ATOM     22  C   UNL     1     -34.213  26.198   5.759  0.00  0.00    +0.015 C 
ATOM     23  C   UNL     1     -33.750  26.672   4.531  0.00  0.00    +0.042 C 
BRANCH  23  24
ATOM     24  N   UNL     1     -33.241  27.983   4.427  0.00  0.00    -0.357 N 
ATOM     25  H   UNL     1     -32.835  28.417   5.211  0.00  0.00    +0.142 HD
ATOM     26  H   UNL     1     -33.292  28.464   3.569  0.00  0.00    +0.142 HD
ENDBRANCH  23  24
ENDBRANCH  17  18
ENDBRANCH   6  17
TORSDOF 8
ENDMDL
MODEL 4
REMARK VINA RESULT:      -5.5      3.543      6.422
REMARK  Name = 194146
REMARK  8 active torsions:
REMARK  status: ('A' for Active; 'I' for Inactive)
REMARK    1  A    between atoms: C_2  and  O_7
REMARK    2  A    between atoms: C_3  and  O_9
REMARK    3  A    between atoms: C_4  and  O_11
REMARK    4  A    between atoms: C_5  and  C_14
REMARK    5  A    between atoms: C_6  and  S_17
REMARK    6  A    between atoms: C_14  and  O_15
REMARK    7  A    between atoms: S_17  and  C_18
REMARK    8  A    between atoms: C_23  and  N_24
REMARK                            x       y       z     vdW  Elec       q    Type
REMARK                         _______ _______ _______ _____ _____    ______ ____
ROOT
ATOM      1  O   UNL     1     -37.097  22.985   3.879  0.00  0.00    -0.332 OA
ATOM      2  C   UNL     1     -36.372  25.689   4.515  0.00  0.00    +0.170 C 
ATOM      3  C   UNL     1     -35.782  24.490   5.258  0.00  0.00    +0.178 C 
ATOM      4  C   UNL     1     -37.709  25.340   3.852  0.00  0.00    +0.178 C 
ATOM      5  C   UNL     1     -35.791  23.251   4.374  0.00  0.00    +0.244 C 
ATOM      6  C   UNL     1     -37.594  24.037   3.052  0.00  0.00    +0.196 C 
ENDROOT
BRANCH   2   7
ATOM      7  O   UNL     1     -36.571  26.739   5.465  0.00  0.00    -0.379 OA
ATOM      8  H   UNL     1     -36.959  26.372   6.275  0.00  0.00    +0.211 HD
ENDBRANCH   2   7
BRANCH   3   9
ATOM      9  O   UNL     1     -34.434  24.783   5.622  0.00  0.00    -0.379 OA
ATOM     10  H   UNL     1     -34.004  23.974   5.941  0.00  0.00    +0.211 HD
ENDBRANCH   3   9
BRANCH   4  11
ATOM     11  O   UNL     1     -38.071  26.403   2.970  0.00  0.00    -0.379 OA
ATOM     12  H   UNL     1     -37.863  27.254   3.387  0.00  0.00    +0.211 HD
ENDBRANCH   4  11
BRANCH   5  14
ATOM     13  O   UNL     1     -35.235  22.059   6.364  0.00  0.00    -0.247 OA
ATOM     14  C   UNL     1     -35.467  22.026   5.165  0.00  0.00    +0.344 C 
BRANCH  14  15
ATOM     15  O   UNL     1     -35.467  20.905   4.405  0.00  0.00    -0.478 OA
ATOM     16  H   UNL     1     -35.183  20.943   3.513  0.00  0.00    +0.295 HD
ENDBRANCH  14  15
ENDBRANCH   5  14
BRANCH   6  17
ATOM     17  S   UNL     1     -39.225  23.566   2.370  0.00  0.00    -0.083 S 
BRANCH  17  18
ATOM     18  C   UNL     1     -38.740  22.447   1.065  0.00  0.00    +0.028 C 
ATOM     19  C   UNL     1     -37.624  22.735   0.285  0.00  0.00    +0.007 C 
ATOM     20  C   UNL     1     -39.481  21.291   0.833  0.00  0.00    +0.007 C 
ATOM     21  C   UNL     1     -37.245  21.861  -0.734  0.00  0.00    +0.015 C 
ATOM     22  C   UNL     1     -39.104  20.417  -0.186  0.00  0.00    +0.015 C 
ATOM     23  C   UNL     1     -37.985  20.702  -0.970  0.00  0.00    +0.042 C 
BRANCH  23  24
ATOM     24  N   UNL     1     -37.602  19.818  -2.001  0.00  0.00    -0.357 N 
ATOM     25  H   UNL     1     -38.159  19.732  -2.807  0.00  0.00    +0.142 HD
ATOM     26  H   UNL     1     -36.777  19.289  -1.912  0.00  0.00    +0.142 HD
ENDBRANCH  23  24
ENDBRANCH  17  18
ENDBRANCH   6  17
TORSDOF 8
ENDMDL
MODEL 5
REMARK VINA RESULT:      -5.5      3.826      5.229
REMARK  Name = 194146
REMARK  8 active torsions:
REMARK  status: ('A' for Active; 'I' for Inactive)
REMARK    1  A    between atoms: C_2  and  O_7
REMARK    2  A    between atoms: C_3  and  O_9
REMARK    3  A    between atoms: C_4  and  O_11
REMARK    4  A    between atoms: C_5  and  C_14
REMARK    5  A    between atoms: C_6  and  S_17
REMARK    6  A    between atoms: C_14  and  O_15
REMARK    7  A    between atoms: S_17  and  C_18
REMARK    8  A    between atoms: C_23  and  N_24
REMARK                            x       y       z     vdW  Elec       q    Type
REMARK                         _______ _______ _______ _____ _____    ______ ____
ROOT
ATOM      1  O   UNL     1     -35.579  22.847   3.476  0.00  0.00    -0.332 OA
ATOM      2  C   UNL     1     -37.931  24.479   3.245  0.00  0.00    +0.170 C 
ATOM      3  C   UNL     1     -36.833  24.769   4.270  0.00  0.00    +0.178 C 
ATOM      4  C   UNL     1     -37.910  23.013   2.796  0.00  0.00    +0.178 C 
ATOM      5  C   UNL     1     -35.492  24.231   3.791  0.00  0.00    +0.244 C 
ATOM      6  C   UNL     1     -36.490  22.585   2.408  0.00  0.00    +0.196 C 
ENDROOT
BRANCH   2   7
ATOM      7  O   UNL     1     -39.189  24.773   3.855  0.00  0.00    -0.379 OA
ATOM      8  H   UNL     1     -39.488  25.650   3.570  0.00  0.00    +0.211 HD
ENDBRANCH   2   7
BRANCH   3   9
ATOM      9  O   UNL     1     -36.723  26.180   4.449  0.00  0.00    -0.379 OA
ATOM     10  H   UNL     1     -37.592  26.544   4.683  0.00  0.00    +0.211 HD
ENDBRANCH   3   9
BRANCH   4  11
ATOM     11  O   UNL     1     -38.769  22.872   1.665  0.00  0.00    -0.379 OA
ATOM     12  H   UNL     1     -38.247  22.603   0.893  0.00  0.00    +0.211 HD
ENDBRANCH   4  11
BRANCH   5  14
ATOM     13  O   UNL     1     -33.693  25.199   5.023  0.00  0.00    -0.247 OA
ATOM     14  C   UNL     1     -34.477  24.272   4.886  0.00  0.00    +0.344 C 
BRANCH  14  15
ATOM     15  O   UNL     1     -34.537  23.181   5.686  0.00  0.00    -0.478 OA
ATOM     16  H   UNL     1     -33.749  22.751   5.953  0.00  0.00    +0.295 HD
ENDBRANCH  14  15
ENDBRANCH   5  14
BRANCH   6  17
ATOM     17  S   UNL     1     -36.457  20.802   1.997  0.00  0.00    -0.083 S 
BRANCH  17  18
ATOM     18  C   UNL     1     -34.828  20.647   1.281  0.00  0.00    +0.028 C 
ATOM     19  C   UNL     1     -34.313  21.677   0.498  0.00  0.00    +0.007 C 
ATOM     20  C   UNL     1     -34.077  19.496   1.510  0.00  0.00    +0.007 C 
ATOM     21  C   UNL     1     -33.041  21.555  -0.061  0.00  0.00    +0.015 C 
ATOM     22  C   UNL     1     -32.805  19.374   0.951  0.00  0.00    +0.015 C 
ATOM     23  C   UNL     1     -32.287  20.404   0.166  0.00  0.00    +0.042 C 
BRANCH  23  24
ATOM     24  N   UNL     1     -31.000  20.282  -0.399  0.00  0.00    -0.357 N 
ATOM     25  H   UNL     1     -30.237  20.023   0.166  0.00  0.00    +0.142 HD
ATOM     26  H   UNL     1     -30.866  20.454  -1.359  0.00  0.00    +0.142 HD
ENDBRANCH  23  24
ENDBRANCH  17  18
ENDBRANCH   6  17
TORSDOF 8
ENDMDL
MODEL 6
REMARK VINA RESULT:      -5.4      4.104      6.237
REMARK  Name = 194146
REMARK  8 active torsions:
REMARK  status: ('A' for Active; 'I' for Inactive)
REMARK    1  A    between atoms: C_2  and  O_7
REMARK    2  A    between atoms: C_3  and  O_9
REMARK    3  A    between atoms: C_4  and  O_11
REMARK    4  A    between atoms: C_5  and  C_14
REMARK    5  A    between atoms: C_6  and  S_17
REMARK    6  A    between atoms: C_14  and  O_15
REMARK    7  A    between atoms: S_17  and  C_18
REMARK    8  A    between atoms: C_23  and  N_24
REMARK                            x       y       z     vdW  Elec       q    Type
REMARK                         _______ _______ _______ _____ _____    ______ ____
ROOT
ATOM      1  O   UNL     1     -36.194  21.960   3.743  0.00  0.00    -0.332 OA
ATOM      2  C   UNL     1     -36.538  24.808   3.611  0.00  0.00    +0.170 C 
ATOM      3  C   UNL     1     -36.152  24.092   4.906  0.00  0.00    +0.178 C 
ATOM      4  C   UNL     1     -37.228  23.859   2.625  0.00  0.00    +0.178 C 
ATOM      5  C   UNL     1     -35.424  22.789   4.605  0.00  0.00    +0.244 C 
ATOM      6  C   UNL     1     -36.425  22.562   2.469  0.00  0.00    +0.196 C 
ENDROOT
BRANCH   2   7
ATOM      7  O   UNL     1     -37.428  25.875   3.948  0.00  0.00    -0.379 OA
ATOM      8  H   UNL     1     -36.998  26.463   4.589  0.00  0.00    +0.211 HD
ENDBRANCH   2   7
BRANCH   3   9
ATOM      9  O   UNL     1     -35.287  24.935   5.666  0.00  0.00    -0.379 OA
ATOM     10  H   UNL     1     -35.756  25.250   6.455  0.00  0.00    +0.211 HD
ENDBRANCH   3   9
BRANCH   4  11
ATOM     11  O   UNL     1     -37.322  24.509   1.358  0.00  0.00    -0.379 OA
ATOM     12  H   UNL     1     -38.152  25.010   1.312  0.00  0.00    +0.211 HD
ENDBRANCH   4  11
BRANCH   5  14
ATOM     13  O   UNL     1     -35.240  22.447   6.959  0.00  0.00    -0.247 OA
ATOM     14  C   UNL     1     -35.278  21.960   5.839  0.00  0.00    +0.344 C 
BRANCH  14  15
ATOM     15  O   UNL     1     -35.199  20.636   5.565  0.00  0.00    -0.478 OA
ATOM     16  H   UNL     1     -35.158  20.014   6.264  0.00  0.00    +0.295 HD
ENDBRANCH  14  15
ENDBRANCH   5  14
BRANCH   6  17
ATOM     17  S   UNL     1     -37.323  21.388   1.390  0.00  0.00    -0.083 S 
BRANCH  17  18
ATOM     18  C   UNL     1     -36.042  20.191   1.048  0.00  0.00    +0.028 C 
ATOM     19  C   UNL     1     -34.823  20.270   1.714  0.00  0.00    +0.007 C 
ATOM     20  C   UNL     1     -36.269  19.182   0.115  0.00  0.00    +0.007 C 
ATOM     21  C   UNL     1     -33.823  19.335   1.447  0.00  0.00    +0.015 C 
ATOM     22  C   UNL     1     -35.270  18.247  -0.154  0.00  0.00    +0.015 C 
ATOM     23  C   UNL     1     -34.046  18.324   0.513  0.00  0.00    +0.042 C 
BRANCH  23  24
ATOM     24  N   UNL     1     -33.035  17.377   0.242  0.00  0.00    -0.357 N 
ATOM     25  H   UNL     1     -33.183  16.426   0.447  0.00  0.00    +0.142 HD
ATOM     26  H   UNL     1     -32.182  17.669  -0.152  0.00  0.00    +0.142 HD
ENDBRANCH  23  24
ENDBRANCH  17  18
ENDBRANCH   6  17
TORSDOF 8
ENDMDL
MODEL 7
REMARK VINA RESULT:      -5.3      2.852      4.897
REMARK  Name = 194146
REMARK  8 active torsions:
REMARK  status: ('A' for Active; 'I' for Inactive)
REMARK    1  A    between atoms: C_2  and  O_7
REMARK    2  A    between atoms: C_3  and  O_9
REMARK    3  A    between atoms: C_4  and  O_11
REMARK    4  A    between atoms: C_5  and  C_14
REMARK    5  A    between atoms: C_6  and  S_17
REMARK    6  A    between atoms: C_14  and  O_15
REMARK    7  A    between atoms: S_17  and  C_18
REMARK    8  A    between atoms: C_23  and  N_24
REMARK                            x       y       z     vdW  Elec       q    Type
REMARK                         _______ _______ _______ _____ _____    ______ ____
ROOT
ATOM      1  O   UNL     1     -34.539  24.671   2.397  0.00  0.00    -0.332 OA
ATOM      2  C   UNL     1     -36.779  24.689   4.195  0.00  0.00    +0.170 C 
ATOM      3  C   UNL     1     -36.536  23.549   3.204  0.00  0.00    +0.178 C 
ATOM      4  C   UNL     1     -36.081  25.980   3.752  0.00  0.00    +0.178 C 
ATOM      5  C   UNL     1     -35.055  23.433   2.868  0.00  0.00    +0.244 C 
ATOM      6  C   UNL     1     -34.619  25.706   3.379  0.00  0.00    +0.196 C 
ENDROOT
BRANCH   2   7
ATOM      7  O   UNL     1     -38.188  24.911   4.272  0.00  0.00    -0.379 OA
ATOM      8  H   UNL     1     -38.394  25.398   5.085  0.00  0.00    +0.211 HD
ENDBRANCH   2   7
BRANCH   3   9
ATOM      9  O   UNL     1     -36.970  22.322   3.788  0.00  0.00    -0.379 OA
ATOM     10  H   UNL     1     -37.223  22.477   4.713  0.00  0.00    +0.211 HD
ENDBRANCH   3   9
BRANCH   4  11
ATOM     11  O   UNL     1     -36.124  26.913   4.831  0.00  0.00    -0.379 OA
ATOM     12  H   UNL     1     -37.037  27.210   4.966  0.00  0.00    +0.211 HD
ENDBRANCH   4  11
BRANCH   5  14
ATOM     13  O   UNL     1     -35.201  21.343   1.728  0.00  0.00    -0.247 OA
ATOM     14  C   UNL     1     -34.839  22.509   1.714  0.00  0.00    +0.344 C 
BRANCH  14  15
ATOM     15  O   UNL     1     -34.210  23.116   0.679  0.00  0.00    -0.478 OA
ATOM     16  H   UNL     1     -33.278  23.207   0.685  0.00  0.00    +0.295 HD
ENDBRANCH  14  15
ENDBRANCH   5  14
BRANCH   6  17
ATOM     17  S   UNL     1     -33.835  27.227   2.732  0.00  0.00    -0.083 S 
BRANCH  17  18
ATOM     18  C   UNL     1     -33.045  27.857   4.205  0.00  0.00    +0.028 C 
ATOM     19  C   UNL     1     -33.004  27.077   5.357  0.00  0.00    +0.007 C 
ATOM     20  C   UNL     1     -32.471  29.126   4.194  0.00  0.00    +0.007 C 
ATOM     21  C   UNL     1     -32.386  27.569   6.507  0.00  0.00    +0.015 C 
ATOM     22  C   UNL     1     -31.854  29.619   5.344  0.00  0.00    +0.015 C 
ATOM     23  C   UNL     1     -31.811  28.840   6.501  0.00  0.00    +0.042 C 
BRANCH  23  24
ATOM     24  N   UNL     1     -31.186  29.337   7.664  0.00  0.00    -0.357 N 
ATOM     25  H   UNL     1     -30.377  28.899   8.013  0.00  0.00    +0.142 HD
ATOM     26  H   UNL     1     -31.560  30.123   8.125  0.00  0.00    +0.142 HD
ENDBRANCH  23  24
ENDBRANCH  17  18
ENDBRANCH   6  17
TORSDOF 8
ENDMDL
MODEL 8
REMARK VINA RESULT:      -5.2      1.663      3.713
REMARK  Name = 194146
REMARK  8 active torsions:
REMARK  status: ('A' for Active; 'I' for Inactive)
REMARK    1  A    between atoms: C_2  and  O_7
REMARK    2  A    between atoms: C_3  and  O_9
REMARK    3  A    between atoms: C_4  and  O_11
REMARK    4  A    between atoms: C_5  and  C_14
REMARK    5  A    between atoms: C_6  and  S_17
REMARK    6  A    between atoms: C_14  and  O_15
REMARK    7  A    between atoms: S_17  and  C_18
REMARK    8  A    between atoms: C_23  and  N_24
REMARK                            x       y       z     vdW  Elec       q    Type
REMARK                         _______ _______ _______ _____ _____    ______ ____
ROOT
ATOM      1  O   UNL     1     -36.188  23.305   2.124  0.00  0.00    -0.332 OA
ATOM      2  C   UNL     1     -39.041  23.600   2.281  0.00  0.00    +0.170 C 
ATOM      3  C   UNL     1     -38.375  22.261   1.960  0.00  0.00    +0.178 C 
ATOM      4  C   UNL     1     -38.117  24.781   1.959  0.00  0.00    +0.178 C 
ATOM      5  C   UNL     1     -36.974  22.200   2.553  0.00  0.00    +0.244 C 
ATOM      6  C   UNL     1     -36.723  24.557   2.557  0.00  0.00    +0.196 C 
ENDROOT
BRANCH   2   7
ATOM      7  O   UNL     1     -40.230  23.698   1.495  0.00  0.00    -0.379 OA
ATOM      8  H   UNL     1     -40.940  23.191   1.919  0.00  0.00    +0.211 HD
ENDBRANCH   2   7
BRANCH   3   9
ATOM      9  O   UNL     1     -39.155  21.206   2.520  0.00  0.00    -0.379 OA
ATOM     10  H   UNL     1     -38.592  20.654   3.085  0.00  0.00    +0.211 HD
ENDBRANCH   3   9
BRANCH   4  11
ATOM     11  O   UNL     1     -38.683  25.966   2.518  0.00  0.00    -0.379 OA
ATOM     12  H   UNL     1     -38.134  26.730   2.280  0.00  0.00    +0.211 HD
ENDBRANCH   4  11
BRANCH   5  14
ATOM     13  O   UNL     1     -35.331  21.122   1.201  0.00  0.00    -0.247 OA
ATOM     14  C   UNL     1     -36.222  21.020   2.030  0.00  0.00    +0.344 C 
BRANCH  14  15
ATOM     15  O   UNL     1     -36.643  19.855   2.579  0.00  0.00    -0.478 OA
ATOM     16  H   UNL     1     -36.718  19.087   2.048  0.00  0.00    +0.295 HD
ENDBRANCH  14  15
ENDBRANCH   5  14
BRANCH   6  17
ATOM     17  S   UNL     1     -35.596  25.910   2.059  0.00  0.00    -0.083 S 
BRANCH  17  18
ATOM     18  C   UNL     1     -34.743  26.226   3.596  0.00  0.00    +0.028 C 
ATOM     19  C   UNL     1     -35.162  25.596   4.764  0.00  0.00    +0.007 C 
ATOM     20  C   UNL     1     -33.660  27.102   3.619  0.00  0.00    +0.007 C 
ATOM     21  C   UNL     1     -34.495  25.843   5.964  0.00  0.00    +0.015 C 
ATOM     22  C   UNL     1     -32.993  27.350   4.819  0.00  0.00    +0.015 C 
ATOM     23  C   UNL     1     -33.410  26.720   5.992  0.00  0.00    +0.042 C 
BRANCH  23  24
ATOM     24  N   UNL     1     -32.735  26.969   7.205  0.00  0.00    -0.357 N 
ATOM     25  H   UNL     1     -33.135  26.686   8.059  0.00  0.00    +0.142 HD
ATOM     26  H   UNL     1     -31.863  27.426   7.198  0.00  0.00    +0.142 HD
ENDBRANCH  23  24
ENDBRANCH  17  18
ENDBRANCH   6  17
TORSDOF 8
ENDMDL
MODEL 9
REMARK VINA RESULT:      -5.2      4.565      6.013
REMARK  Name = 194146
REMARK  8 active torsions:
REMARK  status: ('A' for Active; 'I' for Inactive)
REMARK    1  A    between atoms: C_2  and  O_7
REMARK    2  A    between atoms: C_3  and  O_9
REMARK    3  A    between atoms: C_4  and  O_11
REMARK    4  A    between atoms: C_5  and  C_14
REMARK    5  A    between atoms: C_6  and  S_17
REMARK    6  A    between atoms: C_14  and  O_15
REMARK    7  A    between atoms: S_17  and  C_18
REMARK    8  A    between atoms: C_23  and  N_24
REMARK                            x       y       z     vdW  Elec       q    Type
REMARK                         _______ _______ _______ _____ _____    ______ ____
ROOT
ATOM      1  O   UNL     1     -34.998  23.111   1.939  0.00  0.00    -0.332 OA
ATOM      2  C   UNL     1     -35.714  21.647   4.303  0.00  0.00    +0.170 C 
ATOM      3  C   UNL     1     -34.859  22.913   4.356  0.00  0.00    +0.178 C 
ATOM      4  C   UNL     1     -35.658  20.984   2.922  0.00  0.00    +0.178 C 
ATOM      5  C   UNL     1     -35.157  23.814   3.165  0.00  0.00    +0.244 C 
ATOM      6  C   UNL     1     -35.906  22.016   1.815  0.00  0.00    +0.196 C 
ENDROOT
BRANCH   2   7
ATOM      7  O   UNL     1     -35.215  20.739   5.288  0.00  0.00    -0.379 OA
ATOM      8  H   UNL     1     -34.312  20.994   5.532  0.00  0.00    +0.211 HD
ENDBRANCH   2   7
BRANCH   3   9
ATOM      9  O   UNL     1     -35.155  23.627   5.555  0.00  0.00    -0.379 OA
ATOM     10  H   UNL     1     -34.716  23.194   6.304  0.00  0.00    +0.211 HD
ENDBRANCH   3   9
BRANCH   4  11
ATOM     11  O   UNL     1     -36.666  19.976   2.859  0.00  0.00    -0.379 OA
ATOM     12  H   UNL     1     -37.377  20.265   2.265  0.00  0.00    +0.211 HD
ENDBRANCH   4  11
BRANCH   5  14
ATOM     13  O   UNL     1     -33.282  25.093   3.901  0.00  0.00    -0.247 OA
ATOM     14  C   UNL     1     -34.152  24.915   3.062  0.00  0.00    +0.344 C 
BRANCH  14  15
ATOM     15  O   UNL     1     -34.322  25.667   1.948  0.00  0.00    -0.478 OA
ATOM     16  H   UNL     1     -34.113  26.580   1.963  0.00  0.00    +0.295 HD
ENDBRANCH  14  15
ENDBRANCH   5  14
BRANCH   6  17
ATOM     17  S   UNL     1     -35.711  21.239   0.170  0.00  0.00    -0.083 S 
BRANCH  17  18
ATOM     18  C   UNL     1     -34.266  20.224   0.441  0.00  0.00    +0.028 C 
ATOM     19  C   UNL     1     -32.996  20.761   0.250  0.00  0.00    +0.007 C 
ATOM     20  C   UNL     1     -34.416  18.899   0.844  0.00  0.00    +0.007 C 
ATOM     21  C   UNL     1     -31.868  19.968   0.461  0.00  0.00    +0.015 C 
ATOM     22  C   UNL     1     -33.289  18.106   1.055  0.00  0.00    +0.015 C 
ATOM     23  C   UNL     1     -32.014  18.641   0.864  0.00  0.00    +0.042 C 
BRANCH  23  24
ATOM     24  N   UNL     1     -30.873  17.839   1.079  0.00  0.00    -0.357 N 
ATOM     25  H   UNL     1     -30.923  17.063   1.681  0.00  0.00    +0.142 HD
ATOM     26  H   UNL     1     -30.027  18.056   0.624  0.00  0.00    +0.142 HD
ENDBRANCH  23  24
ENDBRANCH  17  18
ENDBRANCH   6  17
TORSDOF 8
ENDMDL
