MODEL 1
REMARK VINA RESULT:      -6.1      0.000      0.000
REMARK  Name = 54699129
REMARK  5 active torsions:
REMARK  status: ('A' for Active; 'I' for Inactive)
REMARK    1  A    between atoms: C_4  and  C_23
REMARK    2  A    between atoms: C_5  and  O_18
REMARK    3  A    between atoms: C_8  and  O_20
REMARK    4  A    between atoms: C_14  and  O_26
REMARK    5  A    between atoms: C_23  and  O_24
REMARK                            x       y       z     vdW  Elec       q    Type
REMARK                         _______ _______ _______ _____ _____    ______ ____
ROOT
ATOM      1  O   UNL     1     -35.904  22.138   3.548  0.00  0.00    -0.464 OA
ATOM      2  O   UNL     1     -35.296  22.136  -0.707  0.00  0.00    -0.419 OA
ATOM      3  O   UNL     1     -36.941  23.709  -0.795  0.00  0.00    -0.245 OA
ATOM      4  C   UNL     1     -36.523  22.131   2.250  0.00  0.00    +0.276 C 
ATOM      5  C   UNL     1     -36.354  20.716   1.654  0.00  0.00    +0.183 C 
ATOM      6  C   UNL     1     -36.022  23.209   1.325  0.00  0.00    +0.136 C 
ATOM      7  C   UNL     1     -34.963  20.495   1.094  0.00  0.00    +0.024 C 
ATOM      8  C   UNL     1     -35.393  24.308   1.765  0.00  0.00    +0.146 C 
ATOM      9  C   UNL     1     -35.207  24.451   3.215  0.00  0.00    +0.101 C 
ATOM     10  C   UNL     1     -35.460  23.341   4.033  0.00  0.00    +0.145 C 
ATOM     11  C   UNL     1     -36.158  23.035  -0.136  0.00  0.00    +0.349 C 
ATOM     12  C   UNL     1     -34.552  21.179   0.012  0.00  0.00    +0.177 C 
ATOM     13  C   UNL     1     -34.058  19.500   1.757  0.00  0.00    +0.032 C 
ATOM     14  C   UNL     1     -34.781  25.641   3.824  0.00  0.00    +0.139 C 
ATOM     15  C   UNL     1     -35.249  23.400   5.414  0.00  0.00    +0.037 C 
ATOM     16  C   UNL     1     -34.586  25.706   5.206  0.00  0.00    +0.037 C 
ATOM     17  C   UNL     1     -34.813  24.585   6.000  0.00  0.00    +0.006 C 
ENDROOT
BRANCH   5  18
ATOM     18  O   UNL     1     -36.688  19.720   2.625  0.00  0.00    -0.376 OA
ATOM     19  H   UNL     1     -36.263  19.939   3.470  0.00  0.00    +0.211 HD
ENDBRANCH   5  18
BRANCH   8  20
ATOM     20  O   UNL     1     -34.889  25.265   0.912  0.00  0.00    -0.505 OA
ATOM     21  H   UNL     1     -34.028  25.168   0.554  0.00  0.00    +0.292 HD
ENDBRANCH   8  20
BRANCH   4  23
ATOM     22  O   UNL     1     -38.423  23.358   3.103  0.00  0.00    -0.246 OA
ATOM     23  C   UNL     1     -37.991  22.402   2.475  0.00  0.00    +0.361 C 
BRANCH  23  24
ATOM     24  O   UNL     1     -38.731  21.426   1.875  0.00  0.00    -0.442 OA
ATOM     25  C   UNL     1     -39.745  21.888   0.975  0.00  0.00    +0.256 C 
ENDBRANCH  23  24
ENDBRANCH   4  23
BRANCH  14  26
ATOM     26  O   UNL     1     -34.533  26.778   3.110  0.00  0.00    -0.505 OA
ATOM     27  H   UNL     1     -34.862  26.864   2.237  0.00  0.00    +0.292 HD
ENDBRANCH  14  26
TORSDOF 5
ENDMDL
MODEL 2
REMARK VINA RESULT:      -6.1      2.157      4.754
REMARK  Name = 54699129
REMARK  5 active torsions:
REMARK  status: ('A' for Active; 'I' for Inactive)
REMARK    1  A    between atoms: C_4  and  C_23
REMARK    2  A    between atoms: C_5  and  O_18
REMARK    3  A    between atoms: C_8  and  O_20
REMARK    4  A    between atoms: C_14  and  O_26
REMARK    5  A    between atoms: C_23  and  O_24
REMARK                            x       y       z     vdW  Elec       q    Type
REMARK                         _______ _______ _______ _____ _____    ______ ____
ROOT
ATOM      1  O   UNL     1     -37.070  25.180   3.384  0.00  0.00    -0.464 OA
ATOM      2  O   UNL     1     -39.738  23.150   0.693  0.00  0.00    -0.419 OA
ATOM      3  O   UNL     1     -37.866  22.446  -0.397  0.00  0.00    -0.245 OA
ATOM      4  C   UNL     1     -37.385  24.872   2.015  0.00  0.00    +0.276 C 
ATOM      5  C   UNL     1     -38.610  25.720   1.610  0.00  0.00    +0.183 C 
ATOM      6  C   UNL     1     -37.585  23.404   1.746  0.00  0.00    +0.136 C 
ATOM      7  C   UNL     1     -39.906  25.135   2.135  0.00  0.00    +0.024 C 
ATOM      8  C   UNL     1     -37.121  22.446   2.562  0.00  0.00    +0.146 C 
ATOM      9  C   UNL     1     -36.377  22.871   3.755  0.00  0.00    +0.101 C 
ATOM     10  C   UNL     1     -36.407  24.226   4.113  0.00  0.00    +0.145 C 
ATOM     11  C   UNL     1     -38.384  22.981   0.577  0.00  0.00    +0.349 C 
ATOM     12  C   UNL     1     -40.358  23.958   1.666  0.00  0.00    +0.177 C 
ATOM     13  C   UNL     1     -40.679  25.890   3.176  0.00  0.00    +0.032 C 
ATOM     14  C   UNL     1     -35.643  21.988   4.561  0.00  0.00    +0.139 C 
ATOM     15  C   UNL     1     -35.764  24.681   5.268  0.00  0.00    +0.037 C 
ATOM     16  C   UNL     1     -34.986  22.444   5.707  0.00  0.00    +0.037 C 
ATOM     17  C   UNL     1     -35.052  23.789   6.064  0.00  0.00    +0.006 C 
ENDROOT
BRANCH   5  18
ATOM     18  O   UNL     1     -38.443  27.076   2.031  0.00  0.00    -0.376 OA
ATOM     19  H   UNL     1     -37.711  27.128   2.665  0.00  0.00    +0.211 HD
ENDBRANCH   5  18
BRANCH   8  20
ATOM     20  O   UNL     1     -37.353  21.106   2.340  0.00  0.00    -0.505 OA
ATOM     21  H   UNL     1     -37.055  20.470   2.960  0.00  0.00    +0.292 HD
ENDBRANCH   8  20
BRANCH   4  23
ATOM     22  O   UNL     1     -35.651  24.600   0.353  0.00  0.00    -0.246 OA
ATOM     23  C   UNL     1     -36.192  25.303   1.195  0.00  0.00    +0.361 C 
BRANCH  23  24
ATOM     24  O   UNL     1     -35.833  26.571   1.545  0.00  0.00    -0.442 OA
ATOM     25  C   UNL     1     -34.429  26.782   1.735  0.00  0.00    +0.256 C 
ENDBRANCH  23  24
ENDBRANCH   4  23
BRANCH  14  26
ATOM     26  O   UNL     1     -35.539  20.657   4.278  0.00  0.00    -0.505 OA
ATOM     27  H   UNL     1     -36.134  20.047   4.668  0.00  0.00    +0.292 HD
ENDBRANCH  14  26
TORSDOF 5
ENDMDL
MODEL 3
REMARK VINA RESULT:      -6.1      2.006      4.290
REMARK  Name = 54699129
REMARK  5 active torsions:
REMARK  status: ('A' for Active; 'I' for Inactive)
REMARK    1  A    between atoms: C_4  and  C_23
REMARK    2  A    between atoms: C_5  and  O_18
REMARK    3  A    between atoms: C_8  and  O_20
REMARK    4  A    between atoms: C_14  and  O_26
REMARK    5  A    between atoms: C_23  and  O_24
REMARK                            x       y       z     vdW  Elec       q    Type
REMARK                         _______ _______ _______ _____ _____    ______ ____
ROOT
ATOM      1  O   UNL     1     -37.195  22.706   3.059  0.00  0.00    -0.464 OA
ATOM      2  O   UNL     1     -33.795  24.801   4.648  0.00  0.00    -0.419 OA
ATOM      3  O   UNL     1     -33.373  25.443   2.504  0.00  0.00    -0.245 OA
ATOM      4  C   UNL     1     -35.800  23.016   2.904  0.00  0.00    +0.276 C 
ATOM      5  C   UNL     1     -35.015  22.204   3.957  0.00  0.00    +0.183 C 
ATOM      6  C   UNL     1     -35.487  24.488   2.961  0.00  0.00    +0.136 C 
ATOM      7  C   UNL     1     -35.096  22.830   5.335  0.00  0.00    +0.024 C 
ATOM      8  C   UNL     1     -36.414  25.435   2.757  0.00  0.00    +0.146 C 
ATOM      9  C   UNL     1     -37.781  24.995   2.453  0.00  0.00    +0.101 C 
ATOM     10  C   UNL     1     -38.104  23.643   2.638  0.00  0.00    +0.145 C 
ATOM     11  C   UNL     1     -34.124  24.929   3.325  0.00  0.00    +0.349 C 
ATOM     12  C   UNL     1     -34.511  24.018   5.575  0.00  0.00    +0.177 C 
ATOM     13  C   UNL     1     -35.826  22.105   6.426  0.00  0.00    +0.032 C 
ATOM     14  C   UNL     1     -38.786  25.859   1.993  0.00  0.00    +0.139 C 
ATOM     15  C   UNL     1     -39.403  23.175   2.418  0.00  0.00    +0.037 C 
ATOM     16  C   UNL     1     -40.081  25.389   1.757  0.00  0.00    +0.037 C 
ATOM     17  C   UNL     1     -40.391  24.050   1.976  0.00  0.00    +0.006 C 
ENDROOT
BRANCH   5  18
ATOM     18  O   UNL     1     -35.462  20.845   3.977  0.00  0.00    -0.376 OA
ATOM     19  H   UNL     1     -35.339  20.478   4.866  0.00  0.00    +0.211 HD
ENDBRANCH   5  18
BRANCH   8  20
ATOM     20  O   UNL     1     -36.135  26.781   2.864  0.00  0.00    -0.505 OA
ATOM     21  H   UNL     1     -36.639  27.319   3.442  0.00  0.00    +0.292 HD
ENDBRANCH   8  20
BRANCH   4  23
ATOM     22  O   UNL     1     -34.784  23.224   0.720  0.00  0.00    -0.246 OA
ATOM     23  C   UNL     1     -35.408  22.545   1.523  0.00  0.00    +0.361 C 
BRANCH  23  24
ATOM     24  O   UNL     1     -35.856  21.271   1.332  0.00  0.00    -0.442 OA
ATOM     25  C   UNL     1     -35.052  20.459   0.470  0.00  0.00    +0.256 C 
ENDBRANCH  23  24
ENDBRANCH   4  23
BRANCH  14  26
ATOM     26  O   UNL     1     -38.558  27.185   1.763  0.00  0.00    -0.505 OA
ATOM     27  H   UNL     1     -39.277  27.763   1.597  0.00  0.00    +0.292 HD
ENDBRANCH  14  26
TORSDOF 5
ENDMDL
MODEL 4
REMARK VINA RESULT:      -6.0      1.746      4.170
REMARK  Name = 54699129
REMARK  5 active torsions:
REMARK  status: ('A' for Active; 'I' for Inactive)
REMARK    1  A    between atoms: C_4  and  C_23
REMARK    2  A    between atoms: C_5  and  O_18
REMARK    3  A    between atoms: C_8  and  O_20
REMARK    4  A    between atoms: C_14  and  O_26
REMARK    5  A    between atoms: C_23  and  O_24
REMARK                            x       y       z     vdW  Elec       q    Type
REMARK                         _______ _______ _______ _____ _____    ______ ____
ROOT
ATOM      1  O   UNL     1     -36.966  24.061   2.270  0.00  0.00    -0.464 OA
ATOM      2  O   UNL     1     -38.720  20.654   0.321  0.00  0.00    -0.419 OA
ATOM      3  O   UNL     1     -36.585  19.972  -0.086  0.00  0.00    -0.245 OA
ATOM      4  C   UNL     1     -36.937  23.189   1.127  0.00  0.00    +0.276 C 
ATOM      5  C   UNL     1     -38.141  23.547   0.229  0.00  0.00    +0.183 C 
ATOM      6  C   UNL     1     -36.893  21.723   1.473  0.00  0.00    +0.136 C 
ATOM      7  C   UNL     1     -39.438  22.966   0.755  0.00  0.00    +0.024 C 
ATOM      8  C   UNL     1     -36.502  21.273   2.674  0.00  0.00    +0.146 C 
ATOM      9  C   UNL     1     -36.091  22.267   3.673  0.00  0.00    +0.101 C 
ATOM     10  C   UNL     1     -36.364  23.619   3.420  0.00  0.00    +0.145 C 
ATOM     11  C   UNL     1     -37.362  20.728   0.487  0.00  0.00    +0.349 C 
ATOM     12  C   UNL     1     -39.630  21.635   0.763  0.00  0.00    +0.177 C 
ATOM     13  C   UNL     1     -40.504  23.894   1.257  0.00  0.00    +0.032 C 
ATOM     14  C   UNL     1     -35.446  21.934   4.874  0.00  0.00    +0.139 C 
ATOM     15  C   UNL     1     -36.046  24.606   4.358  0.00  0.00    +0.037 C 
ATOM     16  C   UNL     1     -35.113  22.922   5.804  0.00  0.00    +0.037 C 
ATOM     17  C   UNL     1     -35.419  24.256   5.550  0.00  0.00    +0.006 C 
ENDROOT
BRANCH   5  18
ATOM     18  O   UNL     1     -38.237  24.964   0.061  0.00  0.00    -0.376 OA
ATOM     19  H   UNL     1     -38.693  25.349   0.826  0.00  0.00    +0.211 HD
ENDBRANCH   5  18
BRANCH   8  20
ATOM     20  O   UNL     1     -36.514  19.935   3.003  0.00  0.00    -0.505 OA
ATOM     21  H   UNL     1     -37.116  19.616   3.647  0.00  0.00    +0.292 HD
ENDBRANCH   8  20
BRANCH   4  23
ATOM     22  O   UNL     1     -34.574  23.657   0.930  0.00  0.00    -0.246 OA
ATOM     23  C   UNL     1     -35.657  23.496   0.387  0.00  0.00    +0.361 C 
BRANCH  23  24
ATOM     24  O   UNL     1     -35.911  23.563  -0.952  0.00  0.00    -0.442 OA
ATOM     25  C   UNL     1     -35.061  22.761  -1.779  0.00  0.00    +0.256 C 
ENDBRANCH  23  24
ENDBRANCH   4  23
BRANCH  14  26
ATOM     26  O   UNL     1     -35.121  20.648   5.194  0.00  0.00    -0.505 OA
ATOM     27  H   UNL     1     -34.382  20.474   5.744  0.00  0.00    +0.292 HD
ENDBRANCH  14  26
TORSDOF 5
ENDMDL
MODEL 5
REMARK VINA RESULT:      -6.0      2.048      3.674
REMARK  Name = 54699129
REMARK  5 active torsions:
REMARK  status: ('A' for Active; 'I' for Inactive)
REMARK    1  A    between atoms: C_4  and  C_23
REMARK    2  A    between atoms: C_5  and  O_18
REMARK    3  A    between atoms: C_8  and  O_20
REMARK    4  A    between atoms: C_14  and  O_26
REMARK    5  A    between atoms: C_23  and  O_24
REMARK                            x       y       z     vdW  Elec       q    Type
REMARK                         _______ _______ _______ _____ _____    ______ ____
ROOT
ATOM      1  O   UNL     1     -34.676  24.210   2.901  0.00  0.00    -0.464 OA
ATOM      2  O   UNL     1     -38.817  23.647   1.894  0.00  0.00    -0.419 OA
ATOM      3  O   UNL     1     -39.286  24.782   3.813  0.00  0.00    -0.245 OA
ATOM      4  C   UNL     1     -35.986  23.855   3.375  0.00  0.00    +0.276 C 
ATOM      5  C   UNL     1     -36.306  22.434   2.862  0.00  0.00    +0.183 C 
ATOM      6  C   UNL     1     -37.059  24.851   3.021  0.00  0.00    +0.136 C 
ATOM      7  C   UNL     1     -36.732  22.436   1.408  0.00  0.00    +0.024 C 
ATOM      8  C   UNL     1     -36.789  26.118   2.677  0.00  0.00    +0.146 C 
ATOM      9  C   UNL     1     -35.380  26.534   2.667  0.00  0.00    +0.101 C 
ATOM     10  C   UNL     1     -34.392  25.545   2.764  0.00  0.00    +0.145 C 
ATOM     11  C   UNL     1     -38.471  24.414   2.975  0.00  0.00    +0.349 C 
ATOM     12  C   UNL     1     -37.894  23.007   1.043  0.00  0.00    +0.177 C 
ATOM     13  C   UNL     1     -35.848  21.787   0.385  0.00  0.00    +0.032 C 
ATOM     14  C   UNL     1     -34.972  27.872   2.556  0.00  0.00    +0.139 C 
ATOM     15  C   UNL     1     -33.034  25.874   2.705  0.00  0.00    +0.037 C 
ATOM     16  C   UNL     1     -33.615  28.204   2.514  0.00  0.00    +0.037 C 
ATOM     17  C   UNL     1     -32.646  27.205   2.581  0.00  0.00    +0.006 C 
ENDROOT
BRANCH   5  18
ATOM     18  O   UNL     1     -35.193  21.562   3.076  0.00  0.00    -0.376 OA
ATOM     19  H   UNL     1     -35.484  20.784   3.577  0.00  0.00    +0.211 HD
ENDBRANCH   5  18
BRANCH   8  20
ATOM     20  O   UNL     1     -37.770  27.010   2.301  0.00  0.00    -0.505 OA
ATOM     21  H   UNL     1     -38.257  26.866   1.514  0.00  0.00    +0.292 HD
ENDBRANCH   8  20
BRANCH   4  23
ATOM     22  O   UNL     1     -35.577  24.789   5.567  0.00  0.00    -0.246 OA
ATOM     23  C   UNL     1     -35.903  23.830   4.883  0.00  0.00    +0.361 C 
BRANCH  23  24
ATOM     24  O   UNL     1     -36.243  22.589   5.337  0.00  0.00    -0.442 OA
ATOM     25  C   UNL     1     -35.462  22.101   6.434  0.00  0.00    +0.256 C 
ENDBRANCH  23  24
ENDBRANCH   4  23
BRANCH  14  26
ATOM     26  O   UNL     1     -35.863  28.902   2.480  0.00  0.00    -0.505 OA
ATOM     27  H   UNL     1     -35.975  29.480   3.209  0.00  0.00    +0.292 HD
ENDBRANCH  14  26
TORSDOF 5
ENDMDL
MODEL 6
REMARK VINA RESULT:      -6.0      2.214      5.250
REMARK  Name = 54699129
REMARK  5 active torsions:
REMARK  status: ('A' for Active; 'I' for Inactive)
REMARK    1  A    between atoms: C_4  and  C_23
REMARK    2  A    between atoms: C_5  and  O_18
REMARK    3  A    between atoms: C_8  and  O_20
REMARK    4  A    between atoms: C_14  and  O_26
REMARK    5  A    between atoms: C_23  and  O_24
REMARK                            x       y       z     vdW  Elec       q    Type
REMARK                         _______ _______ _______ _____ _____    ______ ____
ROOT
ATOM      1  O   UNL     1     -36.795  24.344   1.580  0.00  0.00    -0.464 OA
ATOM      2  O   UNL     1     -34.915  26.888   4.492  0.00  0.00    -0.419 OA
ATOM      3  O   UNL     1     -36.381  26.004   5.995  0.00  0.00    -0.245 OA
ATOM      4  C   UNL     1     -36.986  25.256   2.676  0.00  0.00    +0.276 C 
ATOM      5  C   UNL     1     -36.709  26.684   2.156  0.00  0.00    +0.183 C 
ATOM      6  C   UNL     1     -36.178  24.922   3.902  0.00  0.00    +0.136 C 
ATOM      7  C   UNL     1     -35.225  26.974   2.054  0.00  0.00    +0.024 C 
ATOM      8  C   UNL     1     -35.663  23.704   4.122  0.00  0.00    +0.146 C 
ATOM      9  C   UNL     1     -35.924  22.664   3.118  0.00  0.00    +0.101 C 
ATOM     10  C   UNL     1     -36.466  23.049   1.884  0.00  0.00    +0.145 C 
ATOM     11  C   UNL     1     -35.868  25.984   4.881  0.00  0.00    +0.349 C 
ATOM     12  C   UNL     1     -34.471  27.055   3.165  0.00  0.00    +0.177 C 
ATOM     13  C   UNL     1     -34.612  27.179   0.700  0.00  0.00    +0.032 C 
ATOM     14  C   UNL     1     -35.650  21.303   3.328  0.00  0.00    +0.139 C 
ATOM     15  C   UNL     1     -36.684  22.112   0.869  0.00  0.00    +0.037 C 
ATOM     16  C   UNL     1     -35.884  20.364   2.320  0.00  0.00    +0.037 C 
ATOM     17  C   UNL     1     -36.394  20.768   1.089  0.00  0.00    +0.006 C 
ENDROOT
BRANCH   5  18
ATOM     18  O   UNL     1     -37.368  26.899   0.906  0.00  0.00    -0.376 OA
ATOM     19  H   UNL     1     -38.032  27.600   1.008  0.00  0.00    +0.211 HD
ENDBRANCH   5  18
BRANCH   8  20
ATOM     20  O   UNL     1     -34.880  23.417   5.219  0.00  0.00    -0.505 OA
ATOM     21  H   UNL     1     -34.693  22.526   5.441  0.00  0.00    +0.292 HD
ENDBRANCH   8  20
BRANCH   4  23
ATOM     22  O   UNL     1     -38.974  24.109   3.434  0.00  0.00    -0.246 OA
ATOM     23  C   UNL     1     -38.439  25.148   3.074  0.00  0.00    +0.361 C 
BRANCH  23  24
ATOM     24  O   UNL     1     -39.033  26.370   2.965  0.00  0.00    -0.442 OA
ATOM     25  C   UNL     1     -40.463  26.354   2.896  0.00  0.00    +0.256 C 
ENDBRANCH  23  24
ENDBRANCH   4  23
BRANCH  14  26
ATOM     26  O   UNL     1     -35.144  20.834   4.505  0.00  0.00    -0.505 OA
ATOM     27  H   UNL     1     -35.468  20.033   4.868  0.00  0.00    +0.292 HD
ENDBRANCH  14  26
TORSDOF 5
ENDMDL
MODEL 7
REMARK VINA RESULT:      -5.9      1.934      4.966
REMARK  Name = 54699129
REMARK  5 active torsions:
REMARK  status: ('A' for Active; 'I' for Inactive)
REMARK    1  A    between atoms: C_4  and  C_23
REMARK    2  A    between atoms: C_5  and  O_18
REMARK    3  A    between atoms: C_8  and  O_20
REMARK    4  A    between atoms: C_14  and  O_26
REMARK    5  A    between atoms: C_23  and  O_24
REMARK                            x       y       z     vdW  Elec       q    Type
REMARK                         _______ _______ _______ _____ _____    ______ ____
ROOT
ATOM      1  O   UNL     1     -36.623  23.096   2.979  0.00  0.00    -0.464 OA
ATOM      2  O   UNL     1     -35.370  27.029   1.776  0.00  0.00    -0.419 OA
ATOM      3  O   UNL     1     -33.362  26.519   2.723  0.00  0.00    -0.245 OA
ATOM      4  C   UNL     1     -35.936  24.302   3.356  0.00  0.00    +0.276 C 
ATOM      5  C   UNL     1     -37.001  25.392   3.613  0.00  0.00    +0.183 C 
ATOM      6  C   UNL     1     -34.885  24.745   2.372  0.00  0.00    +0.136 C 
ATOM      7  C   UNL     1     -37.530  25.987   2.324  0.00  0.00    +0.024 C 
ATOM      8  C   UNL     1     -34.344  23.917   1.468  0.00  0.00    +0.146 C 
ATOM      9  C   UNL     1     -34.800  22.521   1.464  0.00  0.00    +0.101 C 
ATOM     10  C   UNL     1     -35.936  22.188   2.215  0.00  0.00    +0.145 C 
ATOM     11  C   UNL     1     -34.471  26.163   2.339  0.00  0.00    +0.349 C 
ATOM     12  C   UNL     1     -36.726  26.726   1.538  0.00  0.00    +0.177 C 
ATOM     13  C   UNL     1     -38.960  25.749   1.942  0.00  0.00    +0.032 C 
ATOM     14  C   UNL     1     -34.162  21.502   0.740  0.00  0.00    +0.139 C 
ATOM     15  C   UNL     1     -36.450  20.887   2.207  0.00  0.00    +0.037 C 
ATOM     16  C   UNL     1     -34.665  20.198   0.745  0.00  0.00    +0.037 C 
ATOM     17  C   UNL     1     -35.812  19.893   1.472  0.00  0.00    +0.006 C 
ENDROOT
BRANCH   5  18
ATOM     18  O   UNL     1     -38.062  24.874   4.421  0.00  0.00    -0.376 OA
ATOM     19  H   UNL     1     -38.389  25.573   5.009  0.00  0.00    +0.211 HD
ENDBRANCH   5  18
BRANCH   8  20
ATOM     20  O   UNL     1     -33.422  24.339   0.534  0.00  0.00    -0.505 OA
ATOM     21  H   UNL     1     -33.049  25.196   0.599  0.00  0.00    +0.292 HD
ENDBRANCH   8  20
BRANCH   4  23
ATOM     22  O   UNL     1     -34.052  24.295   4.870  0.00  0.00    -0.246 OA
ATOM     23  C   UNL     1     -35.217  23.998   4.649  0.00  0.00    +0.361 C 
BRANCH  23  24
ATOM     24  O   UNL     1     -36.064  23.354   5.501  0.00  0.00    -0.442 OA
ATOM     25  C   UNL     1     -35.499  22.247   6.210  0.00  0.00    +0.256 C 
ENDBRANCH  23  24
ENDBRANCH   4  23
BRANCH  14  26
ATOM     26  O   UNL     1     -33.037  21.728   0.000  0.00  0.00    -0.505 OA
ATOM     27  H   UNL     1     -32.462  22.434   0.225  0.00  0.00    +0.292 HD
ENDBRANCH  14  26
TORSDOF 5
ENDMDL
MODEL 8
REMARK VINA RESULT:      -5.9      4.013      6.984
REMARK  Name = 54699129
REMARK  5 active torsions:
REMARK  status: ('A' for Active; 'I' for Inactive)
REMARK    1  A    between atoms: C_4  and  C_23
REMARK    2  A    between atoms: C_5  and  O_18
REMARK    3  A    between atoms: C_8  and  O_20
REMARK    4  A    between atoms: C_14  and  O_26
REMARK    5  A    between atoms: C_23  and  O_24
REMARK                            x       y       z     vdW  Elec       q    Type
REMARK                         _______ _______ _______ _____ _____    ______ ____
ROOT
ATOM      1  O   UNL     1     -32.862  26.707   4.663  0.00  0.00    -0.464 OA
ATOM      2  O   UNL     1     -33.018  30.646   2.949  0.00  0.00    -0.419 OA
ATOM      3  O   UNL     1     -33.375  29.605   0.955  0.00  0.00    -0.245 OA
ATOM      4  C   UNL     1     -32.448  27.559   3.582  0.00  0.00    +0.276 C 
ATOM      5  C   UNL     1     -31.353  28.507   4.119  0.00  0.00    +0.183 C 
ATOM      6  C   UNL     1     -33.578  28.302   2.918  0.00  0.00    +0.136 C 
ATOM      7  C   UNL     1     -31.935  29.653   4.922  0.00  0.00    +0.024 C 
ATOM      8  C   UNL     1     -34.858  27.918   3.021  0.00  0.00    +0.146 C 
ATOM      9  C   UNL     1     -35.145  26.711   3.806  0.00  0.00    +0.101 C 
ATOM     10  C   UNL     1     -34.125  26.176   4.605  0.00  0.00    +0.145 C 
ATOM     11  C   UNL     1     -33.294  29.549   2.177  0.00  0.00    +0.349 C 
ATOM     12  C   UNL     1     -32.683  30.593   4.317  0.00  0.00    +0.177 C 
ATOM     13  C   UNL     1     -31.659  29.728   6.394  0.00  0.00    +0.032 C 
ATOM     14  C   UNL     1     -36.393  26.068   3.806  0.00  0.00    +0.139 C 
ATOM     15  C   UNL     1     -34.354  25.061   5.417  0.00  0.00    +0.037 C 
ATOM     16  C   UNL     1     -36.618  24.944   4.604  0.00  0.00    +0.037 C 
ATOM     17  C   UNL     1     -35.602  24.444   5.415  0.00  0.00    +0.006 C 
ENDROOT
BRANCH   5  18
ATOM     18  O   UNL     1     -30.388  27.776   4.880  0.00  0.00    -0.376 OA
ATOM     19  H   UNL     1     -30.662  26.848   4.942  0.00  0.00    +0.211 HD
ENDBRANCH   5  18
BRANCH   8  20
ATOM     20  O   UNL     1     -35.894  28.631   2.457  0.00  0.00    -0.505 OA
ATOM     21  H   UNL     1     -35.723  29.235   1.761  0.00  0.00    +0.292 HD
ENDBRANCH   8  20
BRANCH   4  23
ATOM     22  O   UNL     1     -30.752  26.125   2.628  0.00  0.00    -0.246 OA
ATOM     23  C   UNL     1     -31.849  26.656   2.530  0.00  0.00    +0.361 C 
BRANCH  23  24
ATOM     24  O   UNL     1     -32.715  26.539   1.483  0.00  0.00    -0.442 OA
ATOM     25  C   UNL     1     -32.980  25.200   1.052  0.00  0.00    +0.256 C 
ENDBRANCH  23  24
ENDBRANCH   4  23
BRANCH  14  26
ATOM     26  O   UNL     1     -37.437  26.504   3.043  0.00  0.00    -0.505 OA
ATOM     27  H   UNL     1     -37.511  27.412   2.824  0.00  0.00    +0.292 HD
ENDBRANCH  14  26
TORSDOF 5
ENDMDL
MODEL 9
REMARK VINA RESULT:      -5.8      1.817      5.261
REMARK  Name = 54699129
REMARK  5 active torsions:
REMARK  status: ('A' for Active; 'I' for Inactive)
REMARK    1  A    between atoms: C_4  and  C_23
REMARK    2  A    between atoms: C_5  and  O_18
REMARK    3  A    between atoms: C_8  and  O_20
REMARK    4  A    between atoms: C_14  and  O_26
REMARK    5  A    between atoms: C_23  and  O_24
REMARK                            x       y       z     vdW  Elec       q    Type
REMARK                         _______ _______ _______ _____ _____    ______ ____
ROOT
ATOM      1  O   UNL     1     -34.607  24.272   1.185  0.00  0.00    -0.464 OA
ATOM      2  O   UNL     1     -36.423  25.779   4.778  0.00  0.00    -0.419 OA
ATOM      3  O   UNL     1     -38.365  24.881   3.998  0.00  0.00    -0.245 OA
ATOM      4  C   UNL     1     -35.732  24.956   1.762  0.00  0.00    +0.276 C 
ATOM      5  C   UNL     1     -35.279  26.387   2.125  0.00  0.00    +0.183 C 
ATOM      6  C   UNL     1     -36.358  24.236   2.927  0.00  0.00    +0.136 C 
ATOM      7  C   UNL     1     -34.481  26.422   3.413  0.00  0.00    +0.024 C 
ATOM      8  C   UNL     1     -36.179  22.927   3.152  0.00  0.00    +0.146 C 
ATOM      9  C   UNL     1     -35.345  22.181   2.201  0.00  0.00    +0.101 C 
ATOM     10  C   UNL     1     -34.585  22.904   1.271  0.00  0.00    +0.145 C 
ATOM     11  C   UNL     1     -37.148  25.000   3.916  0.00  0.00    +0.349 C 
ATOM     12  C   UNL     1     -35.073  26.135   4.586  0.00  0.00    +0.177 C 
ATOM     13  C   UNL     1     -33.027  26.789   3.362  0.00  0.00    +0.032 C 
ATOM     14  C   UNL     1     -35.264  20.780   2.179  0.00  0.00    +0.139 C 
ATOM     15  C   UNL     1     -33.731  22.251   0.376  0.00  0.00    +0.037 C 
ATOM     16  C   UNL     1     -34.423  20.127   1.275  0.00  0.00    +0.037 C 
ATOM     17  C   UNL     1     -33.651  20.862   0.378  0.00  0.00    +0.006 C 
ENDROOT
BRANCH   5  18
ATOM     18  O   UNL     1     -34.548  26.971   1.044  0.00  0.00    -0.376 OA
ATOM     19  H   UNL     1     -33.754  26.441   0.868  0.00  0.00    +0.211 HD
ENDBRANCH   5  18
BRANCH   8  20
ATOM     20  O   UNL     1     -36.709  22.284   4.250  0.00  0.00    -0.505 OA
ATOM     21  H   UNL     1     -37.469  21.743   4.154  0.00  0.00    +0.292 HD
ENDBRANCH   8  20
BRANCH   4  23
ATOM     22  O   UNL     1     -37.084  24.097  -0.049  0.00  0.00    -0.246 OA
ATOM     23  C   UNL     1     -36.787  25.030   0.683  0.00  0.00    +0.361 C 
BRANCH  23  24
ATOM     24  O   UNL     1     -37.335  26.279   0.667  0.00  0.00    -0.442 OA
ATOM     25  C   UNL     1     -38.765  26.324   0.726  0.00  0.00    +0.256 C 
ENDBRANCH  23  24
ENDBRANCH   4  23
BRANCH  14  26
ATOM     26  O   UNL     1     -35.985  19.995   3.032  0.00  0.00    -0.505 OA
ATOM     27  H   UNL     1     -36.273  20.338   3.855  0.00  0.00    +0.292 HD
ENDBRANCH  14  26
TORSDOF 5
ENDMDL
