MODEL 1
REMARK VINA RESULT:      -4.7      0.000      0.000
REMARK  Name = 5479
REMARK  5 active torsions:
REMARK  status: ('A' for Active; 'I' for Inactive)
REMARK    1  A    between atoms: N_1  and  C_10
REMARK    2  A    between atoms: C_4  and  N_9
REMARK    3  A    between atoms: C_10  and  C_11
REMARK    4  A    between atoms: C_11  and  S_12
REMARK    5  A    between atoms: S_12  and  C_15
REMARK                            x       y       z     vdW  Elec       q    Type
REMARK                         _______ _______ _______ _____ _____    ______ ____
ROOT
ATOM      1  N   UNL     1     -35.819  23.820   4.461  0.00  0.00    -0.254 N 
ATOM      2  N   UNL     1     -35.605  21.689   3.922  0.00  0.00    -0.230 NA
ATOM      3  C   UNL     1     -35.581  22.559   4.908  0.00  0.00    +0.114 C 
ATOM      4  C   UNL     1     -36.007  23.769   3.116  0.00  0.00    +0.218 C 
ATOM      5  C   UNL     1     -35.870  22.437   2.803  0.00  0.00    +0.140 C 
ATOM      6  C   UNL     1     -35.333  22.251   6.331  0.00  0.00    +0.069 C 
ENDROOT
BRANCH   4   9
ATOM      7  O   UNL     1     -37.398  25.465   2.412  0.00  0.00    -0.125 OA
ATOM      8  O   UNL     1     -35.398  25.302   1.510  0.00  0.00    -0.125 OA
ATOM      9  N   UNL     1     -36.277  24.886   2.317  0.00  0.00    +0.074 N 
ENDBRANCH   4   9
BRANCH   1  10
ATOM     10  C   UNL     1     -35.865  25.021   5.290  0.00  0.00    +0.124 C 
BRANCH  10  11
ATOM     11  C   UNL     1     -34.492  25.522   5.712  0.00  0.00    +0.173 C 
BRANCH  11  12
ATOM     12  S   UNL     1     -33.768  26.612   4.527  0.00  0.00    -0.008 S 
ATOM     13  O   UNL     1     -32.952  25.822   3.620  0.00  0.00    -0.173 OA
ATOM     14  O   UNL     1     -34.812  27.483   4.014  0.00  0.00    -0.173 OA
BRANCH  12  15
ATOM     15  C   UNL     1     -32.669  27.611   5.505  0.00  0.00    +0.151 C 
ATOM     16  C   UNL     1     -32.688  27.197   6.959  0.00  0.00    +0.027 C 
ENDBRANCH  12  15
ENDBRANCH  11  12
ENDBRANCH  10  11
ENDBRANCH   1  10
TORSDOF 5
ENDMDL
MODEL 2
REMARK VINA RESULT:      -4.7      2.976      4.897
REMARK  Name = 5479
REMARK  5 active torsions:
REMARK  status: ('A' for Active; 'I' for Inactive)
REMARK    1  A    between atoms: N_1  and  C_10
REMARK    2  A    between atoms: C_4  and  N_9
REMARK    3  A    between atoms: C_10  and  C_11
REMARK    4  A    between atoms: C_11  and  S_12
REMARK    5  A    between atoms: S_12  and  C_15
REMARK                            x       y       z     vdW  Elec       q    Type
REMARK                         _______ _______ _______ _____ _____    ______ ____
ROOT
ATOM      1  N   UNL     1     -36.369  24.107   4.243  0.00  0.00    -0.254 N 
ATOM      2  N   UNL     1     -35.370  25.209   5.876  0.00  0.00    -0.230 NA
ATOM      3  C   UNL     1     -35.657  24.018   5.398  0.00  0.00    +0.114 C 
ATOM      4  C   UNL     1     -36.552  25.422   3.954  0.00  0.00    +0.218 C 
ATOM      5  C   UNL     1     -35.924  26.088   4.980  0.00  0.00    +0.140 C 
ATOM      6  C   UNL     1     -35.278  22.725   6.003  0.00  0.00    +0.069 C 
ENDROOT
BRANCH   4   9
ATOM      7  O   UNL     1     -38.482  26.133   2.917  0.00  0.00    -0.125 OA
ATOM      8  O   UNL     1     -36.621  26.069   1.745  0.00  0.00    -0.125 OA
ATOM      9  N   UNL     1     -37.244  25.891   2.831  0.00  0.00    +0.074 N 
ENDBRANCH   4   9
BRANCH   1  10
ATOM     10  C   UNL     1     -36.848  22.978   3.451  0.00  0.00    +0.124 C 
BRANCH  10  11
ATOM     11  C   UNL     1     -35.883  22.552   2.355  0.00  0.00    +0.173 C 
BRANCH  11  12
ATOM     12  S   UNL     1     -35.668  20.801   2.277  0.00  0.00    -0.008 S 
ATOM     13  O   UNL     1     -35.153  20.348   3.559  0.00  0.00    -0.173 OA
ATOM     14  O   UNL     1     -36.877  20.219   1.719  0.00  0.00    -0.173 OA
BRANCH  12  15
ATOM     15  C   UNL     1     -34.372  20.599   1.077  0.00  0.00    +0.151 C 
ATOM     16  C   UNL     1     -33.586  19.330   1.318  0.00  0.00    +0.027 C 
ENDBRANCH  12  15
ENDBRANCH  11  12
ENDBRANCH  10  11
ENDBRANCH   1  10
TORSDOF 5
ENDMDL
MODEL 3
REMARK VINA RESULT:      -4.7      1.764      2.245
REMARK  Name = 5479
REMARK  5 active torsions:
REMARK  status: ('A' for Active; 'I' for Inactive)
REMARK    1  A    between atoms: N_1  and  C_10
REMARK    2  A    between atoms: C_4  and  N_9
REMARK    3  A    between atoms: C_10  and  C_11
REMARK    4  A    between atoms: C_11  and  S_12
REMARK    5  A    between atoms: S_12  and  C_15
REMARK                            x       y       z     vdW  Elec       q    Type
REMARK                         _______ _______ _______ _____ _____    ______ ____
ROOT
ATOM      1  N   UNL     1     -36.799  24.984   4.127  0.00  0.00    -0.254 N 
ATOM      2  N   UNL     1     -37.076  22.864   3.575  0.00  0.00    -0.230 NA
ATOM      3  C   UNL     1     -36.403  23.701   4.334  0.00  0.00    +0.114 C 
ATOM      4  C   UNL     1     -37.780  24.983   3.186  0.00  0.00    +0.218 C 
ATOM      5  C   UNL     1     -37.936  23.656   2.857  0.00  0.00    +0.140 C 
ATOM      6  C   UNL     1     -35.347  23.338   5.300  0.00  0.00    +0.069 C 
ENDROOT
BRANCH   4   9
ATOM      7  O   UNL     1     -37.846  26.881   1.883  0.00  0.00    -0.125 OA
ATOM      8  O   UNL     1     -39.584  26.412   3.148  0.00  0.00    -0.125 OA
ATOM      9  N   UNL     1     -38.426  26.134   2.722  0.00  0.00    +0.074 N 
ENDBRANCH   4   9
BRANCH   1  10
ATOM     10  C   UNL     1     -36.261  26.159   4.804  0.00  0.00    +0.124 C 
BRANCH  10  11
ATOM     11  C   UNL     1     -35.172  26.871   4.015  0.00  0.00    +0.173 C 
BRANCH  11  12
ATOM     12  S   UNL     1     -33.566  26.647   4.711  0.00  0.00    -0.008 S 
ATOM     13  O   UNL     1     -33.690  26.670   6.159  0.00  0.00    -0.173 OA
ATOM     14  O   UNL     1     -32.933  25.524   4.041  0.00  0.00    -0.173 OA
BRANCH  12  15
ATOM     15  C   UNL     1     -32.697  28.120   4.224  0.00  0.00    +0.151 C 
ATOM     16  C   UNL     1     -31.875  28.681   5.362  0.00  0.00    +0.027 C 
ENDBRANCH  12  15
ENDBRANCH  11  12
ENDBRANCH  10  11
ENDBRANCH   1  10
TORSDOF 5
ENDMDL
MODEL 4
REMARK VINA RESULT:      -4.5      2.608      4.532
REMARK  Name = 5479
REMARK  5 active torsions:
REMARK  status: ('A' for Active; 'I' for Inactive)
REMARK    1  A    between atoms: N_1  and  C_10
REMARK    2  A    between atoms: C_4  and  N_9
REMARK    3  A    between atoms: C_10  and  C_11
REMARK    4  A    between atoms: C_11  and  S_12
REMARK    5  A    between atoms: S_12  and  C_15
REMARK                            x       y       z     vdW  Elec       q    Type
REMARK                         _______ _______ _______ _____ _____    ______ ____
ROOT
ATOM      1  N   UNL     1     -36.059  26.303   3.573  0.00  0.00    -0.254 N 
ATOM      2  N   UNL     1     -36.398  27.044   1.520  0.00  0.00    -0.230 NA
ATOM      3  C   UNL     1     -36.952  26.462   2.561  0.00  0.00    +0.114 C 
ATOM      4  C   UNL     1     -34.863  26.808   3.171  0.00  0.00    +0.218 C 
ATOM      5  C   UNL     1     -35.096  27.262   1.894  0.00  0.00    +0.140 C 
ATOM      6  C   UNL     1     -38.358  26.022   2.661  0.00  0.00    +0.069 C 
ENDROOT
BRANCH   4   9
ATOM      7  O   UNL     1     -33.576  27.691   4.864  0.00  0.00    -0.125 OA
ATOM      8  O   UNL     1     -32.811  25.948   3.762  0.00  0.00    -0.125 OA
ATOM      9  N   UNL     1     -33.708  26.816   3.961  0.00  0.00    +0.074 N 
ENDBRANCH   4   9
BRANCH   1  10
ATOM     10  C   UNL     1     -36.343  25.696   4.869  0.00  0.00    +0.124 C 
BRANCH  10  11
ATOM     11  C   UNL     1     -35.495  24.467   5.164  0.00  0.00    +0.173 C 
BRANCH  11  12
ATOM     12  S   UNL     1     -35.798  23.143   4.036  0.00  0.00    -0.008 S 
ATOM     13  O   UNL     1     -37.231  23.055   3.811  0.00  0.00    -0.173 OA
ATOM     14  O   UNL     1     -34.880  23.279   2.918  0.00  0.00    -0.173 OA
BRANCH  12  15
ATOM     15  C   UNL     1     -35.311  21.701   4.956  0.00  0.00    +0.151 C 
ATOM     16  C   UNL     1     -35.290  21.972   6.443  0.00  0.00    +0.027 C 
ENDBRANCH  12  15
ENDBRANCH  11  12
ENDBRANCH  10  11
ENDBRANCH   1  10
TORSDOF 5
ENDMDL
MODEL 5
REMARK VINA RESULT:      -4.5      2.549      4.467
REMARK  Name = 5479
REMARK  5 active torsions:
REMARK  status: ('A' for Active; 'I' for Inactive)
REMARK    1  A    between atoms: N_1  and  C_10
REMARK    2  A    between atoms: C_4  and  N_9
REMARK    3  A    between atoms: C_10  and  C_11
REMARK    4  A    between atoms: C_11  and  S_12
REMARK    5  A    between atoms: S_12  and  C_15
REMARK                            x       y       z     vdW  Elec       q    Type
REMARK                         _______ _______ _______ _____ _____    ______ ____
ROOT
ATOM      1  N   UNL     1     -35.215  23.031   3.944  0.00  0.00    -0.254 N 
ATOM      2  N   UNL     1     -35.268  21.309   5.325  0.00  0.00    -0.230 NA
ATOM      3  C   UNL     1     -35.345  21.684   4.067  0.00  0.00    +0.114 C 
ATOM      4  C   UNL     1     -35.044  23.560   5.184  0.00  0.00    +0.218 C 
ATOM      5  C   UNL     1     -35.080  22.473   6.026  0.00  0.00    +0.140 C 
ATOM      6  C   UNL     1     -35.546  20.793   2.906  0.00  0.00    +0.069 C 
ENDROOT
BRANCH   4   9
ATOM      7  O   UNL     1     -35.864  25.615   5.823  0.00  0.00    -0.125 OA
ATOM      8  O   UNL     1     -33.736  25.452   5.289  0.00  0.00    -0.125 OA
ATOM      9  N   UNL     1     -34.875  24.925   5.441  0.00  0.00    +0.074 N 
ENDBRANCH   4   9
BRANCH   1  10
ATOM     10  C   UNL     1     -35.251  23.778   2.690  0.00  0.00    +0.124 C 
BRANCH  10  11
ATOM     11  C   UNL     1     -36.625  23.799   2.035  0.00  0.00    +0.173 C 
BRANCH  11  12
ATOM     12  S   UNL     1     -37.697  25.014   2.737  0.00  0.00    -0.008 S 
ATOM     13  O   UNL     1     -38.286  24.458   3.944  0.00  0.00    -0.173 OA
ATOM     14  O   UNL     1     -36.986  26.280   2.775  0.00  0.00    -0.173 OA
BRANCH  12  15
ATOM     15  C   UNL     1     -38.994  25.164   1.529  0.00  0.00    +0.151 C 
ATOM     16  C   UNL     1     -40.162  24.262   1.855  0.00  0.00    +0.027 C 
ENDBRANCH  12  15
ENDBRANCH  11  12
ENDBRANCH  10  11
ENDBRANCH   1  10
TORSDOF 5
ENDMDL
MODEL 6
REMARK VINA RESULT:      -4.5      1.866      2.373
REMARK  Name = 5479
REMARK  5 active torsions:
REMARK  status: ('A' for Active; 'I' for Inactive)
REMARK    1  A    between atoms: N_1  and  C_10
REMARK    2  A    between atoms: C_4  and  N_9
REMARK    3  A    between atoms: C_10  and  C_11
REMARK    4  A    between atoms: C_11  and  S_12
REMARK    5  A    between atoms: S_12  and  C_15
REMARK                            x       y       z     vdW  Elec       q    Type
REMARK                         _______ _______ _______ _____ _____    ______ ____
ROOT
ATOM      1  N   UNL     1     -36.091  22.898   3.876  0.00  0.00    -0.254 N 
ATOM      2  N   UNL     1     -35.198  20.913   4.247  0.00  0.00    -0.230 NA
ATOM      3  C   UNL     1     -35.506  22.074   4.784  0.00  0.00    +0.114 C 
ATOM      4  C   UNL     1     -36.169  22.242   2.688  0.00  0.00    +0.218 C 
ATOM      5  C   UNL     1     -35.609  21.011   2.942  0.00  0.00    +0.140 C 
ATOM      6  C   UNL     1     -35.266  22.473   6.185  0.00  0.00    +0.069 C 
ENDROOT
BRANCH   4   9
ATOM      7  O   UNL     1     -35.956  23.296   0.652  0.00  0.00    -0.125 OA
ATOM      8  O   UNL     1     -37.971  22.762   1.353  0.00  0.00    -0.125 OA
ATOM      9  N   UNL     1     -36.719  22.787   1.522  0.00  0.00    +0.074 N 
ENDBRANCH   4   9
BRANCH   1  10
ATOM     10  C   UNL     1     -36.558  24.257   4.137  0.00  0.00    +0.124 C 
BRANCH  10  11
ATOM     11  C   UNL     1     -35.697  25.330   3.487  0.00  0.00    +0.173 C 
BRANCH  11  12
ATOM     12  S   UNL     1     -34.411  25.910   4.548  0.00  0.00    -0.008 S 
ATOM     13  O   UNL     1     -35.010  26.322   5.807  0.00  0.00    -0.173 OA
ATOM     14  O   UNL     1     -33.331  24.938   4.526  0.00  0.00    -0.173 OA
BRANCH  12  15
ATOM     15  C   UNL     1     -33.829  27.376   3.726  0.00  0.00    +0.151 C 
ATOM     16  C   UNL     1     -34.910  27.998   2.871  0.00  0.00    +0.027 C 
ENDBRANCH  12  15
ENDBRANCH  11  12
ENDBRANCH  10  11
ENDBRANCH   1  10
TORSDOF 5
ENDMDL
MODEL 7
REMARK VINA RESULT:      -4.5      3.245      5.449
REMARK  Name = 5479
REMARK  5 active torsions:
REMARK  status: ('A' for Active; 'I' for Inactive)
REMARK    1  A    between atoms: N_1  and  C_10
REMARK    2  A    between atoms: C_4  and  N_9
REMARK    3  A    between atoms: C_10  and  C_11
REMARK    4  A    between atoms: C_11  and  S_12
REMARK    5  A    between atoms: S_12  and  C_15
REMARK                            x       y       z     vdW  Elec       q    Type
REMARK                         _______ _______ _______ _____ _____    ______ ____
ROOT
ATOM      1  N   UNL     1     -34.690  24.663   3.000  0.00  0.00    -0.254 N 
ATOM      2  N   UNL     1     -33.197  25.975   3.963  0.00  0.00    -0.230 NA
ATOM      3  C   UNL     1     -33.562  25.403   2.836  0.00  0.00    +0.114 C 
ATOM      4  C   UNL     1     -35.080  24.758   4.298  0.00  0.00    +0.218 C 
ATOM      5  C   UNL     1     -34.139  25.577   4.878  0.00  0.00    +0.140 C 
ATOM      6  C   UNL     1     -32.868  25.523   1.539  0.00  0.00    +0.069 C 
ENDROOT
BRANCH   4   9
ATOM      7  O   UNL     1     -36.061  23.156   5.631  0.00  0.00    -0.125 OA
ATOM      8  O   UNL     1     -37.362  24.525   4.502  0.00  0.00    -0.125 OA
ATOM      9  N   UNL     1     -36.209  24.123   4.829  0.00  0.00    +0.074 N 
ENDBRANCH   4   9
BRANCH   1  10
ATOM     10  C   UNL     1     -35.366  23.901   1.954  0.00  0.00    +0.124 C 
BRANCH  10  11
ATOM     11  C   UNL     1     -34.808  22.497   1.770  0.00  0.00    +0.173 C 
BRANCH  11  12
ATOM     12  S   UNL     1     -35.873  21.249   2.422  0.00  0.00    -0.008 S 
ATOM     13  O   UNL     1     -35.284  20.745   3.651  0.00  0.00    -0.173 OA
ATOM     14  O   UNL     1     -37.233  21.758   2.407  0.00  0.00    -0.173 OA
BRANCH  12  15
ATOM     15  C   UNL     1     -35.775  19.951   1.209  0.00  0.00    +0.151 C 
ATOM     16  C   UNL     1     -34.388  19.353   1.149  0.00  0.00    +0.027 C 
ENDBRANCH  12  15
ENDBRANCH  11  12
ENDBRANCH  10  11
ENDBRANCH   1  10
TORSDOF 5
ENDMDL
MODEL 8
REMARK VINA RESULT:      -4.4      3.212      4.309
REMARK  Name = 5479
REMARK  5 active torsions:
REMARK  status: ('A' for Active; 'I' for Inactive)
REMARK    1  A    between atoms: N_1  and  C_10
REMARK    2  A    between atoms: C_4  and  N_9
REMARK    3  A    between atoms: C_10  and  C_11
REMARK    4  A    between atoms: C_11  and  S_12
REMARK    5  A    between atoms: S_12  and  C_15
REMARK                            x       y       z     vdW  Elec       q    Type
REMARK                         _______ _______ _______ _____ _____    ______ ____
ROOT
ATOM      1  N   UNL     1     -34.800  22.706   1.388  0.00  0.00    -0.254 N 
ATOM      2  N   UNL     1     -33.312  21.931  -0.048  0.00  0.00    -0.230 NA
ATOM      3  C   UNL     1     -33.892  23.013   0.425  0.00  0.00    +0.114 C 
ATOM      4  C   UNL     1     -34.811  21.357   1.552  0.00  0.00    +0.218 C 
ATOM      5  C   UNL     1     -33.880  20.896   0.651  0.00  0.00    +0.140 C 
ATOM      6  C   UNL     1     -33.624  24.400  -0.006  0.00  0.00    +0.069 C 
ENDROOT
BRANCH   4   9
ATOM      7  O   UNL     1     -35.239  20.535   3.661  0.00  0.00    -0.125 OA
ATOM      8  O   UNL     1     -36.745  20.228   2.087  0.00  0.00    -0.125 OA
ATOM      9  N   UNL     1     -35.628  20.682   2.466  0.00  0.00    +0.074 N 
ENDBRANCH   4   9
BRANCH   1  10
ATOM     10  C   UNL     1     -35.619  23.666   2.121  0.00  0.00    +0.124 C 
BRANCH  10  11
ATOM     11  C   UNL     1     -35.013  24.091   3.451  0.00  0.00    +0.173 C 
BRANCH  11  12
ATOM     12  S   UNL     1     -36.215  24.224   4.737  0.00  0.00    -0.008 S 
ATOM     13  O   UNL     1     -37.526  24.362   4.124  0.00  0.00    -0.173 OA
ATOM     14  O   UNL     1     -35.960  23.174   5.708  0.00  0.00    -0.173 OA
BRANCH  12  15
ATOM     15  C   UNL     1     -35.819  25.776   5.511  0.00  0.00    +0.151 C 
ATOM     16  C   UNL     1     -34.333  25.916   5.745  0.00  0.00    +0.027 C 
ENDBRANCH  12  15
ENDBRANCH  11  12
ENDBRANCH  10  11
ENDBRANCH   1  10
TORSDOF 5
ENDMDL
MODEL 9
REMARK VINA RESULT:      -4.4      9.064     10.025
REMARK  Name = 5479
REMARK  5 active torsions:
REMARK  status: ('A' for Active; 'I' for Inactive)
REMARK    1  A    between atoms: N_1  and  C_10
REMARK    2  A    between atoms: C_4  and  N_9
REMARK    3  A    between atoms: C_10  and  C_11
REMARK    4  A    between atoms: C_11  and  S_12
REMARK    5  A    between atoms: S_12  and  C_15
REMARK                            x       y       z     vdW  Elec       q    Type
REMARK                         _______ _______ _______ _____ _____    ______ ____
ROOT
ATOM      1  N   UNL     1     -44.608  27.053   4.149  0.00  0.00    -0.254 N 
ATOM      2  N   UNL     1     -45.138  25.506   2.666  0.00  0.00    -0.230 NA
ATOM      3  C   UNL     1     -45.514  26.114   3.769  0.00  0.00    +0.114 C 
ATOM      4  C   UNL     1     -43.591  27.057   3.248  0.00  0.00    +0.218 C 
ATOM      5  C   UNL     1     -43.941  26.089   2.335  0.00  0.00    +0.140 C 
ATOM      6  C   UNL     1     -46.751  25.846   4.530  0.00  0.00    +0.069 C 
ENDROOT
BRANCH   4   9
ATOM      7  O   UNL     1     -41.468  27.546   3.994  0.00  0.00    -0.125 OA
ATOM      8  O   UNL     1     -42.495  29.010   2.712  0.00  0.00    -0.125 OA
ATOM      9  N   UNL     1     -42.478  27.902   3.321  0.00  0.00    +0.074 N 
ENDBRANCH   4   9
BRANCH   1  10
ATOM     10  C   UNL     1     -44.716  27.911   5.325  0.00  0.00    +0.124 C 
BRANCH  10  11
ATOM     11  C   UNL     1     -45.191  29.322   5.007  0.00  0.00    +0.173 C 
BRANCH  11  12
ATOM     12  S   UNL     1     -44.114  30.566   5.646  0.00  0.00    -0.008 S 
ATOM     13  O   UNL     1     -42.818  29.959   5.902  0.00  0.00    -0.173 OA
ATOM     14  O   UNL     1     -44.227  31.742   4.802  0.00  0.00    -0.173 OA
BRANCH  12  15
ATOM     15  C   UNL     1     -44.838  30.965   7.221  0.00  0.00    +0.151 C 
ATOM     16  C   UNL     1     -43.981  30.474   8.366  0.00  0.00    +0.027 C 
ENDBRANCH  12  15
ENDBRANCH  11  12
ENDBRANCH  10  11
ENDBRANCH   1  10
TORSDOF 5
ENDMDL
