MODEL 1
REMARK VINA RESULT:      -6.1      0.000      0.000
REMARK  Name = 5311262
REMARK  8 active torsions:
REMARK  status: ('A' for Active; 'I' for Inactive)
REMARK    1  A    between atoms: C_1  and  N_2
REMARK    2  A    between atoms: C_1  and  C_6
REMARK    3  A    between atoms: C_1  and  C_15
REMARK    4  A    between atoms: C_1  and  C_18
REMARK    5  A    between atoms: C_9  and  C_11
REMARK    6  A    between atoms: C_11  and  O_12
REMARK    7  A    between atoms: C_15  and  O_16
REMARK    8  A    between atoms: C_18  and  C_20
REMARK                            x       y       z     vdW  Elec       q    Type
REMARK                         _______ _______ _______ _____ _____    ______ ____
ROOT
ATOM      1  C   UNL     1     -36.243  22.298   2.855  0.00  0.00    +0.043 C 
ENDROOT
BRANCH   1   2
ATOM      2  N   UNL     1     -37.228  21.300   2.429  0.00  0.00    +0.390 N 
ATOM      3  H   UNL     1     -38.104  21.452   2.928  0.00  0.00    -0.088 HD
ATOM      4  H   UNL     1     -36.876  20.366   2.637  0.00  0.00    -0.088 HD
ATOM      5  H   UNL     1     -37.388  21.388   1.425  0.00  0.00    -0.088 HD
ENDBRANCH   1   2
BRANCH   1   6
ATOM      6  C   UNL     1     -36.898  23.666   2.777  0.00  0.00    -0.007 C 
ATOM      7  C   UNL     1     -38.149  23.737   1.877  0.00  0.00    +0.010 C 
ATOM      8  C   UNL     1     -36.231  24.650   1.794  0.00  0.00    +0.010 C 
ATOM      9  C   UNL     1     -37.651  25.125   1.423  0.00  0.00    +0.099 C 
BRANCH   9  11
ATOM     10  O   UNL     1     -39.239  26.341   2.892  0.00  0.00    -0.250 OA
ATOM     11  C   UNL     1     -38.193  26.341   2.261  0.00  0.00    +0.313 C 
BRANCH  11  12
ATOM     12  O   UNL     1     -37.349  27.399   2.182  0.00  0.00    -0.480 OA
ATOM     13  H   UNL     1     -36.433  27.281   2.342  0.00  0.00    +0.295 HD
ENDBRANCH  11  12
ENDBRANCH   9  11
ENDBRANCH   1   6
BRANCH   1  15
ATOM     14  O   UNL     1     -36.013  22.711   5.247  0.00  0.00    -0.253 OA
ATOM     15  C   UNL     1     -35.832  21.963   4.293  0.00  0.00    +0.294 C 
BRANCH  15  16
ATOM     16  O   UNL     1     -35.259  20.741   4.438  0.00  0.00    -0.482 OA
ATOM     17  H   UNL     1     -35.785  20.002   4.675  0.00  0.00    +0.295 HD
ENDBRANCH  15  16
ENDBRANCH   1  15
BRANCH   1  18
ATOM     18  C   UNL     1     -34.980  22.273   1.967  0.00  0.00    -0.001 C 
BRANCH  18  20
ATOM     19  S   UNL     1     -32.482  22.253  -0.853  0.00  0.00    -0.088 S 
ATOM     20  C   UNL     1     -35.048  21.330   0.761  0.00  0.00    +0.044 C 
ATOM     21  C   UNL     1     -35.253  22.120  -0.521  0.00  0.00    -0.012 C 
ATOM     22  C   UNL     1     -33.843  20.404   0.740  0.00  0.00    -0.012 C 
ATOM     23  C   UNL     1     -34.177  22.589  -1.293  0.00  0.00    +0.026 C 
ATOM     24  C   UNL     1     -32.655  20.737   0.069  0.00  0.00    +0.026 C 
ATOM     25  C   UNL     1     -36.564  22.429  -0.925  0.00  0.00    -0.003 C 
ATOM     26  C   UNL     1     -33.905  19.193   1.453  0.00  0.00    -0.003 C 
ATOM     27  C   UNL     1     -34.424  23.349  -2.444  0.00  0.00    +0.006 C 
ATOM     28  C   UNL     1     -31.558  19.863   0.119  0.00  0.00    +0.006 C 
ATOM     29  C   UNL     1     -36.801  23.181  -2.074  0.00  0.00    -0.000 C 
ATOM     30  C   UNL     1     -32.812  18.328   1.492  0.00  0.00    -0.000 C 
ATOM     31  C   UNL     1     -35.731  23.642  -2.834  0.00  0.00    +0.000 C 
ATOM     32  C   UNL     1     -31.639  18.664   0.826  0.00  0.00    +0.000 C 
ENDBRANCH  18  20
ENDBRANCH   1  18
TORSDOF 8
ENDMDL
MODEL 2
REMARK VINA RESULT:      -6.0      3.732      5.184
REMARK  Name = 5311262
REMARK  8 active torsions:
REMARK  status: ('A' for Active; 'I' for Inactive)
REMARK    1  A    between atoms: C_1  and  N_2
REMARK    2  A    between atoms: C_1  and  C_6
REMARK    3  A    between atoms: C_1  and  C_15
REMARK    4  A    between atoms: C_1  and  C_18
REMARK    5  A    between atoms: C_9  and  C_11
REMARK    6  A    between atoms: C_11  and  O_12
REMARK    7  A    between atoms: C_15  and  O_16
REMARK    8  A    between atoms: C_18  and  C_20
REMARK                            x       y       z     vdW  Elec       q    Type
REMARK                         _______ _______ _______ _____ _____    ______ ____
ROOT
ATOM      1  C   UNL     1     -36.193  26.065   2.181  0.00  0.00    +0.043 C 
ENDROOT
BRANCH   1   2
ATOM      2  N   UNL     1     -35.880  26.829   0.971  0.00  0.00    +0.390 N 
ATOM      3  H   UNL     1     -35.648  27.789   1.225  0.00  0.00    -0.088 HD
ATOM      4  H   UNL     1     -36.690  26.828   0.350  0.00  0.00    -0.088 HD
ATOM      5  H   UNL     1     -35.086  26.401   0.495  0.00  0.00    -0.088 HD
ENDBRANCH   1   2
BRANCH   1   6
ATOM      6  C   UNL     1     -35.206  26.474   3.261  0.00  0.00    -0.007 C 
ATOM      7  C   UNL     1     -34.448  27.788   2.984  0.00  0.00    +0.010 C 
ATOM      8  C   UNL     1     -33.839  25.761   3.194  0.00  0.00    +0.010 C 
ATOM      9  C   UNL     1     -33.203  27.109   3.592  0.00  0.00    +0.099 C 
BRANCH   9  11
ATOM     10  O   UNL     1     -33.204  26.478   5.993  0.00  0.00    -0.250 OA
ATOM     11  C   UNL     1     -33.004  27.328   5.138  0.00  0.00    +0.313 C 
BRANCH  11  12
ATOM     12  O   UNL     1     -32.590  28.591   5.398  0.00  0.00    -0.480 OA
ATOM     13  H   UNL     1     -33.012  29.095   6.066  0.00  0.00    +0.295 HD
ENDBRANCH  11  12
ENDBRANCH   9  11
ENDBRANCH   1   6
BRANCH   1  15
ATOM     14  O   UNL     1     -38.520  26.682   1.792  0.00  0.00    -0.253 OA
ATOM     15  C   UNL     1     -37.631  26.405   2.589  0.00  0.00    +0.294 C 
BRANCH  15  16
ATOM     16  O   UNL     1     -37.857  26.355   3.927  0.00  0.00    -0.482 OA
ATOM     17  H   UNL     1     -38.612  25.908   4.258  0.00  0.00    +0.295 HD
ENDBRANCH  15  16
ENDBRANCH   1  15
BRANCH   1  18
ATOM     18  C   UNL     1     -36.101  24.543   1.939  0.00  0.00    -0.001 C 
BRANCH  18  20
ATOM     19  S   UNL     1     -35.906  20.790   2.205  0.00  0.00    -0.088 S 
ATOM     20  C   UNL     1     -37.047  23.687   2.790  0.00  0.00    +0.044 C 
ATOM     21  C   UNL     1     -37.865  22.760   1.907  0.00  0.00    -0.012 C 
ATOM     22  C   UNL     1     -36.278  22.982   3.895  0.00  0.00    -0.012 C 
ATOM     23  C   UNL     1     -37.432  21.465   1.575  0.00  0.00    +0.026 C 
ATOM     24  C   UNL     1     -35.718  21.706   3.722  0.00  0.00    +0.026 C 
ATOM     25  C   UNL     1     -39.076  23.230   1.369  0.00  0.00    -0.003 C 
ATOM     26  C   UNL     1     -36.083  23.650   5.118  0.00  0.00    -0.003 C 
ATOM     27  C   UNL     1     -38.207  20.668   0.722  0.00  0.00    +0.006 C 
ATOM     28  C   UNL     1     -34.981  21.121   4.762  0.00  0.00    +0.006 C 
ATOM     29  C   UNL     1     -39.844  22.428   0.525  0.00  0.00    -0.000 C 
ATOM     30  C   UNL     1     -35.354  23.058   6.149  0.00  0.00    -0.000 C 
ATOM     31  C   UNL     1     -39.409  21.148   0.201  0.00  0.00    +0.000 C 
ATOM     32  C   UNL     1     -34.803  21.794   5.970  0.00  0.00    +0.000 C 
ENDBRANCH  18  20
ENDBRANCH   1  18
TORSDOF 8
ENDMDL
MODEL 3
REMARK VINA RESULT:      -6.0      2.987      4.768
REMARK  Name = 5311262
REMARK  8 active torsions:
REMARK  status: ('A' for Active; 'I' for Inactive)
REMARK    1  A    between atoms: C_1  and  N_2
REMARK    2  A    between atoms: C_1  and  C_6
REMARK    3  A    between atoms: C_1  and  C_15
REMARK    4  A    between atoms: C_1  and  C_18
REMARK    5  A    between atoms: C_9  and  C_11
REMARK    6  A    between atoms: C_11  and  O_12
REMARK    7  A    between atoms: C_15  and  O_16
REMARK    8  A    between atoms: C_18  and  C_20
REMARK                            x       y       z     vdW  Elec       q    Type
REMARK                         _______ _______ _______ _____ _____    ______ ____
ROOT
ATOM      1  C   UNL     1     -39.246  23.189   1.333  0.00  0.00    +0.043 C 
ENDROOT
BRANCH   1   2
ATOM      2  N   UNL     1     -38.584  23.727   0.142  0.00  0.00    +0.390 N 
ATOM      3  H   UNL     1     -37.591  23.494   0.170  0.00  0.00    -0.088 HD
ATOM      4  H   UNL     1     -38.693  24.741   0.121  0.00  0.00    -0.088 HD
ATOM      5  H   UNL     1     -39.005  23.322  -0.693  0.00  0.00    -0.088 HD
ENDBRANCH   1   2
BRANCH   1   6
ATOM      6  C   UNL     1     -40.113  24.287   1.923  0.00  0.00    -0.007 C 
ATOM      7  C   UNL     1     -39.683  25.722   1.558  0.00  0.00    +0.010 C 
ATOM      8  C   UNL     1     -39.796  24.648   3.390  0.00  0.00    +0.010 C 
ATOM      9  C   UNL     1     -40.051  26.119   3.003  0.00  0.00    +0.099 C 
BRANCH   9  11
ATOM     10  O   UNL     1     -42.489  26.242   2.556  0.00  0.00    -0.250 OA
ATOM     11  C   UNL     1     -41.528  26.621   3.208  0.00  0.00    +0.313 C 
BRANCH  11  12
ATOM     12  O   UNL     1     -41.593  27.543   4.200  0.00  0.00    -0.480 OA
ATOM     13  H   UNL     1     -42.426  27.836   4.513  0.00  0.00    +0.295 HD
ENDBRANCH  11  12
ENDBRANCH   9  11
ENDBRANCH   1   6
BRANCH   1  15
ATOM     14  O   UNL     1     -40.576  21.868  -0.226  0.00  0.00    -0.253 OA
ATOM     15  C   UNL     1     -40.093  21.990   0.894  0.00  0.00    +0.294 C 
BRANCH  15  16
ATOM     16  O   UNL     1     -40.255  21.041   1.853  0.00  0.00    -0.482 OA
ATOM     17  H   UNL     1     -39.657  20.322   1.905  0.00  0.00    +0.295 HD
ENDBRANCH  15  16
ENDBRANCH   1  15
BRANCH   1  18
ATOM     18  C   UNL     1     -38.226  22.706   2.388  0.00  0.00    -0.001 C 
BRANCH  18  20
ATOM     19  S   UNL     1     -35.283  21.486   4.399  0.00  0.00    -0.088 S 
ATOM     20  C   UNL     1     -36.771  23.113   2.123  0.00  0.00    +0.044 C 
ATOM     21  C   UNL     1     -36.211  23.884   3.306  0.00  0.00    -0.012 C 
ATOM     22  C   UNL     1     -35.946  21.903   1.717  0.00  0.00    -0.012 C 
ATOM     23  C   UNL     1     -35.554  23.248   4.373  0.00  0.00    +0.026 C 
ATOM     24  C   UNL     1     -35.268  21.109   2.657  0.00  0.00    +0.026 C 
ATOM     25  C   UNL     1     -36.395  25.278   3.355  0.00  0.00    -0.003 C 
ATOM     26  C   UNL     1     -35.895  21.541   0.359  0.00  0.00    -0.003 C 
ATOM     27  C   UNL     1     -35.094  24.006   5.459  0.00  0.00    +0.006 C 
ATOM     28  C   UNL     1     -34.557  19.978   2.230  0.00  0.00    +0.006 C 
ATOM     29  C   UNL     1     -35.930  26.024   4.437  0.00  0.00    -0.000 C 
ATOM     30  C   UNL     1     -35.180  20.418  -0.057  0.00  0.00    -0.000 C 
ATOM     31  C   UNL     1     -35.280  25.388   5.489  0.00  0.00    +0.000 C 
ATOM     32  C   UNL     1     -34.512  19.637   0.880  0.00  0.00    +0.000 C 
ENDBRANCH  18  20
ENDBRANCH   1  18
TORSDOF 8
ENDMDL
MODEL 4
REMARK VINA RESULT:      -6.0      3.410      7.048
REMARK  Name = 5311262
REMARK  8 active torsions:
REMARK  status: ('A' for Active; 'I' for Inactive)
REMARK    1  A    between atoms: C_1  and  N_2
REMARK    2  A    between atoms: C_1  and  C_6
REMARK    3  A    between atoms: C_1  and  C_15
REMARK    4  A    between atoms: C_1  and  C_18
REMARK    5  A    between atoms: C_9  and  C_11
REMARK    6  A    between atoms: C_11  and  O_12
REMARK    7  A    between atoms: C_15  and  O_16
REMARK    8  A    between atoms: C_18  and  C_20
REMARK                            x       y       z     vdW  Elec       q    Type
REMARK                         _______ _______ _______ _____ _____    ______ ____
ROOT
ATOM      1  C   UNL     1     -36.421  20.765   1.143  0.00  0.00    +0.043 C 
ENDROOT
BRANCH   1   2
ATOM      2  N   UNL     1     -36.941  19.988   2.271  0.00  0.00    +0.390 N 
ATOM      3  H   UNL     1     -36.272  19.260   2.520  0.00  0.00    -0.088 HD
ATOM      4  H   UNL     1     -37.828  19.558   2.008  0.00  0.00    -0.088 HD
ATOM      5  H   UNL     1     -37.087  20.605   3.071  0.00  0.00    -0.088 HD
ENDBRANCH   1   2
BRANCH   1   6
ATOM      6  C   UNL     1     -34.969  20.375   0.936  0.00  0.00    -0.007 C 
ATOM      7  C   UNL     1     -34.752  18.967   0.346  0.00  0.00    +0.010 C 
ATOM      8  C   UNL     1     -34.244  19.872   2.202  0.00  0.00    +0.010 C 
ATOM      9  C   UNL     1     -33.544  18.836   1.298  0.00  0.00    +0.099 C 
BRANCH   9  11
ATOM     10  O   UNL     1     -31.966  20.359   0.137  0.00  0.00    -0.250 OA
ATOM     11  C   UNL     1     -32.163  19.292   0.698  0.00  0.00    +0.313 C 
BRANCH  11  12
ATOM     12  O   UNL     1     -31.218  18.336   0.877  0.00  0.00    -0.480 OA
ATOM     13  H   UNL     1     -30.483  18.501   1.435  0.00  0.00    +0.295 HD
ENDBRANCH  11  12
ENDBRANCH   9  11
ENDBRANCH   1   6
BRANCH   1  15
ATOM     14  O   UNL     1     -37.102  20.929  -1.193  0.00  0.00    -0.253 OA
ATOM     15  C   UNL     1     -37.267  20.424  -0.088  0.00  0.00    +0.294 C 
BRANCH  15  16
ATOM     16  O   UNL     1     -38.221  19.482   0.135  0.00  0.00    -0.482 OA
ATOM     17  H   UNL     1     -38.542  19.339   1.003  0.00  0.00    +0.295 HD
ENDBRANCH  15  16
ENDBRANCH   1  15
BRANCH   1  18
ATOM     18  C   UNL     1     -36.522  22.285   1.399  0.00  0.00    -0.001 C 
BRANCH  18  20
ATOM     19  S   UNL     1     -36.832  25.815   2.679  0.00  0.00    -0.088 S 
ATOM     20  C   UNL     1     -37.338  22.687   2.633  0.00  0.00    +0.044 C 
ATOM     21  C   UNL     1     -36.428  23.250   3.712  0.00  0.00    -0.012 C 
ATOM     22  C   UNL     1     -38.483  23.604   2.238  0.00  0.00    -0.012 C 
ATOM     23  C   UNL     1     -36.129  24.620   3.800  0.00  0.00    +0.026 C 
ATOM     24  C   UNL     1     -38.348  25.002   2.208  0.00  0.00    +0.026 C 
ATOM     25  C   UNL     1     -35.832  22.364   4.626  0.00  0.00    -0.003 C 
ATOM     26  C   UNL     1     -39.708  23.032   1.847  0.00  0.00    -0.003 C 
ATOM     27  C   UNL     1     -35.249  25.078   4.791  0.00  0.00    +0.006 C 
ATOM     28  C   UNL     1     -39.425  25.798   1.795  0.00  0.00    +0.006 C 
ATOM     29  C   UNL     1     -34.962  22.829   5.612  0.00  0.00    -0.000 C 
ATOM     30  C   UNL     1     -40.776  23.832   1.442  0.00  0.00    -0.000 C 
ATOM     31  C   UNL     1     -34.671  24.186   5.694  0.00  0.00    +0.000 C 
ATOM     32  C   UNL     1     -40.633  25.216   1.416  0.00  0.00    +0.000 C 
ENDBRANCH  18  20
ENDBRANCH   1  18
TORSDOF 8
ENDMDL
MODEL 5
REMARK VINA RESULT:      -6.0      4.116      6.455
REMARK  Name = 5311262
REMARK  8 active torsions:
REMARK  status: ('A' for Active; 'I' for Inactive)
REMARK    1  A    between atoms: C_1  and  N_2
REMARK    2  A    between atoms: C_1  and  C_6
REMARK    3  A    between atoms: C_1  and  C_15
REMARK    4  A    between atoms: C_1  and  C_18
REMARK    5  A    between atoms: C_9  and  C_11
REMARK    6  A    between atoms: C_11  and  O_12
REMARK    7  A    between atoms: C_15  and  O_16
REMARK    8  A    between atoms: C_18  and  C_20
REMARK                            x       y       z     vdW  Elec       q    Type
REMARK                         _______ _______ _______ _____ _____    ______ ____
ROOT
ATOM      1  C   UNL     1     -36.504  25.948   3.451  0.00  0.00    +0.043 C 
ENDROOT
BRANCH   1   2
ATOM      2  N   UNL     1     -36.908  26.070   4.855  0.00  0.00    +0.390 N 
ATOM      3  H   UNL     1     -37.079  27.051   5.076  0.00  0.00    -0.088 HD
ATOM      4  H   UNL     1     -36.166  25.710   5.454  0.00  0.00    -0.088 HD
ATOM      5  H   UNL     1     -37.761  25.533   5.010  0.00  0.00    -0.088 HD
ENDBRANCH   1   2
BRANCH   1   6
ATOM      6  C   UNL     1     -36.092  24.507   3.206  0.00  0.00    -0.007 C 
ATOM      7  C   UNL     1     -37.251  23.550   2.860  0.00  0.00    +0.010 C 
ATOM      8  C   UNL     1     -35.881  23.666   4.482  0.00  0.00    +0.010 C 
ATOM      9  C   UNL     1     -36.535  22.492   3.725  0.00  0.00    +0.099 C 
BRANCH   9  11
ATOM     10  O   UNL     1     -34.977  21.845   1.905  0.00  0.00    -0.250 OA
ATOM     11  C   UNL     1     -35.538  21.553   2.950  0.00  0.00    +0.313 C 
BRANCH  11  12
ATOM     12  O   UNL     1     -35.391  20.368   3.591  0.00  0.00    -0.480 OA
ATOM     13  H   UNL     1     -34.707  19.780   3.340  0.00  0.00    +0.295 HD
ENDBRANCH  11  12
ENDBRANCH   9  11
ENDBRANCH   1   6
BRANCH   1  15
ATOM     14  O   UNL     1     -37.648  26.509   1.372  0.00  0.00    -0.253 OA
ATOM     15  C   UNL     1     -37.707  26.336   2.584  0.00  0.00    +0.294 C 
BRANCH  15  16
ATOM     16  O   UNL     1     -38.873  26.454   3.271  0.00  0.00    -0.482 OA
ATOM     17  H   UNL     1     -38.983  26.006   4.087  0.00  0.00    +0.295 HD
ENDBRANCH  15  16
ENDBRANCH   1  15
BRANCH   1  18
ATOM     18  C   UNL     1     -35.331  26.892   3.109  0.00  0.00    -0.001 C 
BRANCH  18  20
ATOM     19  S   UNL     1     -32.124  28.828   2.702  0.00  0.00    -0.088 S 
ATOM     20  C   UNL     1     -33.932  26.302   3.325  0.00  0.00    +0.044 C 
ATOM     21  C   UNL     1     -33.143  26.315   2.027  0.00  0.00    -0.012 C 
ATOM     22  C   UNL     1     -33.238  26.990   4.488  0.00  0.00    -0.012 C 
ATOM     23  C   UNL     1     -32.330  27.398   1.655  0.00  0.00    +0.026 C 
ATOM     24  C   UNL     1     -32.434  28.128   4.312  0.00  0.00    +0.026 C 
ATOM     25  C   UNL     1     -33.263  25.223   1.149  0.00  0.00    -0.003 C 
ATOM     26  C   UNL     1     -33.443  26.498   5.790  0.00  0.00    -0.003 C 
ATOM     27  C   UNL     1     -31.657  27.375   0.426  0.00  0.00    +0.006 C 
ATOM     28  C   UNL     1     -31.852  28.749   5.427  0.00  0.00    +0.006 C 
ATOM     29  C   UNL     1     -32.586  25.205  -0.069  0.00  0.00    -0.000 C 
ATOM     30  C   UNL     1     -32.856  27.119   6.892  0.00  0.00    -0.000 C 
ATOM     31  C   UNL     1     -31.783  26.281  -0.431  0.00  0.00    +0.000 C 
ATOM     32  C   UNL     1     -32.060  28.245   6.709  0.00  0.00    +0.000 C 
ENDBRANCH  18  20
ENDBRANCH   1  18
TORSDOF 8
ENDMDL
MODEL 6
REMARK VINA RESULT:      -5.9      1.517      1.926
REMARK  Name = 5311262
REMARK  8 active torsions:
REMARK  status: ('A' for Active; 'I' for Inactive)
REMARK    1  A    between atoms: C_1  and  N_2
REMARK    2  A    between atoms: C_1  and  C_6
REMARK    3  A    between atoms: C_1  and  C_15
REMARK    4  A    between atoms: C_1  and  C_18
REMARK    5  A    between atoms: C_9  and  C_11
REMARK    6  A    between atoms: C_11  and  O_12
REMARK    7  A    between atoms: C_15  and  O_16
REMARK    8  A    between atoms: C_18  and  C_20
REMARK                            x       y       z     vdW  Elec       q    Type
REMARK                         _______ _______ _______ _____ _____    ______ ____
ROOT
ATOM      1  C   UNL     1     -35.767  22.198   2.423  0.00  0.00    +0.043 C 
ENDROOT
BRANCH   1   2
ATOM      2  N   UNL     1     -37.015  22.310   1.665  0.00  0.00    +0.390 N 
ATOM      3  H   UNL     1     -36.938  21.774   0.801  0.00  0.00    -0.088 HD
ATOM      4  H   UNL     1     -37.190  23.290   1.442  0.00  0.00    -0.088 HD
ATOM      5  H   UNL     1     -37.787  21.946   2.224  0.00  0.00    -0.088 HD
ENDBRANCH   1   2
BRANCH   1   6
ATOM      6  C   UNL     1     -35.705  23.360   3.399  0.00  0.00    -0.007 C 
ATOM      7  C   UNL     1     -36.795  24.434   3.201  0.00  0.00    +0.010 C 
ATOM      8  C   UNL     1     -34.674  24.452   3.045  0.00  0.00    +0.010 C 
ATOM      9  C   UNL     1     -35.713  25.484   3.530  0.00  0.00    +0.099 C 
BRANCH   9  11
ATOM     10  O   UNL     1     -34.698  25.547   5.794  0.00  0.00    -0.250 OA
ATOM     11  C   UNL     1     -35.604  25.885   5.047  0.00  0.00    +0.313 C 
BRANCH  11  12
ATOM     12  O   UNL     1     -36.659  26.649   5.423  0.00  0.00    -0.480 OA
ATOM     13  H   UNL     1     -37.190  26.392   6.151  0.00  0.00    +0.295 HD
ENDBRANCH  11  12
ENDBRANCH   9  11
ENDBRANCH   1   6
BRANCH   1  15
ATOM     14  O   UNL     1     -35.066  20.589   4.116  0.00  0.00    -0.253 OA
ATOM     15  C   UNL     1     -35.789  20.855   3.162  0.00  0.00    +0.294 C 
BRANCH  15  16
ATOM     16  O   UNL     1     -36.703  19.972   2.685  0.00  0.00    -0.482 OA
ATOM     17  H   UNL     1     -36.543  19.051   2.750  0.00  0.00    +0.295 HD
ENDBRANCH  15  16
ENDBRANCH   1  15
BRANCH   1  18
ATOM     18  C   UNL     1     -34.530  22.227   1.499  0.00  0.00    -0.001 C 
BRANCH  18  20
ATOM     19  S   UNL     1     -31.803  21.890  -1.079  0.00  0.00    -0.088 S 
ATOM     20  C   UNL     1     -34.554  21.219   0.344  0.00  0.00    +0.044 C 
ATOM     21  C   UNL     1     -34.595  21.943  -0.992  0.00  0.00    -0.012 C 
ATOM     22  C   UNL     1     -33.414  20.224   0.482  0.00  0.00    -0.012 C 
ATOM     23  C   UNL     1     -33.428  22.300  -1.687  0.00  0.00    +0.026 C 
ATOM     24  C   UNL     1     -32.153  20.445  -0.096  0.00  0.00    +0.026 C 
ATOM     25  C   UNL     1     -35.844  22.304  -1.528  0.00  0.00    -0.003 C 
ATOM     26  C   UNL     1     -33.616  19.063   1.251  0.00  0.00    -0.003 C 
ATOM     27  C   UNL     1     -33.525  23.004  -2.896  0.00  0.00    +0.006 C 
ATOM     28  C   UNL     1     -31.124  19.512   0.100  0.00  0.00    +0.006 C 
ATOM     29  C   UNL     1     -35.931  23.000  -2.733  0.00  0.00    -0.000 C 
ATOM     30  C   UNL     1     -32.588  18.138   1.435  0.00  0.00    -0.000 C 
ATOM     31  C   UNL     1     -34.772  23.350  -3.417  0.00  0.00    +0.000 C 
ATOM     32  C   UNL     1     -31.342  18.364   0.860  0.00  0.00    +0.000 C 
ENDBRANCH  18  20
ENDBRANCH   1  18
TORSDOF 8
ENDMDL
MODEL 7
REMARK VINA RESULT:      -5.8      2.859      3.835
REMARK  Name = 5311262
REMARK  8 active torsions:
REMARK  status: ('A' for Active; 'I' for Inactive)
REMARK    1  A    between atoms: C_1  and  N_2
REMARK    2  A    between atoms: C_1  and  C_6
REMARK    3  A    between atoms: C_1  and  C_15
REMARK    4  A    between atoms: C_1  and  C_18
REMARK    5  A    between atoms: C_9  and  C_11
REMARK    6  A    between atoms: C_11  and  O_12
REMARK    7  A    between atoms: C_15  and  O_16
REMARK    8  A    between atoms: C_18  and  C_20
REMARK                            x       y       z     vdW  Elec       q    Type
REMARK                         _______ _______ _______ _____ _____    ______ ____
ROOT
ATOM      1  C   UNL     1     -35.612  23.404   4.482  0.00  0.00    +0.043 C 
ENDROOT
BRANCH   1   2
ATOM      2  N   UNL     1     -36.992  23.893   4.432  0.00  0.00    +0.390 N 
ATOM      3  H   UNL     1     -37.634  23.115   4.585  0.00  0.00    -0.088 HD
ATOM      4  H   UNL     1     -37.173  24.308   3.518  0.00  0.00    -0.088 HD
ATOM      5  H   UNL     1     -37.130  24.596   5.158  0.00  0.00    -0.088 HD
ENDBRANCH   1   2
BRANCH   1   6
ATOM      6  C   UNL     1     -34.741  24.514   5.044  0.00  0.00    -0.007 C 
ATOM      7  C   UNL     1     -35.440  25.882   5.178  0.00  0.00    +0.010 C 
ATOM      8  C   UNL     1     -33.800  25.182   4.020  0.00  0.00    +0.010 C 
ATOM      9  C   UNL     1     -34.111  26.520   4.720  0.00  0.00    +0.099 C 
BRANCH   9  11
ATOM     10  O   UNL     1     -33.299  26.670   7.061  0.00  0.00    -0.250 OA
ATOM     11  C   UNL     1     -33.123  26.919   5.878  0.00  0.00    +0.313 C 
BRANCH  11  12
ATOM     12  O   UNL     1     -32.049  27.587   5.390  0.00  0.00    -0.480 OA
ATOM     13  H   UNL     1     -31.261  27.124   5.184  0.00  0.00    +0.295 HD
ENDBRANCH  11  12
ENDBRANCH   9  11
ENDBRANCH   1   6
BRANCH   1  15
ATOM     14  O   UNL     1     -35.861  22.192   6.583  0.00  0.00    -0.253 OA
ATOM     15  C   UNL     1     -35.587  22.168   5.389  0.00  0.00    +0.294 C 
BRANCH  15  16
ATOM     16  O   UNL     1     -35.253  21.016   4.751  0.00  0.00    -0.482 OA
ATOM     17  H   UNL     1     -34.442  20.590   4.950  0.00  0.00    +0.295 HD
ENDBRANCH  15  16
ENDBRANCH   1  15
BRANCH   1  18
ATOM     18  C   UNL     1     -35.098  22.994   3.084  0.00  0.00    -0.001 C 
BRANCH  18  20
ATOM     19  S   UNL     1     -34.195  23.015  -0.574  0.00  0.00    -0.088 S 
ATOM     20  C   UNL     1     -36.113  23.143   1.945  0.00  0.00    +0.044 C 
ATOM     21  C   UNL     1     -35.860  24.426   1.171  0.00  0.00    -0.012 C 
ATOM     22  C   UNL     1     -36.139  21.890   1.087  0.00  0.00    -0.012 C 
ATOM     23  C   UNL     1     -35.009  24.472   0.054  0.00  0.00    +0.026 C 
ATOM     24  C   UNL     1     -35.310  21.733  -0.036  0.00  0.00    +0.026 C 
ATOM     25  C   UNL     1     -36.464  25.616   1.615  0.00  0.00    -0.003 C 
ATOM     26  C   UNL     1     -36.990  20.832   1.457  0.00  0.00    -0.003 C 
ATOM     27  C   UNL     1     -34.779  25.693  -0.596  0.00  0.00    +0.006 C 
ATOM     28  C   UNL     1     -35.345  20.536  -0.766  0.00  0.00    +0.006 C 
ATOM     29  C   UNL     1     -36.234  26.824   0.959  0.00  0.00    -0.000 C 
ATOM     30  C   UNL     1     -37.022  19.647   0.720  0.00  0.00    -0.000 C 
ATOM     31  C   UNL     1     -35.391  26.863  -0.147  0.00  0.00    +0.000 C 
ATOM     32  C   UNL     1     -36.198  19.500  -0.390  0.00  0.00    +0.000 C 
ENDBRANCH  18  20
ENDBRANCH   1  18
TORSDOF 8
ENDMDL
MODEL 8
REMARK VINA RESULT:      -5.7      2.864      5.315
REMARK  Name = 5311262
REMARK  8 active torsions:
REMARK  status: ('A' for Active; 'I' for Inactive)
REMARK    1  A    between atoms: C_1  and  N_2
REMARK    2  A    between atoms: C_1  and  C_6
REMARK    3  A    between atoms: C_1  and  C_15
REMARK    4  A    between atoms: C_1  and  C_18
REMARK    5  A    between atoms: C_9  and  C_11
REMARK    6  A    between atoms: C_11  and  O_12
REMARK    7  A    between atoms: C_15  and  O_16
REMARK    8  A    between atoms: C_18  and  C_20
REMARK                            x       y       z     vdW  Elec       q    Type
REMARK                         _______ _______ _______ _____ _____    ______ ____
ROOT
ATOM      1  C   UNL     1     -36.378  25.969   1.733  0.00  0.00    +0.043 C 
ENDROOT
BRANCH   1   2
ATOM      2  N   UNL     1     -36.244  26.344   0.322  0.00  0.00    +0.390 N 
ATOM      3  H   UNL     1     -35.649  25.668  -0.155  0.00  0.00    -0.088 HD
ATOM      4  H   UNL     1     -35.826  27.272   0.255  0.00  0.00    -0.088 HD
ATOM      5  H   UNL     1     -37.166  26.355  -0.115  0.00  0.00    -0.088 HD
ENDBRANCH   1   2
BRANCH   1   6
ATOM      6  C   UNL     1     -35.235  26.612   2.498  0.00  0.00    -0.007 C 
ATOM      7  C   UNL     1     -35.355  28.138   2.686  0.00  0.00    +0.010 C 
ATOM      8  C   UNL     1     -33.969  26.892   1.661  0.00  0.00    +0.010 C 
ATOM      9  C   UNL     1     -33.831  28.211   2.450  0.00  0.00    +0.099 C 
BRANCH   9  11
ATOM     10  O   UNL     1     -32.318  27.140   4.100  0.00  0.00    -0.250 OA
ATOM     11  C   UNL     1     -32.945  28.128   3.747  0.00  0.00    +0.313 C 
BRANCH  11  12
ATOM     12  O   UNL     1     -32.976  29.298   4.431  0.00  0.00    -0.480 OA
ATOM     13  H   UNL     1     -32.420  30.007   4.174  0.00  0.00    +0.295 HD
ENDBRANCH  11  12
ENDBRANCH   9  11
ENDBRANCH   1   6
BRANCH   1  15
ATOM     14  O   UNL     1     -38.535  27.087   1.519  0.00  0.00    -0.253 OA
ATOM     15  C   UNL     1     -37.734  26.486   2.226  0.00  0.00    +0.294 C 
BRANCH  15  16
ATOM     16  O   UNL     1     -37.996  26.204   3.529  0.00  0.00    -0.482 OA
ATOM     17  H   UNL     1     -38.749  26.576   3.946  0.00  0.00    +0.295 HD
ENDBRANCH  15  16
ENDBRANCH   1  15
BRANCH   1  18
ATOM     18  C   UNL     1     -36.340  24.438   1.925  0.00  0.00    -0.001 C 
BRANCH  18  20
ATOM     19  S   UNL     1     -35.668  20.777   2.513  0.00  0.00    -0.088 S 
ATOM     20  C   UNL     1     -34.984  23.867   2.358  0.00  0.00    +0.044 C 
ATOM     21  C   UNL     1     -35.091  23.225   3.731  0.00  0.00    -0.012 C 
ATOM     22  C   UNL     1     -34.422  22.954   1.282  0.00  0.00    -0.012 C 
ATOM     23  C   UNL     1     -35.410  21.867   3.900  0.00  0.00    +0.026 C 
ATOM     24  C   UNL     1     -34.688  21.575   1.255  0.00  0.00    +0.026 C 
ATOM     25  C   UNL     1     -34.907  24.028   4.871  0.00  0.00    -0.003 C 
ATOM     26  C   UNL     1     -33.646  23.516   0.251  0.00  0.00    -0.003 C 
ATOM     27  C   UNL     1     -35.537  21.338   5.192  0.00  0.00    +0.006 C 
ATOM     28  C   UNL     1     -34.179  20.786   0.213  0.00  0.00    +0.006 C 
ATOM     29  C   UNL     1     -35.030  23.491   6.152  0.00  0.00    -0.000 C 
ATOM     30  C   UNL     1     -33.139  22.723  -0.778  0.00  0.00    -0.000 C 
ATOM     31  C   UNL     1     -35.345  22.146   6.312  0.00  0.00    +0.000 C 
ATOM     32  C   UNL     1     -33.407  21.358  -0.796  0.00  0.00    +0.000 C 
ENDBRANCH  18  20
ENDBRANCH   1  18
TORSDOF 8
ENDMDL
MODEL 9
REMARK VINA RESULT:      -5.6      2.610      3.962
REMARK  Name = 5311262
REMARK  8 active torsions:
REMARK  status: ('A' for Active; 'I' for Inactive)
REMARK    1  A    between atoms: C_1  and  N_2
REMARK    2  A    between atoms: C_1  and  C_6
REMARK    3  A    between atoms: C_1  and  C_15
REMARK    4  A    between atoms: C_1  and  C_18
REMARK    5  A    between atoms: C_9  and  C_11
REMARK    6  A    between atoms: C_11  and  O_12
REMARK    7  A    between atoms: C_15  and  O_16
REMARK    8  A    between atoms: C_18  and  C_20
REMARK                            x       y       z     vdW  Elec       q    Type
REMARK                         _______ _______ _______ _____ _____    ______ ____
ROOT
ATOM      1  C   UNL     1     -35.712  21.598   1.684  0.00  0.00    +0.043 C 
ENDROOT
BRANCH   1   2
ATOM      2  N   UNL     1     -35.934  22.285   0.409  0.00  0.00    +0.390 N 
ATOM      3  H   UNL     1     -35.584  23.242   0.472  0.00  0.00    -0.088 HD
ATOM      4  H   UNL     1     -36.932  22.302   0.201  0.00  0.00    -0.088 HD
ATOM      5  H   UNL     1     -35.440  21.791  -0.334  0.00  0.00    -0.088 HD
ENDBRANCH   1   2
BRANCH   1   6
ATOM      6  C   UNL     1     -35.323  22.641   2.717  0.00  0.00    -0.007 C 
ATOM      7  C   UNL     1     -35.451  22.182   4.184  0.00  0.00    +0.010 C 
ATOM      8  C   UNL     1     -36.417  23.684   3.029  0.00  0.00    +0.010 C 
ATOM      9  C   UNL     1     -35.970  23.600   4.503  0.00  0.00    +0.099 C 
BRANCH   9  11
ATOM     10  O   UNL     1     -33.668  24.494   4.754  0.00  0.00    -0.250 OA
ATOM     11  C   UNL     1     -34.868  24.639   4.931  0.00  0.00    +0.313 C 
BRANCH  11  12
ATOM     12  O   UNL     1     -35.426  25.716   5.535  0.00  0.00    -0.480 OA
ATOM     13  H   UNL     1     -36.354  25.756   5.659  0.00  0.00    +0.295 HD
ENDBRANCH  11  12
ENDBRANCH   9  11
ENDBRANCH   1   6
BRANCH   1  15
ATOM     14  O   UNL     1     -38.133  21.357   1.845  0.00  0.00    -0.253 OA
ATOM     15  C   UNL     1     -37.019  20.897   2.070  0.00  0.00    +0.294 C 
BRANCH  15  16
ATOM     16  O   UNL     1     -36.848  19.693   2.674  0.00  0.00    -0.482 OA
ATOM     17  H   UNL     1     -37.593  19.204   2.963  0.00  0.00    +0.295 HD
ENDBRANCH  15  16
ENDBRANCH   1  15
BRANCH   1  18
ATOM     18  C   UNL     1     -34.600  20.532   1.575  0.00  0.00    -0.001 C 
BRANCH  18  20
ATOM     19  S   UNL     1     -32.126  17.817   0.736  0.00  0.00    -0.088 S 
ATOM     20  C   UNL     1     -34.277  20.068   0.149  0.00  0.00    +0.044 C 
ATOM     21  C   UNL     1     -32.825  20.360  -0.189  0.00  0.00    -0.012 C 
ATOM     22  C   UNL     1     -34.686  18.618  -0.044  0.00  0.00    -0.012 C 
ATOM     23  C   UNL     1     -31.798  19.432   0.054  0.00  0.00    +0.026 C 
ATOM     24  C   UNL     1     -33.808  17.551   0.211  0.00  0.00    +0.026 C 
ATOM     25  C   UNL     1     -32.492  21.617  -0.723  0.00  0.00    -0.003 C 
ATOM     26  C   UNL     1     -36.003  18.332  -0.449  0.00  0.00    -0.003 C 
ATOM     27  C   UNL     1     -30.469  19.770  -0.239  0.00  0.00    +0.006 C 
ATOM     28  C   UNL     1     -34.253  16.230   0.057  0.00  0.00    +0.006 C 
ATOM     29  C   UNL     1     -31.169  21.943  -1.017  0.00  0.00    -0.000 C 
ATOM     30  C   UNL     1     -36.434  17.015  -0.605  0.00  0.00    -0.000 C 
ATOM     31  C   UNL     1     -30.158  21.021  -0.774  0.00  0.00    +0.000 C 
ATOM     32  C   UNL     1     -35.559  15.965  -0.351  0.00  0.00    +0.000 C 
ENDBRANCH  18  20
ENDBRANCH   1  18
TORSDOF 8
ENDMDL
