MODEL 1
REMARK VINA RESULT:      -6.5      0.000      0.000
REMARK  Name = 60150771
REMARK  9 active torsions:
REMARK  status: ('A' for Active; 'I' for Inactive)
REMARK    1  A    between atoms: N_2  and  C_8
REMARK    2  A    between atoms: C_5  and  C_21
REMARK    3  A    between atoms: C_8  and  C_9
REMARK    4  A    between atoms: C_9  and  C_10
REMARK    5  A    between atoms: C_10  and  C_11
REMARK    6  A    between atoms: C_11  and  C_12
REMARK    7  A    between atoms: C_12  and  N_13
REMARK    8  A    between atoms: N_13  and  C_16
REMARK    9  A    between atoms: C_21  and  C_23
REMARK                            x       y       z     vdW  Elec       q    Type
REMARK                         _______ _______ _______ _____ _____    ______ ____
ROOT
ATOM      1  O   UNL     1     -33.382  25.459   4.740  0.00  0.00    -0.314 OA
ATOM      2  N   UNL     1     -33.450  28.523   3.058  0.00  0.00    -0.266 N 
ATOM      3  N   UNL     1     -34.867  27.068   4.268  0.00  0.00    -0.300 NA
ATOM      4  N   UNL     1     -32.687  26.428   4.006  0.00  0.00    +0.008 NA
ATOM      5  C   UNL     1     -34.659  25.913   4.848  0.00  0.00    +0.300 C 
ATOM      6  C   UNL     1     -33.629  27.344   3.764  0.00  0.00    +0.183 C 
ATOM      7  H   UNL     1     -32.555  28.716   2.697  0.00  0.00    +0.159 HD
ENDROOT
BRANCH   2   8
ATOM      8  C   UNL     1     -34.501  29.482   2.821  0.00  0.00    +0.098 C 
BRANCH   8   9
ATOM      9  C   UNL     1     -34.034  30.894   3.170  0.00  0.00    +0.022 C 
BRANCH   9  10
ATOM     10  C   UNL     1     -32.511  31.049   3.088  0.00  0.00    +0.004 C 
BRANCH  10  11
ATOM     11  C   UNL     1     -31.922  31.448   4.446  0.00  0.00    +0.026 C 
BRANCH  11  12
ATOM     12  C   UNL     1     -31.202  30.292   5.131  0.00  0.00    +0.129 C 
BRANCH  12  13
ATOM     13  N   UNL     1     -32.134  29.571   6.001  0.00  0.00    -0.240 NA
BRANCH  13  16
ATOM     14  N   UNL     1     -32.388  27.448   7.095  0.00  0.00    -0.370 N 
ATOM     15  N   UNL     1     -30.324  28.370   6.810  0.00  0.00    -0.370 N 
ATOM     16  C   UNL     1     -31.675  28.517   6.600  0.00  0.00    +0.189 C 
ATOM     17  H   UNL     1     -33.369  27.429   7.010  0.00  0.00    +0.159 HD
ATOM     18  H   UNL     1     -31.918  26.703   7.533  0.00  0.00    +0.159 HD
ATOM     19  H   UNL     1     -29.699  29.067   6.503  0.00  0.00    +0.159 HD
ATOM     20  H   UNL     1     -29.980  27.568   7.265  0.00  0.00    +0.159 HD
ENDBRANCH  13  16
ENDBRANCH  12  13
ENDBRANCH  11  12
ENDBRANCH  10  11
ENDBRANCH   9  10
ENDBRANCH   8   9
ENDBRANCH   2   8
BRANCH   5  21
ATOM     21  C   UNL     1     -35.598  25.058   5.586  0.00  0.00    +0.130 C 
BRANCH  21  23
ATOM     22  N   UNL     1     -35.408  21.368   5.423  0.00  0.00    -0.312 N 
ATOM     23  C   UNL     1     -35.524  23.577   5.233  0.00  0.00    +0.004 C 
ATOM     24  C   UNL     1     -35.504  23.019   3.924  0.00  0.00    +0.011 C 
ATOM     25  C   UNL     1     -35.430  21.631   4.072  0.00  0.00    +0.048 C 
ATOM     26  C   UNL     1     -35.464  22.537   6.133  0.00  0.00    +0.058 C 
ATOM     27  C   UNL     1     -35.541  23.562   2.624  0.00  0.00    +0.001 C 
ATOM     28  C   UNL     1     -35.392  20.757   2.979  0.00  0.00    +0.015 C 
ATOM     29  C   UNL     1     -35.503  22.699   1.523  0.00  0.00    +0.000 C 
ATOM     30  C   UNL     1     -35.430  21.319   1.700  0.00  0.00    +0.001 C 
ATOM     31  H   UNL     1     -35.358  20.469   5.821  0.00  0.00    +0.152 HD
ENDBRANCH  21  23
ENDBRANCH   5  21
TORSDOF 9
ENDMDL
MODEL 2
REMARK VINA RESULT:      -6.5      2.937      5.085
REMARK  Name = 60150771
REMARK  9 active torsions:
REMARK  status: ('A' for Active; 'I' for Inactive)
REMARK    1  A    between atoms: N_2  and  C_8
REMARK    2  A    between atoms: C_5  and  C_21
REMARK    3  A    between atoms: C_8  and  C_9
REMARK    4  A    between atoms: C_9  and  C_10
REMARK    5  A    between atoms: C_10  and  C_11
REMARK    6  A    between atoms: C_11  and  C_12
REMARK    7  A    between atoms: C_12  and  N_13
REMARK    8  A    between atoms: N_13  and  C_16
REMARK    9  A    between atoms: C_21  and  C_23
REMARK                            x       y       z     vdW  Elec       q    Type
REMARK                         _______ _______ _______ _____ _____    ______ ____
ROOT
ATOM      1  O   UNL     1     -35.196  20.520   3.786  0.00  0.00    -0.314 OA
ATOM      2  N   UNL     1     -35.878  23.481   5.516  0.00  0.00    -0.266 N 
ATOM      3  N   UNL     1     -35.826  22.617   3.316  0.00  0.00    -0.300 NA
ATOM      4  N   UNL     1     -35.279  21.187   5.015  0.00  0.00    +0.008 NA
ATOM      5  C   UNL     1     -35.533  21.434   2.838  0.00  0.00    +0.300 C 
ATOM      6  C   UNL     1     -35.655  22.418   4.655  0.00  0.00    +0.183 C 
ATOM      7  H   UNL     1     -35.753  23.330   6.481  0.00  0.00    +0.159 HD
ENDROOT
BRANCH   2   8
ATOM      8  C   UNL     1     -36.283  24.795   5.079  0.00  0.00    +0.098 C 
BRANCH   8   9
ATOM      9  C   UNL     1     -35.337  25.862   5.625  0.00  0.00    +0.022 C 
BRANCH   9  10
ATOM     10  C   UNL     1     -33.966  25.842   4.939  0.00  0.00    +0.004 C 
BRANCH  10  11
ATOM     11  C   UNL     1     -33.771  27.080   4.057  0.00  0.00    +0.026 C 
BRANCH  11  12
ATOM     12  C   UNL     1     -32.417  27.744   4.275  0.00  0.00    +0.129 C 
BRANCH  12  13
ATOM     13  N   UNL     1     -32.124  27.819   5.707  0.00  0.00    -0.240 NA
BRANCH  13  16
ATOM     14  N   UNL     1     -32.331  30.212   5.739  0.00  0.00    -0.370 N 
ATOM     15  N   UNL     1     -31.051  29.134   7.286  0.00  0.00    -0.370 N 
ATOM     16  C   UNL     1     -31.870  28.995   6.190  0.00  0.00    +0.189 C 
ATOM     17  H   UNL     1     -32.928  30.253   4.957  0.00  0.00    +0.159 HD
ATOM     18  H   UNL     1     -32.063  31.040   6.197  0.00  0.00    +0.159 HD
ATOM     19  H   UNL     1     -30.653  28.337   7.707  0.00  0.00    +0.159 HD
ATOM     20  H   UNL     1     -30.861  30.029   7.649  0.00  0.00    +0.159 HD
ENDBRANCH  13  16
ENDBRANCH  12  13
ENDBRANCH  11  12
ENDBRANCH  10  11
ENDBRANCH   9  10
ENDBRANCH   8   9
ENDBRANCH   2   8
BRANCH   5  21
ATOM     21  C   UNL     1     -35.520  20.968   1.445  0.00  0.00    +0.130 C 
BRANCH  21  23
ATOM     22  N   UNL     1     -32.370  21.621  -0.381  0.00  0.00    -0.312 N 
ATOM     23  C   UNL     1     -34.146  20.974   0.784  0.00  0.00    +0.004 C 
ATOM     24  C   UNL     1     -33.180  19.930   0.830  0.00  0.00    +0.011 C 
ATOM     25  C   UNL     1     -32.076  20.362   0.090  0.00  0.00    +0.048 C 
ATOM     26  C   UNL     1     -33.619  22.000   0.033  0.00  0.00    +0.058 C 
ATOM     27  C   UNL     1     -33.138  18.656   1.431  0.00  0.00    +0.001 C 
ATOM     28  C   UNL     1     -30.928  19.579  -0.077  0.00  0.00    +0.015 C 
ATOM     29  C   UNL     1     -31.997  17.863   1.269  0.00  0.00    +0.000 C 
ATOM     30  C   UNL     1     -30.910  18.318   0.527  0.00  0.00    +0.001 C 
ATOM     31  H   UNL     1     -31.770  22.170  -0.935  0.00  0.00    +0.152 HD
ENDBRANCH  21  23
ENDBRANCH   5  21
TORSDOF 9
ENDMDL
MODEL 3
REMARK VINA RESULT:      -6.4      3.607      6.007
REMARK  Name = 60150771
REMARK  9 active torsions:
REMARK  status: ('A' for Active; 'I' for Inactive)
REMARK    1  A    between atoms: N_2  and  C_8
REMARK    2  A    between atoms: C_5  and  C_21
REMARK    3  A    between atoms: C_8  and  C_9
REMARK    4  A    between atoms: C_9  and  C_10
REMARK    5  A    between atoms: C_10  and  C_11
REMARK    6  A    between atoms: C_11  and  C_12
REMARK    7  A    between atoms: C_12  and  N_13
REMARK    8  A    between atoms: N_13  and  C_16
REMARK    9  A    between atoms: C_21  and  C_23
REMARK                            x       y       z     vdW  Elec       q    Type
REMARK                         _______ _______ _______ _____ _____    ______ ____
ROOT
ATOM      1  O   UNL     1     -35.257  20.472   3.812  0.00  0.00    -0.314 OA
ATOM      2  N   UNL     1     -35.625  23.344   5.772  0.00  0.00    -0.266 N 
ATOM      3  N   UNL     1     -35.681  22.651   3.513  0.00  0.00    -0.300 NA
ATOM      4  N   UNL     1     -35.261  21.048   5.089  0.00  0.00    +0.008 NA
ATOM      5  C   UNL     1     -35.512  21.485   2.942  0.00  0.00    +0.300 C 
ATOM      6  C   UNL     1     -35.517  22.333   4.829  0.00  0.00    +0.183 C 
ATOM      7  H   UNL     1     -35.506  23.108   6.721  0.00  0.00    +0.159 HD
ENDROOT
BRANCH   2   8
ATOM      8  C   UNL     1     -35.903  24.721   5.443  0.00  0.00    +0.098 C 
BRANCH   8   9
ATOM      9  C   UNL     1     -34.650  25.579   5.604  0.00  0.00    +0.022 C 
BRANCH   9  10
ATOM     10  C   UNL     1     -33.928  25.825   4.274  0.00  0.00    +0.004 C 
BRANCH  10  11
ATOM     11  C   UNL     1     -34.584  26.969   3.493  0.00  0.00    +0.026 C 
BRANCH  11  12
ATOM     12  C   UNL     1     -35.315  26.481   2.247  0.00  0.00    +0.129 C 
BRANCH  12  13
ATOM     13  N   UNL     1     -36.714  26.908   2.292  0.00  0.00    -0.240 NA
BRANCH  13  16
ATOM     14  N   UNL     1     -38.719  26.136   3.367  0.00  0.00    -0.370 N 
ATOM     15  N   UNL     1     -37.455  24.720   2.105  0.00  0.00    -0.370 N 
ATOM     16  C   UNL     1     -37.592  26.000   2.587  0.00  0.00    +0.189 C 
ATOM     17  H   UNL     1     -38.934  27.006   3.775  0.00  0.00    +0.159 HD
ATOM     18  H   UNL     1     -39.311  25.363   3.516  0.00  0.00    +0.159 HD
ATOM     19  H   UNL     1     -36.689  24.489   1.532  0.00  0.00    +0.159 HD
ATOM     20  H   UNL     1     -38.125  24.034   2.332  0.00  0.00    +0.159 HD
ENDBRANCH  13  16
ENDBRANCH  12  13
ENDBRANCH  11  12
ENDBRANCH  10  11
ENDBRANCH   9  10
ENDBRANCH   8   9
ENDBRANCH   2   8
BRANCH   5  21
ATOM     21  C   UNL     1     -35.559  21.129   1.517  0.00  0.00    +0.130 C 
BRANCH  21  23
ATOM     22  N   UNL     1     -32.446  21.705  -0.393  0.00  0.00    -0.312 N 
ATOM     23  C   UNL     1     -34.203  21.102   0.822  0.00  0.00    +0.004 C 
ATOM     24  C   UNL     1     -33.257  20.040   0.852  0.00  0.00    +0.011 C 
ATOM     25  C   UNL     1     -32.164  20.443   0.081  0.00  0.00    +0.048 C 
ATOM     26  C   UNL     1     -33.676  22.111   0.049  0.00  0.00    +0.058 C 
ATOM     27  C   UNL     1     -33.225  18.770   1.462  0.00  0.00    +0.001 C 
ATOM     28  C   UNL     1     -31.036  19.636  -0.109  0.00  0.00    +0.015 C 
ATOM     29  C   UNL     1     -32.104  17.953   1.279  0.00  0.00    +0.000 C 
ATOM     30  C   UNL     1     -31.027  18.381   0.505  0.00  0.00    +0.001 C 
ATOM     31  H   UNL     1     -31.849  22.237  -0.968  0.00  0.00    +0.152 HD
ENDBRANCH  21  23
ENDBRANCH   5  21
TORSDOF 9
ENDMDL
MODEL 4
REMARK VINA RESULT:      -6.3      2.943      5.360
REMARK  Name = 60150771
REMARK  9 active torsions:
REMARK  status: ('A' for Active; 'I' for Inactive)
REMARK    1  A    between atoms: N_2  and  C_8
REMARK    2  A    between atoms: C_5  and  C_21
REMARK    3  A    between atoms: C_8  and  C_9
REMARK    4  A    between atoms: C_9  and  C_10
REMARK    5  A    between atoms: C_10  and  C_11
REMARK    6  A    between atoms: C_11  and  C_12
REMARK    7  A    between atoms: C_12  and  N_13
REMARK    8  A    between atoms: N_13  and  C_16
REMARK    9  A    between atoms: C_21  and  C_23
REMARK                            x       y       z     vdW  Elec       q    Type
REMARK                         _______ _______ _______ _____ _____    ______ ____
ROOT
ATOM      1  O   UNL     1     -35.109  20.601   4.287  0.00  0.00    -0.314 OA
ATOM      2  N   UNL     1     -36.019  23.767   5.458  0.00  0.00    -0.266 N 
ATOM      3  N   UNL     1     -35.954  22.503   3.461  0.00  0.00    -0.300 NA
ATOM      4  N   UNL     1     -35.216  21.482   5.370  0.00  0.00    +0.008 NA
ATOM      5  C   UNL     1     -35.563  21.281   3.202  0.00  0.00    +0.300 C 
ATOM      6  C   UNL     1     -35.722  22.582   4.803  0.00  0.00    +0.183 C 
ATOM      7  H   UNL     1     -35.849  23.817   6.427  0.00  0.00    +0.159 HD
ENDROOT
BRANCH   2   8
ATOM      8  C   UNL     1     -36.564  24.930   4.801  0.00  0.00    +0.098 C 
BRANCH   8   9
ATOM      9  C   UNL     1     -35.667  26.146   5.023  0.00  0.00    +0.022 C 
BRANCH   9  10
ATOM     10  C   UNL     1     -34.448  25.829   5.897  0.00  0.00    +0.004 C 
BRANCH  10  11
ATOM     11  C   UNL     1     -33.348  26.880   5.714  0.00  0.00    +0.026 C 
BRANCH  11  12
ATOM     12  C   UNL     1     -33.088  27.202   4.247  0.00  0.00    +0.129 C 
BRANCH  12  13
ATOM     13  N   UNL     1     -33.152  28.650   4.036  0.00  0.00    -0.240 NA
BRANCH  13  16
ATOM     14  N   UNL     1     -33.498  29.330   1.759  0.00  0.00    -0.370 N 
ATOM     15  N   UNL     1     -35.231  29.291   3.237  0.00  0.00    -0.370 N 
ATOM     16  C   UNL     1     -33.888  29.064   3.052  0.00  0.00    +0.189 C 
ATOM     17  H   UNL     1     -32.557  29.208   1.493  0.00  0.00    +0.159 HD
ATOM     18  H   UNL     1     -34.158  29.642   1.099  0.00  0.00    +0.159 HD
ATOM     19  H   UNL     1     -35.639  29.139   4.121  0.00  0.00    +0.159 HD
ATOM     20  H   UNL     1     -35.786  29.606   2.487  0.00  0.00    +0.159 HD
ENDBRANCH  13  16
ENDBRANCH  12  13
ENDBRANCH  11  12
ENDBRANCH  10  11
ENDBRANCH   9  10
ENDBRANCH   8   9
ENDBRANCH   2   8
BRANCH   5  21
ATOM     21  C   UNL     1     -35.550  20.558   1.923  0.00  0.00    +0.130 C 
BRANCH  21  23
ATOM     22  N   UNL     1     -32.753  21.634  -0.244  0.00  0.00    -0.312 N 
ATOM     23  C   UNL     1     -34.282  20.746   1.098  0.00  0.00    +0.004 C 
ATOM     24  C   UNL     1     -33.209  19.819   0.972  0.00  0.00    +0.011 C 
ATOM     25  C   UNL     1     -32.263  20.401   0.124  0.00  0.00    +0.048 C 
ATOM     26  C   UNL     1     -33.972  21.852   0.340  0.00  0.00    +0.058 C 
ATOM     27  C   UNL     1     -32.951  18.538   1.499  0.00  0.00    +0.001 C 
ATOM     28  C   UNL     1     -31.068  19.762  -0.224  0.00  0.00    +0.015 C 
ATOM     29  C   UNL     1     -31.760  17.888   1.158  0.00  0.00    +0.000 C 
ATOM     30  C   UNL     1     -30.834  18.492   0.310  0.00  0.00    +0.001 C 
ATOM     31  H   UNL     1     -32.293  22.268  -0.841  0.00  0.00    +0.152 HD
ENDBRANCH  21  23
ENDBRANCH   5  21
TORSDOF 9
ENDMDL
MODEL 5
REMARK VINA RESULT:      -6.2      4.413      7.195
REMARK  Name = 60150771
REMARK  9 active torsions:
REMARK  status: ('A' for Active; 'I' for Inactive)
REMARK    1  A    between atoms: N_2  and  C_8
REMARK    2  A    between atoms: C_5  and  C_21
REMARK    3  A    between atoms: C_8  and  C_9
REMARK    4  A    between atoms: C_9  and  C_10
REMARK    5  A    between atoms: C_10  and  C_11
REMARK    6  A    between atoms: C_11  and  C_12
REMARK    7  A    between atoms: C_12  and  N_13
REMARK    8  A    between atoms: N_13  and  C_16
REMARK    9  A    between atoms: C_21  and  C_23
REMARK                            x       y       z     vdW  Elec       q    Type
REMARK                         _______ _______ _______ _____ _____    ______ ____
ROOT
ATOM      1  O   UNL     1     -36.161  20.977   1.173  0.00  0.00    -0.314 OA
ATOM      2  N   UNL     1     -36.283  22.080   4.489  0.00  0.00    -0.266 N 
ATOM      3  N   UNL     1     -35.109  20.563   3.107  0.00  0.00    -0.300 NA
ATOM      4  N   UNL     1     -36.751  21.817   2.126  0.00  0.00    +0.008 NA
ATOM      5  C   UNL     1     -35.205  20.272   1.834  0.00  0.00    +0.300 C 
ATOM      6  C   UNL     1     -36.077  21.515   3.240  0.00  0.00    +0.183 C 
ATOM      7  H   UNL     1     -36.983  22.766   4.578  0.00  0.00    +0.159 HD
ENDROOT
BRANCH   2   8
ATOM      8  C   UNL     1     -35.529  21.719   5.665  0.00  0.00    +0.098 C 
BRANCH   8   9
ATOM      9  C   UNL     1     -34.775  22.927   6.216  0.00  0.00    +0.022 C 
BRANCH   9  10
ATOM     10  C   UNL     1     -34.468  23.973   5.139  0.00  0.00    +0.004 C 
BRANCH  10  11
ATOM     11  C   UNL     1     -35.053  25.340   5.512  0.00  0.00    +0.026 C 
BRANCH  11  12
ATOM     12  C   UNL     1     -36.090  25.826   4.506  0.00  0.00    +0.129 C 
BRANCH  12  13
ATOM     13  N   UNL     1     -37.255  24.939   4.526  0.00  0.00    -0.240 NA
BRANCH  13  16
ATOM     14  N   UNL     1     -38.891  24.052   3.007  0.00  0.00    -0.370 N 
ATOM     15  N   UNL     1     -38.213  26.222   2.849  0.00  0.00    -0.370 N 
ATOM     16  C   UNL     1     -38.077  25.033   3.527  0.00  0.00    +0.189 C 
ATOM     17  H   UNL     1     -38.890  23.150   3.402  0.00  0.00    +0.159 HD
ATOM     18  H   UNL     1     -39.475  24.252   2.241  0.00  0.00    +0.159 HD
ATOM     19  H   UNL     1     -37.684  27.007   3.122  0.00  0.00    +0.159 HD
ATOM     20  H   UNL     1     -38.838  26.289   2.092  0.00  0.00    +0.159 HD
ENDBRANCH  13  16
ENDBRANCH  12  13
ENDBRANCH  11  12
ENDBRANCH  10  11
ENDBRANCH   9  10
ENDBRANCH   8   9
ENDBRANCH   2   8
BRANCH   5  21
ATOM     21  C   UNL     1     -34.435  19.306   1.038  0.00  0.00    +0.130 C 
BRANCH  21  23
ATOM     22  N   UNL     1     -31.675  21.182  -0.555  0.00  0.00    -0.312 N 
ATOM     23  C   UNL     1     -33.136  19.852   0.457  0.00  0.00    +0.004 C 
ATOM     24  C   UNL     1     -31.865  19.212   0.477  0.00  0.00    +0.011 C 
ATOM     25  C   UNL     1     -30.966  20.068  -0.165  0.00  0.00    +0.048 C 
ATOM     26  C   UNL     1     -32.987  21.060  -0.184  0.00  0.00    +0.058 C 
ATOM     27  C   UNL     1     -31.391  17.985   0.982  0.00  0.00    +0.001 C 
ATOM     28  C   UNL     1     -29.612  19.754  -0.328  0.00  0.00    +0.015 C 
ATOM     29  C   UNL     1     -30.039  17.659   0.824  0.00  0.00    +0.000 C 
ATOM     30  C   UNL     1     -29.165  18.531   0.180  0.00  0.00    +0.001 C 
ATOM     31  H   UNL     1     -31.293  21.953  -1.033  0.00  0.00    +0.152 HD
ENDBRANCH  21  23
ENDBRANCH   5  21
TORSDOF 9
ENDMDL
MODEL 6
REMARK VINA RESULT:      -6.2      1.341      2.791
REMARK  Name = 60150771
REMARK  9 active torsions:
REMARK  status: ('A' for Active; 'I' for Inactive)
REMARK    1  A    between atoms: N_2  and  C_8
REMARK    2  A    between atoms: C_5  and  C_21
REMARK    3  A    between atoms: C_8  and  C_9
REMARK    4  A    between atoms: C_9  and  C_10
REMARK    5  A    between atoms: C_10  and  C_11
REMARK    6  A    between atoms: C_11  and  C_12
REMARK    7  A    between atoms: C_12  and  N_13
REMARK    8  A    between atoms: N_13  and  C_16
REMARK    9  A    between atoms: C_21  and  C_23
REMARK                            x       y       z     vdW  Elec       q    Type
REMARK                         _______ _______ _______ _____ _____    ______ ____
ROOT
ATOM      1  O   UNL     1     -35.145  26.335   3.581  0.00  0.00    -0.314 OA
ATOM      2  N   UNL     1     -32.505  28.076   5.073  0.00  0.00    -0.266 N 
ATOM      3  N   UNL     1     -34.207  26.524   5.606  0.00  0.00    -0.300 NA
ATOM      4  N   UNL     1     -34.088  27.244   3.438  0.00  0.00    +0.008 NA
ATOM      5  C   UNL     1     -35.145  25.961   4.887  0.00  0.00    +0.300 C 
ATOM      6  C   UNL     1     -33.584  27.303   4.674  0.00  0.00    +0.183 C 
ATOM      7  H   UNL     1     -32.061  28.636   4.396  0.00  0.00    +0.159 HD
ENDROOT
BRANCH   2   8
ATOM      8  C   UNL     1     -31.997  28.108   6.423  0.00  0.00    +0.098 C 
BRANCH   8   9
ATOM      9  C   UNL     1     -31.294  29.433   6.706  0.00  0.00    +0.022 C 
BRANCH   9  10
ATOM     10  C   UNL     1     -32.017  30.631   6.079  0.00  0.00    +0.004 C 
BRANCH  10  11
ATOM     11  C   UNL     1     -31.125  31.341   5.055  0.00  0.00    +0.026 C 
BRANCH  11  12
ATOM     12  C   UNL     1     -31.846  31.608   3.738  0.00  0.00    +0.129 C 
BRANCH  12  13
ATOM     13  N   UNL     1     -32.877  30.591   3.522  0.00  0.00    -0.240 NA
BRANCH  13  16
ATOM     14  N   UNL     1     -34.306  32.103   2.320  0.00  0.00    -0.370 N 
ATOM     15  N   UNL     1     -35.182  30.346   3.478  0.00  0.00    -0.370 N 
ATOM     16  C   UNL     1     -34.035  31.012   3.115  0.00  0.00    +0.189 C 
ATOM     17  H   UNL     1     -33.570  32.668   1.991  0.00  0.00    +0.159 HD
ATOM     18  H   UNL     1     -35.236  32.318   2.080  0.00  0.00    +0.159 HD
ATOM     19  H   UNL     1     -35.127  29.545   4.048  0.00  0.00    +0.159 HD
ATOM     20  H   UNL     1     -36.058  30.669   3.166  0.00  0.00    +0.159 HD
ENDBRANCH  13  16
ENDBRANCH  12  13
ENDBRANCH  11  12
ENDBRANCH  10  11
ENDBRANCH   9  10
ENDBRANCH   8   9
ENDBRANCH   2   8
BRANCH   5  21
ATOM     21  C   UNL     1     -36.178  24.998   5.293  0.00  0.00    +0.130 C 
BRANCH  21  23
ATOM     22  N   UNL     1     -35.253  21.417   5.300  0.00  0.00    -0.312 N 
ATOM     23  C   UNL     1     -35.835  23.540   5.010  0.00  0.00    +0.004 C 
ATOM     24  C   UNL     1     -35.822  22.905   3.736  0.00  0.00    +0.011 C 
ATOM     25  C   UNL     1     -35.453  21.574   3.946  0.00  0.00    +0.048 C 
ATOM     26  C   UNL     1     -35.482  22.600   5.951  0.00  0.00    +0.058 C 
ATOM     27  C   UNL     1     -36.089  23.335   2.421  0.00  0.00    +0.001 C 
ATOM     28  C   UNL     1     -35.338  20.649   2.902  0.00  0.00    +0.015 C 
ATOM     29  C   UNL     1     -35.976  22.421   1.368  0.00  0.00    +0.000 C 
ATOM     30  C   UNL     1     -35.607  21.099   1.606  0.00  0.00    +0.001 C 
ATOM     31  H   UNL     1     -34.985  20.577   5.736  0.00  0.00    +0.152 HD
ENDBRANCH  21  23
ENDBRANCH   5  21
TORSDOF 9
ENDMDL
MODEL 7
REMARK VINA RESULT:      -6.2      4.761      7.204
REMARK  Name = 60150771
REMARK  9 active torsions:
REMARK  status: ('A' for Active; 'I' for Inactive)
REMARK    1  A    between atoms: N_2  and  C_8
REMARK    2  A    between atoms: C_5  and  C_21
REMARK    3  A    between atoms: C_8  and  C_9
REMARK    4  A    between atoms: C_9  and  C_10
REMARK    5  A    between atoms: C_10  and  C_11
REMARK    6  A    between atoms: C_11  and  C_12
REMARK    7  A    between atoms: C_12  and  N_13
REMARK    8  A    between atoms: N_13  and  C_16
REMARK    9  A    between atoms: C_21  and  C_23
REMARK                            x       y       z     vdW  Elec       q    Type
REMARK                         _______ _______ _______ _____ _____    ______ ____
ROOT
ATOM      1  O   UNL     1     -36.177  21.629   0.648  0.00  0.00    -0.314 OA
ATOM      2  N   UNL     1     -36.352  21.987   4.121  0.00  0.00    -0.266 N 
ATOM      3  N   UNL     1     -34.841  21.340   2.422  0.00  0.00    -0.300 NA
ATOM      4  N   UNL     1     -36.938  21.980   1.770  0.00  0.00    +0.008 NA
ATOM      5  C   UNL     1     -34.956  21.264   1.121  0.00  0.00    +0.300 C 
ATOM      6  C   UNL     1     -36.082  21.783   2.777  0.00  0.00    +0.183 C 
ATOM      7  H   UNL     1     -37.249  22.306   4.371  0.00  0.00    +0.159 HD
ENDROOT
BRANCH   2   8
ATOM      8  C   UNL     1     -35.393  21.759   5.175  0.00  0.00    +0.098 C 
BRANCH   8   9
ATOM      9  C   UNL     1     -35.290  22.979   6.087  0.00  0.00    +0.022 C 
BRANCH   9  10
ATOM     10  C   UNL     1     -34.857  24.243   5.335  0.00  0.00    +0.004 C 
BRANCH  10  11
ATOM     11  C   UNL     1     -35.896  25.359   5.486  0.00  0.00    +0.026 C 
BRANCH  11  12
ATOM     12  C   UNL     1     -36.679  25.605   4.202  0.00  0.00    +0.129 C 
BRANCH  12  13
ATOM     13  N   UNL     1     -37.784  24.649   4.103  0.00  0.00    -0.240 NA
BRANCH  13  16
ATOM     14  N   UNL     1     -39.934  25.536   3.505  0.00  0.00    -0.370 N 
ATOM     15  N   UNL     1     -38.575  24.616   1.924  0.00  0.00    -0.370 N 
ATOM     16  C   UNL     1     -38.724  24.929   3.255  0.00  0.00    +0.189 C 
ATOM     17  H   UNL     1     -40.167  25.811   4.421  0.00  0.00    +0.159 HD
ATOM     18  H   UNL     1     -40.567  25.695   2.768  0.00  0.00    +0.159 HD
ATOM     19  H   UNL     1     -37.751  24.177   1.611  0.00  0.00    +0.159 HD
ATOM     20  H   UNL     1     -39.291  24.831   1.284  0.00  0.00    +0.159 HD
ENDBRANCH  13  16
ENDBRANCH  12  13
ENDBRANCH  11  12
ENDBRANCH  10  11
ENDBRANCH   9  10
ENDBRANCH   8   9
ENDBRANCH   2   8
BRANCH   5  21
ATOM     21  C   UNL     1     -33.964  20.847   0.120  0.00  0.00    +0.130 C 
BRANCH  21  23
ATOM     22  N   UNL     1     -32.303  17.862   1.538  0.00  0.00    -0.312 N 
ATOM     23  C   UNL     1     -33.045  19.715   0.567  0.00  0.00    +0.004 C 
ATOM     24  C   UNL     1     -31.669  19.562   0.238  0.00  0.00    +0.011 C 
ATOM     25  C   UNL     1     -31.228  18.391   0.860  0.00  0.00    +0.048 C 
ATOM     26  C   UNL     1     -33.406  18.655   1.367  0.00  0.00    +0.058 C 
ATOM     27  C   UNL     1     -30.755  20.307  -0.532  0.00  0.00    +0.001 C 
ATOM     28  C   UNL     1     -29.912  17.928   0.749  0.00  0.00    +0.015 C 
ATOM     29  C   UNL     1     -29.435  19.856  -0.650  0.00  0.00    +0.000 C 
ATOM     30  C   UNL     1     -29.022  18.685  -0.019  0.00  0.00    +0.001 C 
ATOM     31  H   UNL     1     -32.282  17.034   2.069  0.00  0.00    +0.152 HD
ENDBRANCH  21  23
ENDBRANCH   5  21
TORSDOF 9
ENDMDL
MODEL 8
REMARK VINA RESULT:      -6.1      1.104      1.375
REMARK  Name = 60150771
REMARK  9 active torsions:
REMARK  status: ('A' for Active; 'I' for Inactive)
REMARK    1  A    between atoms: N_2  and  C_8
REMARK    2  A    between atoms: C_5  and  C_21
REMARK    3  A    between atoms: C_8  and  C_9
REMARK    4  A    between atoms: C_9  and  C_10
REMARK    5  A    between atoms: C_10  and  C_11
REMARK    6  A    between atoms: C_11  and  C_12
REMARK    7  A    between atoms: C_12  and  N_13
REMARK    8  A    between atoms: N_13  and  C_16
REMARK    9  A    between atoms: C_21  and  C_23
REMARK                            x       y       z     vdW  Elec       q    Type
REMARK                         _______ _______ _______ _____ _____    ______ ____
ROOT
ATOM      1  O   UNL     1     -33.759  26.084   6.438  0.00  0.00    -0.314 OA
ATOM      2  N   UNL     1     -32.293  28.213   4.084  0.00  0.00    -0.266 N 
ATOM      3  N   UNL     1     -34.225  26.887   4.400  0.00  0.00    -0.300 NA
ATOM      4  N   UNL     1     -32.685  26.913   6.091  0.00  0.00    +0.008 NA
ATOM      5  C   UNL     1     -34.620  26.124   5.387  0.00  0.00    +0.300 C 
ATOM      6  C   UNL     1     -33.033  27.349   4.876  0.00  0.00    +0.183 C 
ATOM      7  H   UNL     1     -31.433  28.542   4.434  0.00  0.00    +0.159 HD
ENDROOT
BRANCH   2   8
ATOM      8  C   UNL     1     -32.710  28.655   2.776  0.00  0.00    +0.098 C 
BRANCH   8   9
ATOM      9  C   UNL     1     -32.755  30.180   2.710  0.00  0.00    +0.022 C 
BRANCH   9  10
ATOM     10  C   UNL     1     -31.389  30.823   2.975  0.00  0.00    +0.004 C 
BRANCH  10  11
ATOM     11  C   UNL     1     -31.341  31.463   4.367  0.00  0.00    +0.026 C 
BRANCH  11  12
ATOM     12  C   UNL     1     -30.065  31.114   5.125  0.00  0.00    +0.129 C 
BRANCH  12  13
ATOM     13  N   UNL     1     -30.096  29.708   5.530  0.00  0.00    -0.240 NA
BRANCH  13  16
ATOM     14  N   UNL     1     -29.206  29.173   7.696  0.00  0.00    -0.370 N 
ATOM     15  N   UNL     1     -31.444  29.490   7.403  0.00  0.00    -0.370 N 
ATOM     16  C   UNL     1     -30.208  29.468   6.799  0.00  0.00    +0.189 C 
ATOM     17  H   UNL     1     -28.270  29.125   7.391  0.00  0.00    +0.159 HD
ATOM     18  H   UNL     1     -29.423  29.010   8.642  0.00  0.00    +0.159 HD
ATOM     19  H   UNL     1     -32.248  29.689   6.871  0.00  0.00    +0.159 HD
ATOM     20  H   UNL     1     -31.524  29.307   8.367  0.00  0.00    +0.159 HD
ENDBRANCH  13  16
ENDBRANCH  12  13
ENDBRANCH  11  12
ENDBRANCH  10  11
ENDBRANCH   9  10
ENDBRANCH   8   9
ENDBRANCH   2   8
BRANCH   5  21
ATOM     21  C   UNL     1     -35.845  25.321   5.512  0.00  0.00    +0.130 C 
BRANCH  21  23
ATOM     22  N   UNL     1     -35.402  21.650   5.460  0.00  0.00    -0.312 N 
ATOM     23  C   UNL     1     -35.668  23.839   5.203  0.00  0.00    +0.004 C 
ATOM     24  C   UNL     1     -35.607  23.244   3.912  0.00  0.00    +0.011 C 
ATOM     25  C   UNL     1     -35.439  21.870   4.101  0.00  0.00    +0.048 C 
ATOM     26  C   UNL     1     -35.539  22.834   6.134  0.00  0.00    +0.058 C 
ATOM     27  C   UNL     1     -35.679  23.744   2.596  0.00  0.00    +0.001 C 
ATOM     28  C   UNL     1     -35.339  20.969   3.036  0.00  0.00    +0.015 C 
ATOM     29  C   UNL     1     -35.579  22.853   1.522  0.00  0.00    +0.000 C 
ATOM     30  C   UNL     1     -35.412  21.487   1.740  0.00  0.00    +0.001 C 
ATOM     31  H   UNL     1     -35.292  20.769   5.885  0.00  0.00    +0.152 HD
ENDBRANCH  21  23
ENDBRANCH   5  21
TORSDOF 9
ENDMDL
MODEL 9
REMARK VINA RESULT:      -5.9      1.583      3.076
REMARK  Name = 60150771
REMARK  9 active torsions:
REMARK  status: ('A' for Active; 'I' for Inactive)
REMARK    1  A    between atoms: N_2  and  C_8
REMARK    2  A    between atoms: C_5  and  C_21
REMARK    3  A    between atoms: C_8  and  C_9
REMARK    4  A    between atoms: C_9  and  C_10
REMARK    5  A    between atoms: C_10  and  C_11
REMARK    6  A    between atoms: C_11  and  C_12
REMARK    7  A    between atoms: C_12  and  N_13
REMARK    8  A    between atoms: N_13  and  C_16
REMARK    9  A    between atoms: C_21  and  C_23
REMARK                            x       y       z     vdW  Elec       q    Type
REMARK                         _______ _______ _______ _____ _____    ______ ____
ROOT
ATOM      1  O   UNL     1     -33.544  25.532   3.902  0.00  0.00    -0.314 OA
ATOM      2  N   UNL     1     -31.755  28.342   4.964  0.00  0.00    -0.266 N 
ATOM      3  N   UNL     1     -33.394  26.819   5.729  0.00  0.00    -0.300 NA
ATOM      4  N   UNL     1     -32.588  26.513   3.610  0.00  0.00    +0.008 NA
ATOM      5  C   UNL     1     -33.969  25.786   5.168  0.00  0.00    +0.300 C 
ATOM      6  C   UNL     1     -32.555  27.233   4.735  0.00  0.00    +0.183 C 
ATOM      7  H   UNL     1     -31.152  28.636   4.243  0.00  0.00    +0.159 HD
ENDROOT
BRANCH   2   8
ATOM      8  C   UNL     1     -31.756  29.090   6.198  0.00  0.00    +0.098 C 
BRANCH   8   9
ATOM      9  C   UNL     1     -32.066  30.562   5.938  0.00  0.00    +0.022 C 
BRANCH   9  10
ATOM     10  C   UNL     1     -31.130  31.188   4.898  0.00  0.00    +0.004 C 
BRANCH  10  11
ATOM     11  C   UNL     1     -31.889  31.547   3.615  0.00  0.00    +0.026 C 
BRANCH  11  12
ATOM     12  C   UNL     1     -33.366  31.179   3.690  0.00  0.00    +0.129 C 
BRANCH  12  13
ATOM     13  N   UNL     1     -33.630  30.008   2.851  0.00  0.00    -0.240 NA
BRANCH  13  16
ATOM     14  N   UNL     1     -35.953  30.276   2.302  0.00  0.00    -0.370 N 
ATOM     15  N   UNL     1     -35.197  28.347   3.252  0.00  0.00    -0.370 N 
ATOM     16  C   UNL     1     -34.859  29.598   2.792  0.00  0.00    +0.189 C 
ATOM     17  H   UNL     1     -35.848  31.186   1.942  0.00  0.00    +0.159 HD
ATOM     18  H   UNL     1     -36.841  29.851   2.313  0.00  0.00    +0.159 HD
ATOM     19  H   UNL     1     -34.504  27.757   3.629  0.00  0.00    +0.159 HD
ATOM     20  H   UNL     1     -36.131  28.040   3.204  0.00  0.00    +0.159 HD
ENDBRANCH  13  16
ENDBRANCH  12  13
ENDBRANCH  11  12
ENDBRANCH  10  11
ENDBRANCH   9  10
ENDBRANCH   8   9
ENDBRANCH   2   8
BRANCH   5  21
ATOM     21  C   UNL     1     -34.991  24.880   5.710  0.00  0.00    +0.130 C 
BRANCH  21  23
ATOM     22  N   UNL     1     -37.879  24.455   3.441  0.00  0.00    -0.312 N 
ATOM     23  C   UNL     1     -36.058  24.452   4.710  0.00  0.00    +0.004 C 
ATOM     24  C   UNL     1     -36.084  23.239   3.966  0.00  0.00    +0.011 C 
ATOM     25  C   UNL     1     -37.238  23.266   3.178  0.00  0.00    +0.048 C 
ATOM     26  C   UNL     1     -37.175  25.178   4.365  0.00  0.00    +0.058 C 
ATOM     27  C   UNL     1     -35.235  22.117   3.887  0.00  0.00    +0.001 C 
ATOM     28  C   UNL     1     -37.584  22.223   2.312  0.00  0.00    +0.015 C 
ATOM     29  C   UNL     1     -35.570  21.066   3.026  0.00  0.00    +0.000 C 
ATOM     30  C   UNL     1     -36.727  21.120   2.251  0.00  0.00    +0.001 C 
ATOM     31  H   UNL     1     -38.724  24.743   3.024  0.00  0.00    +0.152 HD
ENDBRANCH  21  23
ENDBRANCH   5  21
TORSDOF 9
ENDMDL
