MODEL 1
REMARK VINA RESULT:      -6.3      0.000      0.000
REMARK  Name = 53248454
REMARK  10 active torsions:
REMARK  status: ('A' for Active; 'I' for Inactive)
REMARK    1  A    between atoms: O_1  and  C_3
REMARK    2  A    between atoms: O_1  and  C_19
REMARK    3  A    between atoms: C_5  and  O_11
REMARK    4  A    between atoms: C_6  and  C_13
REMARK    5  A    between atoms: C_14  and  C_16
REMARK    6  A    between atoms: C_20  and  O_24
REMARK    7  A    between atoms: C_21  and  O_26
REMARK    8  A    between atoms: C_22  and  O_28
REMARK    9  A    between atoms: C_23  and  C_30
REMARK   10  A    between atoms: C_30  and  O_31
REMARK                            x       y       z     vdW  Elec       q    Type
REMARK                         _______ _______ _______ _____ _____    ______ ____
ROOT
ATOM      1  O   UNL     1     -35.262  19.948   0.252  0.00  0.00    -0.328 OA
ENDROOT
BRANCH   1   3
ATOM      2  C   UNL     1     -35.782  23.418   1.704  0.00  0.00    +0.021 C 
ATOM      3  C   UNL     1     -35.077  21.034   1.155  0.00  0.00    +0.149 C 
ATOM      4  C   UNL     1     -35.988  22.191   0.773  0.00  0.00    +0.037 C 
ATOM      5  C   UNL     1     -35.391  20.572   2.576  0.00  0.00    +0.156 C 
ATOM      6  C   UNL     1     -35.641  23.002   3.191  0.00  0.00    -0.028 C 
ATOM      7  C   UNL     1     -35.473  21.711   3.575  0.00  0.00    -0.019 C 
ATOM      8  C   UNL     1     -34.506  24.169   1.255  0.00  0.00    +0.004 C 
ATOM      9  C   UNL     1     -37.002  24.343   1.473  0.00  0.00    +0.004 C 
ATOM     10  C   UNL     1     -35.340  21.226   5.003  0.00  0.00    +0.029 C 
BRANCH   5  11
ATOM     11  O   UNL     1     -36.646  19.888   2.610  0.00  0.00    -0.378 OA
ATOM     12  H   UNL     1     -36.685  19.322   3.396  0.00  0.00    +0.211 HD
ENDBRANCH   5  11
BRANCH   6  13
ATOM     13  C   UNL     1     -35.705  24.094   4.148  0.00  0.00    -0.002 C 
ATOM     14  C   UNL     1     -34.622  24.745   4.557  0.00  0.00    +0.037 C 
BRANCH  14  16
ATOM     15  O   UNL     1     -35.847  26.286   5.899  0.00  0.00    -0.291 OA
ATOM     16  C   UNL     1     -34.753  25.857   5.540  0.00  0.00    +0.174 C 
ATOM     17  C   UNL     1     -33.474  26.453   6.067  0.00  0.00    +0.077 C 
ENDBRANCH  14  16
ENDBRANCH   6  13
ENDBRANCH   1   3
BRANCH   1  19
ATOM     18  O   UNL     1     -33.111  19.058   0.402  0.00  0.00    -0.326 OA
ATOM     19  C   UNL     1     -34.494  18.810   0.641  0.00  0.00    +0.266 C 
ATOM     20  C   UNL     1     -34.974  17.614  -0.182  0.00  0.00    +0.196 C 
ATOM     21  C   UNL     1     -34.102  16.384   0.064  0.00  0.00    +0.172 C 
ATOM     22  C   UNL     1     -32.615  16.728  -0.045  0.00  0.00    +0.169 C 
ATOM     23  C   UNL     1     -32.282  17.963   0.795  0.00  0.00    +0.176 C 
BRANCH  20  24
ATOM     24  O   UNL     1     -36.320  17.324   0.194  0.00  0.00    -0.378 OA
ATOM     25  H   UNL     1     -36.336  16.985   1.103  0.00  0.00    +0.211 HD
ENDBRANCH  20  24
BRANCH  21  26
ATOM     26  O   UNL     1     -34.397  15.387  -0.916  0.00  0.00    -0.379 OA
ATOM     27  H   UNL     1     -34.617  14.553  -0.472  0.00  0.00    +0.211 HD
ENDBRANCH  21  26
BRANCH  22  28
ATOM     28  O   UNL     1     -31.841  15.623   0.414  0.00  0.00    -0.379 OA
ATOM     29  H   UNL     1     -31.609  15.056  -0.338  0.00  0.00    +0.211 HD
ENDBRANCH  22  28
BRANCH  23  30
ATOM     30  C   UNL     1     -30.830  18.395   0.611  0.00  0.00    +0.169 C 
BRANCH  30  31
ATOM     31  O   UNL     1     -30.007  17.562   1.407  0.00  0.00    -0.379 OA
ATOM     32  H   UNL     1     -30.515  17.239   2.168  0.00  0.00    +0.211 HD
ENDBRANCH  30  31
ENDBRANCH  23  30
ENDBRANCH   1  19
TORSDOF 10
ENDMDL
MODEL 2
REMARK VINA RESULT:      -6.0      2.474      8.341
REMARK  Name = 53248454
REMARK  10 active torsions:
REMARK  status: ('A' for Active; 'I' for Inactive)
REMARK    1  A    between atoms: O_1  and  C_3
REMARK    2  A    between atoms: O_1  and  C_19
REMARK    3  A    between atoms: C_5  and  O_11
REMARK    4  A    between atoms: C_6  and  C_13
REMARK    5  A    between atoms: C_14  and  C_16
REMARK    6  A    between atoms: C_20  and  O_24
REMARK    7  A    between atoms: C_21  and  O_26
REMARK    8  A    between atoms: C_22  and  O_28
REMARK    9  A    between atoms: C_23  and  C_30
REMARK   10  A    between atoms: C_30  and  O_31
REMARK                            x       y       z     vdW  Elec       q    Type
REMARK                         _______ _______ _______ _____ _____    ______ ____
ROOT
ATOM      1  O   UNL     1     -35.633  21.885   2.841  0.00  0.00    -0.328 OA
ENDROOT
BRANCH   1   3
ATOM      2  C   UNL     1     -33.662  19.314   0.862  0.00  0.00    +0.021 C 
ATOM      3  C   UNL     1     -35.295  21.064   1.728  0.00  0.00    +0.149 C 
ATOM      4  C   UNL     1     -34.096  20.191   2.068  0.00  0.00    +0.037 C 
ATOM      5  C   UNL     1     -36.490  20.186   1.363  0.00  0.00    +0.156 C 
ATOM      6  C   UNL     1     -34.878  18.703   0.120  0.00  0.00    -0.028 C 
ATOM      7  C   UNL     1     -36.155  19.099   0.360  0.00  0.00    -0.019 C 
ATOM      8  C   UNL     1     -32.847  20.191  -0.119  0.00  0.00    +0.004 C 
ATOM      9  C   UNL     1     -32.726  18.223   1.438  0.00  0.00    +0.004 C 
ATOM     10  C   UNL     1     -37.391  18.544  -0.314  0.00  0.00    +0.029 C 
BRANCH   5  11
ATOM     11  O   UNL     1     -37.007  19.542   2.529  0.00  0.00    -0.378 OA
ATOM     12  H   UNL     1     -37.461  18.724   2.273  0.00  0.00    +0.211 HD
ENDBRANCH   5  11
BRANCH   6  13
ATOM     13  C   UNL     1     -34.556  17.670  -0.852  0.00  0.00    -0.002 C 
ATOM     14  C   UNL     1     -34.667  16.376  -0.576  0.00  0.00    +0.037 C 
BRANCH  14  16
ATOM     15  O   UNL     1     -33.478  15.580  -2.481  0.00  0.00    -0.291 OA
ATOM     16  C   UNL     1     -34.322  15.365  -1.614  0.00  0.00    +0.174 C 
ATOM     17  C   UNL     1     -35.074  14.060  -1.570  0.00  0.00    +0.077 C 
ENDBRANCH  14  16
ENDBRANCH   6  13
ENDBRANCH   1   3
BRANCH   1  19
ATOM     18  O   UNL     1     -35.425  24.207   2.742  0.00  0.00    -0.326 OA
ATOM     19  C   UNL     1     -36.261  23.096   2.425  0.00  0.00    +0.266 C 
ATOM     20  C   UNL     1     -37.600  23.209   3.155  0.00  0.00    +0.196 C 
ATOM     21  C   UNL     1     -38.272  24.554   2.880  0.00  0.00    +0.172 C 
ATOM     22  C   UNL     1     -37.294  25.712   3.078  0.00  0.00    +0.169 C 
ATOM     23  C   UNL     1     -35.986  25.453   2.326  0.00  0.00    +0.176 C 
BRANCH  20  24
ATOM     24  O   UNL     1     -38.447  22.154   2.701  0.00  0.00    -0.378 OA
ATOM     25  H   UNL     1     -39.249  22.126   3.246  0.00  0.00    +0.211 HD
ENDBRANCH  20  24
BRANCH  21  26
ATOM     26  O   UNL     1     -39.360  24.736   3.787  0.00  0.00    -0.379 OA
ATOM     27  H   UNL     1     -40.141  24.267   3.453  0.00  0.00    +0.211 HD
ENDBRANCH  21  26
BRANCH  22  28
ATOM     28  O   UNL     1     -37.884  26.915   2.593  0.00  0.00    -0.379 OA
ATOM     29  H   UNL     1     -38.839  26.898   2.765  0.00  0.00    +0.211 HD
ENDBRANCH  22  28
BRANCH  23  30
ATOM     30  C   UNL     1     -34.951  26.539   2.603  0.00  0.00    +0.169 C 
BRANCH  30  31
ATOM     31  O   UNL     1     -35.368  27.282   3.734  0.00  0.00    -0.379 OA
ATOM     32  H   UNL     1     -36.007  26.761   4.245  0.00  0.00    +0.211 HD
ENDBRANCH  30  31
ENDBRANCH  23  30
ENDBRANCH   1  19
TORSDOF 10
ENDMDL
MODEL 3
REMARK VINA RESULT:      -6.0      3.882      8.313
REMARK  Name = 53248454
REMARK  10 active torsions:
REMARK  status: ('A' for Active; 'I' for Inactive)
REMARK    1  A    between atoms: O_1  and  C_3
REMARK    2  A    between atoms: O_1  and  C_19
REMARK    3  A    between atoms: C_5  and  O_11
REMARK    4  A    between atoms: C_6  and  C_13
REMARK    5  A    between atoms: C_14  and  C_16
REMARK    6  A    between atoms: C_20  and  O_24
REMARK    7  A    between atoms: C_21  and  O_26
REMARK    8  A    between atoms: C_22  and  O_28
REMARK    9  A    between atoms: C_23  and  C_30
REMARK   10  A    between atoms: C_30  and  O_31
REMARK                            x       y       z     vdW  Elec       q    Type
REMARK                         _______ _______ _______ _____ _____    ______ ____
ROOT
ATOM      1  O   UNL     1     -38.426  22.896   2.954  0.00  0.00    -0.328 OA
ENDROOT
BRANCH   1   3
ATOM      2  C   UNL     1     -37.172  20.513   0.277  0.00  0.00    +0.021 C 
ATOM      3  C   UNL     1     -38.328  22.311   1.660  0.00  0.00    +0.149 C 
ATOM      4  C   UNL     1     -37.346  21.149   1.684  0.00  0.00    +0.037 C 
ATOM      5  C   UNL     1     -39.705  21.820   1.219  0.00  0.00    +0.156 C 
ATOM      6  C   UNL     1     -38.524  20.368  -0.467  0.00  0.00    -0.028 C 
ATOM      7  C   UNL     1     -39.666  20.956  -0.028  0.00  0.00    -0.019 C 
ATOM      8  C   UNL     1     -36.219  21.405  -0.554  0.00  0.00    +0.004 C 
ATOM      9  C   UNL     1     -36.487  19.144   0.506  0.00  0.00    +0.004 C 
ATOM     10  C   UNL     1     -41.023  20.853  -0.691  0.00  0.00    +0.029 C 
BRANCH   5  11
ATOM     11  O   UNL     1     -40.308  21.040   2.255  0.00  0.00    -0.378 OA
ATOM     12  H   UNL     1     -40.807  21.622   2.849  0.00  0.00    +0.211 HD
ENDBRANCH   5  11
BRANCH   6  13
ATOM     13  C   UNL     1     -38.485  19.553  -1.670  0.00  0.00    -0.002 C 
ATOM     14  C   UNL     1     -38.913  18.295  -1.690  0.00  0.00    +0.037 C 
BRANCH  14  16
ATOM     15  O   UNL     1     -38.919  18.045  -4.060  0.00  0.00    -0.291 OA
ATOM     16  C   UNL     1     -38.847  17.511  -2.955  0.00  0.00    +0.174 C 
ATOM     17  C   UNL     1     -38.707  16.017  -2.823  0.00  0.00    +0.077 C 
ENDBRANCH  14  16
ENDBRANCH   6  13
ENDBRANCH   1   3
BRANCH   1  19
ATOM     18  O   UNL     1     -36.664  22.649   4.464  0.00  0.00    -0.326 OA
ATOM     19  C   UNL     1     -37.174  23.428   3.383  0.00  0.00    +0.266 C 
ATOM     20  C   UNL     1     -37.402  24.873   3.826  0.00  0.00    +0.196 C 
ATOM     21  C   UNL     1     -36.138  25.472   4.443  0.00  0.00    +0.172 C 
ATOM     22  C   UNL     1     -35.532  24.532   5.486  0.00  0.00    +0.169 C 
ATOM     23  C   UNL     1     -35.395  23.115   4.925  0.00  0.00    +0.176 C 
BRANCH  20  24
ATOM     24  O   UNL     1     -37.778  25.637   2.681  0.00  0.00    -0.378 OA
ATOM     25  H   UNL     1     -37.189  26.403   2.595  0.00  0.00    +0.211 HD
ENDBRANCH  20  24
BRANCH  21  26
ATOM     26  O   UNL     1     -36.463  26.702   5.093  0.00  0.00    -0.379 OA
ATOM     27  H   UNL     1     -35.645  27.177   5.311  0.00  0.00    +0.211 HD
ENDBRANCH  21  26
BRANCH  22  28
ATOM     28  O   UNL     1     -34.246  25.015   5.865  0.00  0.00    -0.379 OA
ATOM     29  H   UNL     1     -34.344  25.680   6.564  0.00  0.00    +0.211 HD
ENDBRANCH  22  28
BRANCH  23  30
ATOM     30  C   UNL     1     -34.902  22.134   5.984  0.00  0.00    +0.169 C 
BRANCH  30  31
ATOM     31  O   UNL     1     -35.234  20.820   5.571  0.00  0.00    -0.379 OA
ATOM     32  H   UNL     1     -34.443  20.259   5.612  0.00  0.00    +0.211 HD
ENDBRANCH  30  31
ENDBRANCH  23  30
ENDBRANCH   1  19
TORSDOF 10
ENDMDL
MODEL 4
REMARK VINA RESULT:      -6.0      4.528      7.141
REMARK  Name = 53248454
REMARK  10 active torsions:
REMARK  status: ('A' for Active; 'I' for Inactive)
REMARK    1  A    between atoms: O_1  and  C_3
REMARK    2  A    between atoms: O_1  and  C_19
REMARK    3  A    between atoms: C_5  and  O_11
REMARK    4  A    between atoms: C_6  and  C_13
REMARK    5  A    between atoms: C_14  and  C_16
REMARK    6  A    between atoms: C_20  and  O_24
REMARK    7  A    between atoms: C_21  and  O_26
REMARK    8  A    between atoms: C_22  and  O_28
REMARK    9  A    between atoms: C_23  and  C_30
REMARK   10  A    between atoms: C_30  and  O_31
REMARK                            x       y       z     vdW  Elec       q    Type
REMARK                         _______ _______ _______ _____ _____    ______ ____
ROOT
ATOM      1  O   UNL     1     -35.877  23.821   4.615  0.00  0.00    -0.328 OA
ENDROOT
BRANCH   1   3
ATOM      2  C   UNL     1     -33.890  26.504   2.805  0.00  0.00    +0.021 C 
ATOM      3  C   UNL     1     -34.773  24.679   4.345  0.00  0.00    +0.149 C 
ATOM      4  C   UNL     1     -35.090  25.585   3.165  0.00  0.00    +0.037 C 
ATOM      5  C   UNL     1     -34.471  25.523   5.582  0.00  0.00    +0.156 C 
ATOM      6  C   UNL     1     -33.207  27.089   4.068  0.00  0.00    -0.028 C 
ATOM      7  C   UNL     1     -33.483  26.644   5.320  0.00  0.00    -0.019 C 
ATOM      8  C   UNL     1     -32.860  25.678   1.998  0.00  0.00    +0.004 C 
ATOM      9  C   UNL     1     -34.458  27.613   1.887  0.00  0.00    +0.004 C 
ATOM     10  C   UNL     1     -32.868  27.171   6.599  0.00  0.00    +0.029 C 
BRANCH   5  11
ATOM     11  O   UNL     1     -35.671  26.122   6.078  0.00  0.00    -0.378 OA
ATOM     12  H   UNL     1     -36.390  25.982   5.442  0.00  0.00    +0.211 HD
ENDBRANCH   5  11
BRANCH   6  13
ATOM     13  C   UNL     1     -32.250  28.154   3.817  0.00  0.00    -0.002 C 
ATOM     14  C   UNL     1     -32.541  29.434   4.021  0.00  0.00    +0.037 C 
BRANCH  14  16
ATOM     15  O   UNL     1     -31.251  30.851   2.604  0.00  0.00    -0.291 OA
ATOM     16  C   UNL     1     -31.516  30.480   3.746  0.00  0.00    +0.174 C 
ATOM     17  C   UNL     1     -30.796  31.056   4.936  0.00  0.00    +0.077 C 
ENDBRANCH  14  16
ENDBRANCH   6  13
ENDBRANCH   1   3
BRANCH   1  19
ATOM     18  O   UNL     1     -38.009  24.424   3.885  0.00  0.00    -0.326 OA
ATOM     19  C   UNL     1     -36.789  23.784   3.519  0.00  0.00    +0.266 C 
ATOM     20  C   UNL     1     -37.039  22.318   3.164  0.00  0.00    +0.196 C 
ATOM     21  C   UNL     1     -38.122  22.182   2.095  0.00  0.00    +0.172 C 
ATOM     22  C   UNL     1     -39.357  23.012   2.448  0.00  0.00    +0.169 C 
ATOM     23  C   UNL     1     -38.960  24.443   2.818  0.00  0.00    +0.176 C 
BRANCH  20  24
ATOM     24  O   UNL     1     -35.819  21.761   2.676  0.00  0.00    -0.378 OA
ATOM     25  H   UNL     1     -35.458  21.146   3.334  0.00  0.00    +0.211 HD
ENDBRANCH  20  24
BRANCH  21  26
ATOM     26  O   UNL     1     -38.525  20.815   1.996  0.00  0.00    -0.379 OA
ATOM     27  H   UNL     1     -37.979  20.274   2.589  0.00  0.00    +0.211 HD
ENDBRANCH  21  26
BRANCH  22  28
ATOM     28  O   UNL     1     -40.239  23.044   1.329  0.00  0.00    -0.379 OA
ATOM     29  H   UNL     1     -41.077  22.614   1.567  0.00  0.00    +0.211 HD
ENDBRANCH  22  28
BRANCH  23  30
ATOM     30  C   UNL     1     -40.161  25.259   3.287  0.00  0.00    +0.169 C 
BRANCH  30  31
ATOM     31  O   UNL     1     -39.733  26.585   3.541  0.00  0.00    -0.379 OA
ATOM     32  H   UNL     1     -40.377  27.028   4.116  0.00  0.00    +0.211 HD
ENDBRANCH  30  31
ENDBRANCH  23  30
ENDBRANCH   1  19
TORSDOF 10
ENDMDL
MODEL 5
REMARK VINA RESULT:      -6.0      2.367      7.695
REMARK  Name = 53248454
REMARK  10 active torsions:
REMARK  status: ('A' for Active; 'I' for Inactive)
REMARK    1  A    between atoms: O_1  and  C_3
REMARK    2  A    between atoms: O_1  and  C_19
REMARK    3  A    between atoms: C_5  and  O_11
REMARK    4  A    between atoms: C_6  and  C_13
REMARK    5  A    between atoms: C_14  and  C_16
REMARK    6  A    between atoms: C_20  and  O_24
REMARK    7  A    between atoms: C_21  and  O_26
REMARK    8  A    between atoms: C_22  and  O_28
REMARK    9  A    between atoms: C_23  and  C_30
REMARK   10  A    between atoms: C_30  and  O_31
REMARK                            x       y       z     vdW  Elec       q    Type
REMARK                         _______ _______ _______ _____ _____    ______ ____
ROOT
ATOM      1  O   UNL     1     -37.561  22.361   2.171  0.00  0.00    -0.328 OA
ENDROOT
BRANCH   1   3
ATOM      2  C   UNL     1     -34.792  21.331  -0.214  0.00  0.00    +0.021 C 
ATOM      3  C   UNL     1     -36.966  21.705   1.056  0.00  0.00    +0.149 C 
ATOM      4  C   UNL     1     -35.472  21.988   1.019  0.00  0.00    +0.037 C 
ATOM      5  C   UNL     1     -37.209  20.201   1.162  0.00  0.00    +0.156 C 
ATOM      6  C   UNL     1     -35.313  19.894  -0.469  0.00  0.00    -0.028 C 
ATOM      7  C   UNL     1     -36.403  19.389   0.165  0.00  0.00    -0.019 C 
ATOM      8  C   UNL     1     -35.070  22.209  -1.457  0.00  0.00    +0.004 C 
ATOM      9  C   UNL     1     -33.270  21.353   0.072  0.00  0.00    +0.004 C 
ATOM     10  C   UNL     1     -36.966  17.997  -0.022  0.00  0.00    +0.029 C 
BRANCH   5  11
ATOM     11  O   UNL     1     -36.861  19.734   2.468  0.00  0.00    -0.378 OA
ATOM     12  H   UNL     1     -36.321  20.402   2.917  0.00  0.00    +0.211 HD
ENDBRANCH   5  11
BRANCH   6  13
ATOM     13  C   UNL     1     -34.551  19.120  -1.435  0.00  0.00    -0.002 C 
ATOM     14  C   UNL     1     -33.699  18.168  -1.069  0.00  0.00    +0.037 C 
BRANCH  14  16
ATOM     15  O   UNL     1     -33.244  16.258  -2.419  0.00  0.00    -0.291 OA
ATOM     16  C   UNL     1     -32.947  17.409  -2.106  0.00  0.00    +0.174 C 
ATOM     17  C   UNL     1     -31.780  18.111  -2.750  0.00  0.00    +0.077 C 
ENDBRANCH  14  16
ENDBRANCH   6  13
ENDBRANCH   1   3
BRANCH   1  19
ATOM     18  O   UNL     1     -36.374  22.391   4.180  0.00  0.00    -0.326 OA
ATOM     19  C   UNL     1     -36.589  23.065   2.942  0.00  0.00    +0.266 C 
ATOM     20  C   UNL     1     -37.117  24.479   3.187  0.00  0.00    +0.196 C 
ATOM     21  C   UNL     1     -36.203  25.257   4.134  0.00  0.00    +0.172 C 
ATOM     22  C   UNL     1     -35.867  24.435   5.379  0.00  0.00    +0.169 C 
ATOM     23  C   UNL     1     -35.389  23.034   4.991  0.00  0.00    +0.176 C 
BRANCH  20  24
ATOM     24  O   UNL     1     -37.184  25.155   1.933  0.00  0.00    -0.378 OA
ATOM     25  H   UNL     1     -37.901  25.808   1.955  0.00  0.00    +0.211 HD
ENDBRANCH  20  24
BRANCH  21  26
ATOM     26  O   UNL     1     -36.864  26.450   4.559  0.00  0.00    -0.379 OA
ATOM     27  H   UNL     1     -36.429  26.794   5.355  0.00  0.00    +0.211 HD
ENDBRANCH  21  26
BRANCH  22  28
ATOM     28  O   UNL     1     -34.841  25.095   6.116  0.00  0.00    -0.379 OA
ATOM     29  H   UNL     1     -35.146  25.980   6.372  0.00  0.00    +0.211 HD
ENDBRANCH  22  28
BRANCH  23  30
ATOM     30  C   UNL     1     -35.159  22.156   6.217  0.00  0.00    +0.169 C 
BRANCH  30  31
ATOM     31  O   UNL     1     -35.332  20.801   5.841  0.00  0.00    -0.379 OA
ATOM     32  H   UNL     1     -34.472  20.420   5.602  0.00  0.00    +0.211 HD
ENDBRANCH  30  31
ENDBRANCH  23  30
ENDBRANCH   1  19
TORSDOF 10
ENDMDL
MODEL 6
REMARK VINA RESULT:      -5.9      2.334      8.142
REMARK  Name = 53248454
REMARK  10 active torsions:
REMARK  status: ('A' for Active; 'I' for Inactive)
REMARK    1  A    between atoms: O_1  and  C_3
REMARK    2  A    between atoms: O_1  and  C_19
REMARK    3  A    between atoms: C_5  and  O_11
REMARK    4  A    between atoms: C_6  and  C_13
REMARK    5  A    between atoms: C_14  and  C_16
REMARK    6  A    between atoms: C_20  and  O_24
REMARK    7  A    between atoms: C_21  and  O_26
REMARK    8  A    between atoms: C_22  and  O_28
REMARK    9  A    between atoms: C_23  and  C_30
REMARK   10  A    between atoms: C_30  and  O_31
REMARK                            x       y       z     vdW  Elec       q    Type
REMARK                         _______ _______ _______ _____ _____    ______ ____
ROOT
ATOM      1  O   UNL     1     -36.224  21.038   2.500  0.00  0.00    -0.328 OA
ENDROOT
BRANCH   1   3
ATOM      2  C   UNL     1     -33.369  19.273   0.725  0.00  0.00    +0.021 C 
ATOM      3  C   UNL     1     -35.445  20.584   1.399  0.00  0.00    +0.149 C 
ATOM      4  C   UNL     1     -34.275  19.748   1.895  0.00  0.00    +0.037 C 
ATOM      5  C   UNL     1     -36.321  19.750   0.466  0.00  0.00    +0.156 C 
ATOM      6  C   UNL     1     -34.197  18.797  -0.495  0.00  0.00    -0.028 C 
ATOM      7  C   UNL     1     -35.534  19.010  -0.599  0.00  0.00    -0.019 C 
ATOM      8  C   UNL     1     -32.455  20.447   0.301  0.00  0.00    +0.004 C 
ATOM      9  C   UNL     1     -32.481  18.143   1.300  0.00  0.00    +0.004 C 
ATOM     10  C   UNL     1     -36.411  18.567  -1.750  0.00  0.00    +0.029 C 
BRANCH   5  11
ATOM     11  O   UNL     1     -37.048  18.771   1.213  0.00  0.00    -0.378 OA
ATOM     12  H   UNL     1     -36.646  18.668   2.090  0.00  0.00    +0.211 HD
ENDBRANCH   5  11
BRANCH   6  13
ATOM     13  C   UNL     1     -33.441  18.100  -1.523  0.00  0.00    -0.002 C 
ATOM     14  C   UNL     1     -33.461  16.777  -1.646  0.00  0.00    +0.037 C 
BRANCH  14  16
ATOM     15  O   UNL     1     -33.183  15.399  -3.570  0.00  0.00    -0.291 OA
ATOM     16  C   UNL     1     -32.665  16.121  -2.721  0.00  0.00    +0.174 C 
ATOM     17  C   UNL     1     -31.179  16.367  -2.712  0.00  0.00    +0.077 C 
ENDBRANCH  14  16
ENDBRANCH   6  13
ENDBRANCH   1   3
BRANCH   1  19
ATOM     18  O   UNL     1     -35.257  22.851   3.604  0.00  0.00    -0.326 OA
ATOM     19  C   UNL     1     -36.199  22.460   2.607  0.00  0.00    +0.266 C 
ATOM     20  C   UNL     1     -37.604  22.930   2.984  0.00  0.00    +0.196 C 
ATOM     21  C   UNL     1     -37.631  24.432   3.266  0.00  0.00    +0.172 C 
ATOM     22  C   UNL     1     -36.504  24.837   4.218  0.00  0.00    +0.169 C 
ATOM     23  C   UNL     1     -35.164  24.270   3.744  0.00  0.00    +0.176 C 
BRANCH  20  24
ATOM     24  O   UNL     1     -38.480  22.636   1.897  0.00  0.00    -0.378 OA
ATOM     25  H   UNL     1     -38.846  21.745   2.008  0.00  0.00    +0.211 HD
ENDBRANCH  20  24
BRANCH  21  26
ATOM     26  O   UNL     1     -38.873  24.778   3.881  0.00  0.00    -0.379 OA
ATOM     27  H   UNL     1     -39.575  24.204   3.536  0.00  0.00    +0.211 HD
ENDBRANCH  21  26
BRANCH  22  28
ATOM     28  O   UNL     1     -36.421  26.259   4.271  0.00  0.00    -0.379 OA
ATOM     29  H   UNL     1     -36.096  26.595   3.421  0.00  0.00    +0.211 HD
ENDBRANCH  22  28
BRANCH  23  30
ATOM     30  C   UNL     1     -34.044  24.562   4.738  0.00  0.00    +0.169 C 
BRANCH  30  31
ATOM     31  O   UNL     1     -33.369  25.736   4.325  0.00  0.00    -0.379 OA
ATOM     32  H   UNL     1     -32.422  25.549   4.231  0.00  0.00    +0.211 HD
ENDBRANCH  30  31
ENDBRANCH  23  30
ENDBRANCH   1  19
TORSDOF 10
ENDMDL
MODEL 7
REMARK VINA RESULT:      -5.8      2.434      7.922
REMARK  Name = 53248454
REMARK  10 active torsions:
REMARK  status: ('A' for Active; 'I' for Inactive)
REMARK    1  A    between atoms: O_1  and  C_3
REMARK    2  A    between atoms: O_1  and  C_19
REMARK    3  A    between atoms: C_5  and  O_11
REMARK    4  A    between atoms: C_6  and  C_13
REMARK    5  A    between atoms: C_14  and  C_16
REMARK    6  A    between atoms: C_20  and  O_24
REMARK    7  A    between atoms: C_21  and  O_26
REMARK    8  A    between atoms: C_22  and  O_28
REMARK    9  A    between atoms: C_23  and  C_30
REMARK   10  A    between atoms: C_30  and  O_31
REMARK                            x       y       z     vdW  Elec       q    Type
REMARK                         _______ _______ _______ _____ _____    ______ ____
ROOT
ATOM      1  O   UNL     1     -35.659  23.858   0.570  0.00  0.00    -0.328 OA
ENDROOT
BRANCH   1   3
ATOM      2  C   UNL     1     -34.618  20.206   0.537  0.00  0.00    +0.021 C 
ATOM      3  C   UNL     1     -34.785  22.741   0.699  0.00  0.00    +0.149 C 
ATOM      4  C   UNL     1     -35.524  21.456   0.360  0.00  0.00    +0.037 C 
ATOM      5  C   UNL     1     -33.593  22.919  -0.240  0.00  0.00    +0.156 C 
ATOM      6  C   UNL     1     -33.187  20.443  -0.011  0.00  0.00    -0.028 C 
ATOM      7  C   UNL     1     -32.736  21.673  -0.368  0.00  0.00    -0.019 C 
ATOM      8  C   UNL     1     -34.542  19.860   2.043  0.00  0.00    +0.004 C 
ATOM      9  C   UNL     1     -35.335  19.047  -0.197  0.00  0.00    +0.004 C 
ATOM     10  C   UNL     1     -31.361  21.983  -0.919  0.00  0.00    +0.029 C 
BRANCH   5  11
ATOM     11  O   UNL     1     -34.043  23.260  -1.553  0.00  0.00    -0.378 OA
ATOM     12  H   UNL     1     -33.869  24.200  -1.721  0.00  0.00    +0.211 HD
ENDBRANCH   5  11
BRANCH   6  13
ATOM     13  C   UNL     1     -32.361  19.253  -0.121  0.00  0.00    -0.002 C 
ATOM     14  C   UNL     1     -31.504  18.893   0.828  0.00  0.00    +0.037 C 
BRANCH  14  16
ATOM     15  O   UNL     1     -31.179  16.536   0.694  0.00  0.00    -0.291 OA
ATOM     16  C   UNL     1     -30.684  17.660   0.657  0.00  0.00    +0.174 C 
ATOM     17  C   UNL     1     -29.204  17.851   0.455  0.00  0.00    +0.077 C 
ENDBRANCH  14  16
ENDBRANCH   6  13
ENDBRANCH   1   3
BRANCH   1  19
ATOM     18  O   UNL     1     -35.358  23.867   2.883  0.00  0.00    -0.326 OA
ATOM     19  C   UNL     1     -35.644  24.672   1.741  0.00  0.00    +0.266 C 
ATOM     20  C   UNL     1     -37.019  25.326   1.878  0.00  0.00    +0.196 C 
ATOM     21  C   UNL     1     -37.138  26.099   3.192  0.00  0.00    +0.172 C 
ATOM     22  C   UNL     1     -36.670  25.253   4.377  0.00  0.00    +0.169 C 
ATOM     23  C   UNL     1     -35.302  24.629   4.091  0.00  0.00    +0.176 C 
BRANCH  20  24
ATOM     24  O   UNL     1     -37.198  26.223   0.783  0.00  0.00    -0.378 OA
ATOM     25  H   UNL     1     -38.145  26.312   0.590  0.00  0.00    +0.211 HD
ENDBRANCH  20  24
BRANCH  21  26
ATOM     26  O   UNL     1     -38.504  26.452   3.414  0.00  0.00    -0.379 OA
ATOM     27  H   UNL     1     -38.822  26.018   4.222  0.00  0.00    +0.211 HD
ENDBRANCH  21  26
BRANCH  22  28
ATOM     28  O   UNL     1     -36.578  26.077   5.536  0.00  0.00    -0.379 OA
ATOM     29  H   UNL     1     -35.770  25.855   6.027  0.00  0.00    +0.211 HD
ENDBRANCH  22  28
BRANCH  23  30
ATOM     30  C   UNL     1     -34.867  23.687   5.209  0.00  0.00    +0.169 C 
BRANCH  30  31
ATOM     31  O   UNL     1     -36.024  23.111   5.789  0.00  0.00    -0.379 OA
ATOM     32  H   UNL     1     -36.810  23.593   5.489  0.00  0.00    +0.211 HD
ENDBRANCH  30  31
ENDBRANCH  23  30
ENDBRANCH   1  19
TORSDOF 10
ENDMDL
MODEL 8
REMARK VINA RESULT:      -5.8      3.055      5.684
REMARK  Name = 53248454
REMARK  10 active torsions:
REMARK  status: ('A' for Active; 'I' for Inactive)
REMARK    1  A    between atoms: O_1  and  C_3
REMARK    2  A    between atoms: O_1  and  C_19
REMARK    3  A    between atoms: C_5  and  O_11
REMARK    4  A    between atoms: C_6  and  C_13
REMARK    5  A    between atoms: C_14  and  C_16
REMARK    6  A    between atoms: C_20  and  O_24
REMARK    7  A    between atoms: C_21  and  O_26
REMARK    8  A    between atoms: C_22  and  O_28
REMARK    9  A    between atoms: C_23  and  C_30
REMARK   10  A    between atoms: C_30  and  O_31
REMARK                            x       y       z     vdW  Elec       q    Type
REMARK                         _______ _______ _______ _____ _____    ______ ____
ROOT
ATOM      1  O   UNL     1     -35.772  24.879   1.999  0.00  0.00    -0.328 OA
ENDROOT
BRANCH   1   3
ATOM      2  C   UNL     1     -33.012  27.459   2.379  0.00  0.00    +0.021 C 
ATOM      3  C   UNL     1     -34.603  25.479   2.548  0.00  0.00    +0.149 C 
ATOM      4  C   UNL     1     -34.310  26.795   1.843  0.00  0.00    +0.037 C 
ATOM      5  C   UNL     1     -34.811  25.724   4.041  0.00  0.00    +0.156 C 
ATOM      6  C   UNL     1     -32.907  27.369   3.923  0.00  0.00    -0.028 C 
ATOM      7  C   UNL     1     -33.732  26.587   4.667  0.00  0.00    -0.019 C 
ATOM      8  C   UNL     1     -31.794  26.752   1.738  0.00  0.00    +0.004 C 
ATOM      9  C   UNL     1     -33.044  28.926   1.885  0.00  0.00    +0.004 C 
ATOM     10  C   UNL     1     -33.699  26.455   6.174  0.00  0.00    +0.029 C 
BRANCH   5  11
ATOM     11  O   UNL     1     -36.061  26.380   4.266  0.00  0.00    -0.378 OA
ATOM     12  H   UNL     1     -36.267  26.952   3.510  0.00  0.00    +0.211 HD
ENDBRANCH   5  11
BRANCH   6  13
ATOM     13  C   UNL     1     -31.864  28.184   4.522  0.00  0.00    -0.002 C 
ATOM     14  C   UNL     1     -32.115  29.368   5.071  0.00  0.00    +0.037 C 
BRANCH  14  16
ATOM     15  O   UNL     1     -30.745  31.303   5.308  0.00  0.00    -0.291 OA
ATOM     16  C   UNL     1     -31.002  30.157   5.670  0.00  0.00    +0.174 C 
ATOM     17  C   UNL     1     -30.184  29.478   6.737  0.00  0.00    +0.077 C 
ENDBRANCH  14  16
ENDBRANCH   6  13
ENDBRANCH   1   3
BRANCH   1  19
ATOM     18  O   UNL     1     -35.170  22.666   1.568  0.00  0.00    -0.326 OA
ATOM     19  C   UNL     1     -35.915  23.526   2.428  0.00  0.00    +0.266 C 
ATOM     20  C   UNL     1     -37.402  23.172   2.382  0.00  0.00    +0.196 C 
ATOM     21  C   UNL     1     -37.630  21.691   2.684  0.00  0.00    +0.172 C 
ATOM     22  C   UNL     1     -36.698  20.807   1.854  0.00  0.00    +0.169 C 
ATOM     23  C   UNL     1     -35.251  21.295   1.959  0.00  0.00    +0.176 C 
BRANCH  20  24
ATOM     24  O   UNL     1     -38.080  23.964   3.356  0.00  0.00    -0.378 OA
ATOM     25  H   UNL     1     -38.776  24.482   2.924  0.00  0.00    +0.211 HD
ENDBRANCH  20  24
BRANCH  21  26
ATOM     26  O   UNL     1     -38.976  21.341   2.357  0.00  0.00    -0.379 OA
ATOM     27  H   UNL     1     -39.475  22.145   2.142  0.00  0.00    +0.211 HD
ENDBRANCH  21  26
BRANCH  22  28
ATOM     28  O   UNL     1     -36.778  19.465   2.327  0.00  0.00    -0.379 OA
ATOM     29  H   UNL     1     -37.594  19.055   1.999  0.00  0.00    +0.211 HD
ENDBRANCH  22  28
BRANCH  23  30
ATOM     30  C   UNL     1     -34.320  20.501   1.048  0.00  0.00    +0.169 C 
BRANCH  30  31
ATOM     31  O   UNL     1     -33.889  19.344   1.743  0.00  0.00    -0.379 OA
ATOM     32  H   UNL     1     -34.004  19.478   2.697  0.00  0.00    +0.211 HD
ENDBRANCH  30  31
ENDBRANCH  23  30
ENDBRANCH   1  19
TORSDOF 10
ENDMDL
MODEL 9
REMARK VINA RESULT:      -5.8      2.700      7.535
REMARK  Name = 53248454
REMARK  10 active torsions:
REMARK  status: ('A' for Active; 'I' for Inactive)
REMARK    1  A    between atoms: O_1  and  C_3
REMARK    2  A    between atoms: O_1  and  C_19
REMARK    3  A    between atoms: C_5  and  O_11
REMARK    4  A    between atoms: C_6  and  C_13
REMARK    5  A    between atoms: C_14  and  C_16
REMARK    6  A    between atoms: C_20  and  O_24
REMARK    7  A    between atoms: C_21  and  O_26
REMARK    8  A    between atoms: C_22  and  O_28
REMARK    9  A    between atoms: C_23  and  C_30
REMARK   10  A    between atoms: C_30  and  O_31
REMARK                            x       y       z     vdW  Elec       q    Type
REMARK                         _______ _______ _______ _____ _____    ______ ____
ROOT
ATOM      1  O   UNL     1     -36.984  22.095   1.886  0.00  0.00    -0.328 OA
ENDROOT
BRANCH   1   3
ATOM      2  C   UNL     1     -33.839  22.202  -0.238  0.00  0.00    +0.021 C 
ATOM      3  C   UNL     1     -35.980  21.606   1.004  0.00  0.00    +0.149 C 
ATOM      4  C   UNL     1     -34.929  22.679   0.761  0.00  0.00    +0.037 C 
ATOM      5  C   UNL     1     -35.326  20.367   1.614  0.00  0.00    +0.156 C 
ATOM      6  C   UNL     1     -33.402  20.740   0.031  0.00  0.00    -0.028 C 
ATOM      7  C   UNL     1     -34.077  19.920   0.878  0.00  0.00    -0.019 C 
ATOM      8  C   UNL     1     -34.402  22.315  -1.675  0.00  0.00    +0.004 C 
ATOM      9  C   UNL     1     -32.660  23.195  -0.094  0.00  0.00    +0.004 C 
ATOM     10  C   UNL     1     -33.709  18.488   1.201  0.00  0.00    +0.029 C 
BRANCH   5  11
ATOM     11  O   UNL     1     -34.951  20.622   2.970  0.00  0.00    -0.378 OA
ATOM     12  H   UNL     1     -34.343  21.377   3.001  0.00  0.00    +0.211 HD
ENDBRANCH   5  11
BRANCH   6  13
ATOM     13  C   UNL     1     -32.214  20.306  -0.684  0.00  0.00    -0.002 C 
ATOM     14  C   UNL     1     -31.057  20.083  -0.070  0.00  0.00    +0.037 C 
BRANCH  14  16
ATOM     15  O   UNL     1     -29.668  20.030  -2.006  0.00  0.00    -0.291 OA
ATOM     16  C   UNL     1     -29.873  19.639  -0.859  0.00  0.00    +0.174 C 
ATOM     17  C   UNL     1     -28.939  18.664  -0.193  0.00  0.00    +0.077 C 
ENDBRANCH  14  16
ENDBRANCH   6  13
ENDBRANCH   1   3
BRANCH   1  19
ATOM     18  O   UNL     1     -36.217  23.075   3.860  0.00  0.00    -0.326 OA
ATOM     19  C   UNL     1     -36.586  23.318   2.504  0.00  0.00    +0.266 C 
ATOM     20  C   UNL     1     -37.767  24.286   2.436  0.00  0.00    +0.196 C 
ATOM     21  C   UNL     1     -37.477  25.572   3.209  0.00  0.00    +0.172 C 
ATOM     22  C   UNL     1     -36.931  25.267   4.605  0.00  0.00    +0.169 C 
ATOM     23  C   UNL     1     -35.782  24.259   4.530  0.00  0.00    +0.176 C 
BRANCH  20  24
ATOM     24  O   UNL     1     -38.008  24.602   1.065  0.00  0.00    -0.378 OA
ATOM     25  H   UNL     1     -38.762  25.208   1.001  0.00  0.00    +0.211 HD
ENDBRANCH  20  24
BRANCH  21  26
ATOM     26  O   UNL     1     -38.685  26.318   3.361  0.00  0.00    -0.379 OA
ATOM     27  H   UNL     1     -39.363  25.962   2.765  0.00  0.00    +0.211 HD
ENDBRANCH  21  26
BRANCH  22  28
ATOM     28  O   UNL     1     -36.461  26.474   5.200  0.00  0.00    -0.379 OA
ATOM     29  H   UNL     1     -36.645  26.458   6.152  0.00  0.00    +0.211 HD
ENDBRANCH  22  28
BRANCH  23  30
ATOM     30  C   UNL     1     -35.299  23.851   5.918  0.00  0.00    +0.169 C 
BRANCH  30  31
ATOM     31  O   UNL     1     -35.860  22.590   6.238  0.00  0.00    -0.379 OA
ATOM     32  H   UNL     1     -36.219  22.183   5.434  0.00  0.00    +0.211 HD
ENDBRANCH  30  31
ENDBRANCH  23  30
ENDBRANCH   1  19
TORSDOF 10
ENDMDL
