MODEL 1
REMARK VINA RESULT:      -7.9      0.000      0.000
REMARK  Name = 54728414
REMARK  4 active torsions:
REMARK  status: ('A' for Active; 'I' for Inactive)
REMARK    1  A    between atoms: N_2  and  C_20
REMARK    2  A    between atoms: C_3  and  C_11
REMARK    3  A    between atoms: C_12  and  O_18
REMARK    4  A    between atoms: C_21  and  C_28
REMARK                            x       y       z     vdW  Elec       q    Type
REMARK                         _______ _______ _______ _____ _____    ______ ____
ROOT
ATOM      1  O   UNL     1     -37.706  23.705   3.698  0.00  0.00    -0.268 OA
ATOM      2  N   UNL     1     -37.849  22.943   1.474  0.00  0.00    -0.279 N 
ATOM      3  C   UNL     1     -38.271  23.629   2.607  0.00  0.00    +0.267 C 
ATOM      4  H   UNL     1     -38.439  22.998   0.688  0.00  0.00    +0.155 HD
ENDROOT
BRANCH   3  11
ATOM      5  S   UNL     1     -41.611  24.449   0.697  0.00  0.00    +0.074 S 
ATOM      6  O   UNL     1     -42.745  23.589   0.424  0.00  0.00    -0.150 OA
ATOM      7  O   UNL     1     -40.908  25.138  -0.366  0.00  0.00    -0.150 OA
ATOM      8  N   UNL     1     -40.516  23.589   1.657  0.00  0.00    -0.208 N 
ATOM      9  C   UNL     1     -42.140  25.679   1.830  0.00  0.00    +0.128 C 
ATOM     10  C   UNL     1     -41.235  26.101   2.810  0.00  0.00    +0.054 C 
ATOM     11  C   UNL     1     -39.547  24.317   2.396  0.00  0.00    +0.152 C 
ATOM     12  C   UNL     1     -39.875  25.516   2.914  0.00  0.00    +0.154 C 
ATOM     13  C   UNL     1     -43.431  26.198   1.721  0.00  0.00    +0.020 C 
ATOM     14  C   UNL     1     -41.672  27.100   3.695  0.00  0.00    +0.004 C 
ATOM     15  C   UNL     1     -43.839  27.183   2.615  0.00  0.00    +0.001 C 
ATOM     16  C   UNL     1     -42.962  27.635   3.598  0.00  0.00    +0.000 C 
ATOM     17  H   UNL     1     -40.551  22.606   1.702  0.00  0.00    +0.174 HD
BRANCH  12  18
ATOM     18  O   UNL     1     -38.995  26.294   3.644  0.00  0.00    -0.504 OA
ATOM     19  H   UNL     1     -38.581  27.033   3.243  0.00  0.00    +0.292 HD
ENDBRANCH  12  18
ENDBRANCH   3  11
BRANCH   2  20
ATOM     20  C   UNL     1     -36.670  22.173   1.318  0.00  0.00    +0.051 C 
ATOM     21  C   UNL     1     -34.350  20.655   1.010  0.00  0.00    +0.000 C 
ATOM     22  C   UNL     1     -36.641  20.847   1.754  0.00  0.00    +0.015 C 
ATOM     23  C   UNL     1     -35.540  22.738   0.729  0.00  0.00    +0.015 C 
ATOM     24  C   UNL     1     -35.482  20.089   1.599  0.00  0.00    +0.001 C 
ATOM     25  C   UNL     1     -34.380  21.979   0.574  0.00  0.00    +0.001 C 
BRANCH  21  28
ATOM     26 CL   UNL     1     -29.581  20.332  -0.872  0.00  0.00    -0.081 Cl
ATOM     27 CL   UNL     1     -29.422  17.354   0.386  0.00  0.00    -0.081 Cl
ATOM     28  C   UNL     1     -33.147  19.867   0.850  0.00  0.00    +0.001 C 
ATOM     29  C   UNL     1     -32.057  20.390   0.154  0.00  0.00    +0.012 C 
ATOM     30  C   UNL     1     -33.078  18.583   1.391  0.00  0.00    +0.001 C 
ATOM     31  C   UNL     1     -30.898  19.629   0.001  0.00  0.00    +0.068 C 
ATOM     32  C   UNL     1     -31.920  17.823   1.238  0.00  0.00    +0.012 C 
ATOM     33  C   UNL     1     -30.829  18.346   0.543  0.00  0.00    +0.068 C 
ENDBRANCH  21  28
ENDBRANCH   2  20
TORSDOF 4
ENDMDL
MODEL 2
REMARK VINA RESULT:      -7.7      7.803     10.913
REMARK  Name = 54728414
REMARK  4 active torsions:
REMARK  status: ('A' for Active; 'I' for Inactive)
REMARK    1  A    between atoms: N_2  and  C_20
REMARK    2  A    between atoms: C_3  and  C_11
REMARK    3  A    between atoms: C_12  and  O_18
REMARK    4  A    between atoms: C_21  and  C_28
REMARK                            x       y       z     vdW  Elec       q    Type
REMARK                         _______ _______ _______ _____ _____    ______ ____
ROOT
ATOM      1  O   UNL     1     -37.701  27.325   1.544  0.00  0.00    -0.268 OA
ATOM      2  N   UNL     1     -35.669  27.981   2.537  0.00  0.00    -0.279 N 
ATOM      3  C   UNL     1     -36.677  27.091   2.185  0.00  0.00    +0.267 C 
ATOM      4  H   UNL     1     -34.921  27.607   3.056  0.00  0.00    +0.155 HD
ENDROOT
BRANCH   3  11
ATOM      5  S   UNL     1     -36.494  23.171   1.911  0.00  0.00    +0.074 S 
ATOM      6  O   UNL     1     -35.661  22.350   1.054  0.00  0.00    -0.150 OA
ATOM      7  O   UNL     1     -37.937  23.040   1.916  0.00  0.00    -0.150 OA
ATOM      8  N   UNL     1     -36.057  24.788   1.679  0.00  0.00    -0.208 N 
ATOM      9  C   UNL     1     -35.960  22.924   3.563  0.00  0.00    +0.128 C 
ATOM     10  C   UNL     1     -35.976  24.023   4.429  0.00  0.00    +0.054 C 
ATOM     11  C   UNL     1     -36.414  25.735   2.673  0.00  0.00    +0.152 C 
ATOM     12  C   UNL     1     -36.407  25.367   3.969  0.00  0.00    +0.154 C 
ATOM     13  C   UNL     1     -35.542  21.654   3.963  0.00  0.00    +0.020 C 
ATOM     14  C   UNL     1     -35.562  23.800   5.752  0.00  0.00    +0.004 C 
ATOM     15  C   UNL     1     -35.133  21.463   5.279  0.00  0.00    +0.001 C 
ATOM     16  C   UNL     1     -35.144  22.532   6.172  0.00  0.00    +0.000 C 
ATOM     17  H   UNL     1     -35.566  25.065   0.872  0.00  0.00    +0.174 HD
BRANCH  12  18
ATOM     18  O   UNL     1     -36.742  26.221   5.003  0.00  0.00    -0.504 OA
ATOM     19  H   UNL     1     -36.393  27.091   5.023  0.00  0.00    +0.292 HD
ENDBRANCH  12  18
ENDBRANCH   3  11
BRANCH   2  20
ATOM     20  C   UNL     1     -35.592  29.363   2.237  0.00  0.00    +0.051 C 
ATOM     21  C   UNL     1     -35.442  32.086   1.646  0.00  0.00    +0.000 C 
ATOM     22  C   UNL     1     -36.355  29.895   1.195  0.00  0.00    +0.015 C 
ATOM     23  C   UNL     1     -34.756  30.194   2.982  0.00  0.00    +0.015 C 
ATOM     24  C   UNL     1     -36.280  31.255   0.901  0.00  0.00    +0.001 C 
ATOM     25  C   UNL     1     -34.681  31.555   2.687  0.00  0.00    +0.001 C 
BRANCH  21  28
ATOM     26 CL   UNL     1     -37.921  36.410   0.402  0.00  0.00    -0.081 Cl
ATOM     27 CL   UNL     1     -35.051  37.904   0.393  0.00  0.00    -0.081 Cl
ATOM     28  C   UNL     1     -35.365  33.498   1.340  0.00  0.00    +0.001 C 
ATOM     29  C   UNL     1     -36.525  34.215   1.049  0.00  0.00    +0.012 C 
ATOM     30  C   UNL     1     -34.127  34.142   1.336  0.00  0.00    +0.001 C 
ATOM     31  C   UNL     1     -36.448  35.576   0.755  0.00  0.00    +0.068 C 
ATOM     32  C   UNL     1     -34.050  35.503   1.041  0.00  0.00    +0.012 C 
ATOM     33  C   UNL     1     -35.211  36.220   0.751  0.00  0.00    +0.068 C 
ENDBRANCH  21  28
ENDBRANCH   2  20
TORSDOF 4
ENDMDL
MODEL 3
REMARK VINA RESULT:      -7.6      7.689     10.788
REMARK  Name = 54728414
REMARK  4 active torsions:
REMARK  status: ('A' for Active; 'I' for Inactive)
REMARK    1  A    between atoms: N_2  and  C_20
REMARK    2  A    between atoms: C_3  and  C_11
REMARK    3  A    between atoms: C_12  and  O_18
REMARK    4  A    between atoms: C_21  and  C_28
REMARK                            x       y       z     vdW  Elec       q    Type
REMARK                         _______ _______ _______ _____ _____    ______ ____
ROOT
ATOM      1  O   UNL     1     -37.709  27.341   1.578  0.00  0.00    -0.268 OA
ATOM      2  N   UNL     1     -35.659  27.966   2.555  0.00  0.00    -0.279 N 
ATOM      3  C   UNL     1     -36.683  27.092   2.212  0.00  0.00    +0.267 C 
ATOM      4  H   UNL     1     -34.913  27.581   3.070  0.00  0.00    +0.155 HD
ENDROOT
BRANCH   3  11
ATOM      5  S   UNL     1     -36.595  23.168   1.954  0.00  0.00    +0.074 S 
ATOM      6  O   UNL     1     -35.802  22.324   1.081  0.00  0.00    -0.150 OA
ATOM      7  O   UNL     1     -38.039  23.069   1.996  0.00  0.00    -0.150 OA
ATOM      8  N   UNL     1     -36.128  24.773   1.702  0.00  0.00    -0.208 N 
ATOM      9  C   UNL     1     -36.025  22.916   3.593  0.00  0.00    +0.128 C 
ATOM     10  C   UNL     1     -35.995  24.019   4.453  0.00  0.00    +0.054 C 
ATOM     11  C   UNL     1     -36.439  25.733   2.700  0.00  0.00    +0.152 C 
ATOM     12  C   UNL     1     -36.407  25.370   3.997  0.00  0.00    +0.154 C 
ATOM     13  C   UNL     1     -35.625  21.639   3.989  0.00  0.00    +0.020 C 
ATOM     14  C   UNL     1     -35.553  23.793   5.767  0.00  0.00    +0.004 C 
ATOM     15  C   UNL     1     -35.187  21.445   5.295  0.00  0.00    +0.001 C 
ATOM     16  C   UNL     1     -35.153  22.518   6.183  0.00  0.00    +0.000 C 
ATOM     17  H   UNL     1     -35.651  25.036   0.882  0.00  0.00    +0.174 HD
BRANCH  12  18
ATOM     18  O   UNL     1     -36.697  26.237   5.035  0.00  0.00    -0.504 OA
ATOM     19  H   UNL     1     -36.017  26.762   5.411  0.00  0.00    +0.292 HD
ENDBRANCH  12  18
ENDBRANCH   3  11
BRANCH   2  20
ATOM     20  C   UNL     1     -35.562  29.346   2.252  0.00  0.00    +0.051 C 
ATOM     21  C   UNL     1     -35.373  32.065   1.656  0.00  0.00    +0.000 C 
ATOM     22  C   UNL     1     -36.312  29.885   1.206  0.00  0.00    +0.015 C 
ATOM     23  C   UNL     1     -34.719  30.168   3.000  0.00  0.00    +0.015 C 
ATOM     24  C   UNL     1     -36.218  31.244   0.908  0.00  0.00    +0.001 C 
ATOM     25  C   UNL     1     -34.624  31.527   2.702  0.00  0.00    +0.001 C 
BRANCH  21  28
ATOM     26 CL   UNL     1     -32.545  36.353   1.751  0.00  0.00    -0.081 Cl
ATOM     27 CL   UNL     1     -35.036  37.877   0.357  0.00  0.00    -0.081 Cl
ATOM     28  C   UNL     1     -35.275  33.476   1.347  0.00  0.00    +0.001 C 
ATOM     29  C   UNL     1     -34.109  34.178   1.650  0.00  0.00    +0.012 C 
ATOM     30  C   UNL     1     -36.350  34.133   0.746  0.00  0.00    +0.001 C 
ATOM     31  C   UNL     1     -34.016  35.537   1.351  0.00  0.00    +0.068 C 
ATOM     32  C   UNL     1     -36.257  35.492   0.449  0.00  0.00    +0.012 C 
ATOM     33  C   UNL     1     -35.089  36.194   0.750  0.00  0.00    +0.068 C 
ENDBRANCH  21  28
ENDBRANCH   2  20
TORSDOF 4
ENDMDL
MODEL 4
REMARK VINA RESULT:      -7.5      8.001     11.230
REMARK  Name = 54728414
REMARK  4 active torsions:
REMARK  status: ('A' for Active; 'I' for Inactive)
REMARK    1  A    between atoms: N_2  and  C_20
REMARK    2  A    between atoms: C_3  and  C_11
REMARK    3  A    between atoms: C_12  and  O_18
REMARK    4  A    between atoms: C_21  and  C_28
REMARK                            x       y       z     vdW  Elec       q    Type
REMARK                         _______ _______ _______ _____ _____    ______ ____
ROOT
ATOM      1  O   UNL     1     -33.274  27.464   1.842  0.00  0.00    -0.268 OA
ATOM      2  N   UNL     1     -35.432  28.064   2.570  0.00  0.00    -0.279 N 
ATOM      3  C   UNL     1     -34.363  27.202   2.354  0.00  0.00    +0.267 C 
ATOM      4  H   UNL     1     -36.227  27.670   2.996  0.00  0.00    +0.155 HD
ENDROOT
BRANCH   3  11
ATOM      5  S   UNL     1     -35.303  23.408   1.922  0.00  0.00    +0.074 S 
ATOM      6  O   UNL     1     -34.574  22.354   1.242  0.00  0.00    -0.150 OA
ATOM      7  O   UNL     1     -36.676  23.721   1.581  0.00  0.00    -0.150 OA
ATOM      8  N   UNL     1     -34.359  24.810   1.885  0.00  0.00    -0.208 N 
ATOM      9  C   UNL     1     -35.280  23.045   3.637  0.00  0.00    +0.128 C 
ATOM     10  C   UNL     1     -35.174  24.115   4.532  0.00  0.00    +0.054 C 
ATOM     11  C   UNL     1     -34.644  25.842   2.817  0.00  0.00    +0.152 C 
ATOM     12  C   UNL     1     -35.058  25.516   4.056  0.00  0.00    +0.154 C 
ATOM     13  C   UNL     1     -35.371  21.717   4.056  0.00  0.00    +0.020 C 
ATOM     14  C   UNL     1     -35.176  23.805   5.902  0.00  0.00    +0.004 C 
ATOM     15  C   UNL     1     -35.366  21.438   5.419  0.00  0.00    +0.001 C 
ATOM     16  C   UNL     1     -35.271  22.479   6.340  0.00  0.00    +0.000 C 
ATOM     17  H   UNL     1     -33.629  24.908   1.232  0.00  0.00    +0.174 HD
BRANCH  12  18
ATOM     18  O   UNL     1     -35.360  26.454   5.027  0.00  0.00    -0.504 OA
ATOM     19  H   UNL     1     -36.187  26.894   5.010  0.00  0.00    +0.292 HD
ENDBRANCH  12  18
ENDBRANCH   3  11
BRANCH   2  20
ATOM     20  C   UNL     1     -35.512  29.441   2.250  0.00  0.00    +0.051 C 
ATOM     21  C   UNL     1     -35.669  32.154   1.618  0.00  0.00    +0.000 C 
ATOM     22  C   UNL     1     -34.736  30.367   2.950  0.00  0.00    +0.015 C 
ATOM     23  C   UNL     1     -36.365  29.873   1.235  0.00  0.00    +0.015 C 
ATOM     24  C   UNL     1     -34.815  31.722   2.634  0.00  0.00    +0.001 C 
ATOM     25  C   UNL     1     -36.444  31.229   0.918  0.00  0.00    +0.001 C 
BRANCH  21  28
ATOM     26 CL   UNL     1     -38.630  36.176   0.416  0.00  0.00    -0.081 Cl
ATOM     27 CL   UNL     1     -35.933  37.958   0.272  0.00  0.00    -0.081 Cl
ATOM     28  C   UNL     1     -35.750  33.561   1.290  0.00  0.00    +0.001 C 
ATOM     29  C   UNL     1     -36.989  34.149   1.036  0.00  0.00    +0.012 C 
ATOM     30  C   UNL     1     -34.587  34.330   1.228  0.00  0.00    +0.001 C 
ATOM     31  C   UNL     1     -37.066  35.505   0.721  0.00  0.00    +0.068 C 
ATOM     32  C   UNL     1     -34.664  35.685   0.912  0.00  0.00    +0.012 C 
ATOM     33  C   UNL     1     -35.904  36.273   0.659  0.00  0.00    +0.068 C 
ENDBRANCH  21  28
ENDBRANCH   2  20
TORSDOF 4
ENDMDL
MODEL 5
REMARK VINA RESULT:      -7.3      2.747      4.329
REMARK  Name = 54728414
REMARK  4 active torsions:
REMARK  status: ('A' for Active; 'I' for Inactive)
REMARK    1  A    between atoms: N_2  and  C_20
REMARK    2  A    between atoms: C_3  and  C_11
REMARK    3  A    between atoms: C_12  and  O_18
REMARK    4  A    between atoms: C_21  and  C_28
REMARK                            x       y       z     vdW  Elec       q    Type
REMARK                         _______ _______ _______ _____ _____    ______ ____
ROOT
ATOM      1  O   UNL     1     -35.520  20.569   3.475  0.00  0.00    -0.268 OA
ATOM      2  N   UNL     1     -34.747  21.351   1.392  0.00  0.00    -0.279 N 
ATOM      3  C   UNL     1     -35.551  21.353   2.526  0.00  0.00    +0.267 C 
ATOM      4  H   UNL     1     -34.921  22.063   0.735  0.00  0.00    +0.155 HD
ENDROOT
BRANCH   3  11
ATOM      5  S   UNL     1     -36.869  24.967   3.348  0.00  0.00    +0.074 S 
ATOM      6  O   UNL     1     -36.358  26.250   2.908  0.00  0.00    -0.150 OA
ATOM      7  O   UNL     1     -37.031  24.657   4.754  0.00  0.00    -0.150 OA
ATOM      8  N   UNL     1     -35.973  23.754   2.583  0.00  0.00    -0.208 N 
ATOM      9  C   UNL     1     -38.437  24.735   2.597  0.00  0.00    +0.128 C 
ATOM     10  C   UNL     1     -38.784  23.443   2.190  0.00  0.00    +0.054 C 
ATOM     11  C   UNL     1     -36.524  22.447   2.514  0.00  0.00    +0.152 C 
ATOM     12  C   UNL     1     -37.854  22.299   2.359  0.00  0.00    +0.154 C 
ATOM     13  C   UNL     1     -39.284  25.832   2.432  0.00  0.00    +0.020 C 
ATOM     14  C   UNL     1     -40.051  23.276   1.607  0.00  0.00    +0.004 C 
ATOM     15  C   UNL     1     -40.531  25.638   1.849  0.00  0.00    +0.001 C 
ATOM     16  C   UNL     1     -40.916  24.364   1.439  0.00  0.00    +0.000 C 
ATOM     17  H   UNL     1     -35.090  23.949   2.196  0.00  0.00    +0.174 HD
BRANCH  12  18
ATOM     18  O   UNL     1     -38.476  21.067   2.284  0.00  0.00    -0.504 OA
ATOM     19  H   UNL     1     -39.363  21.008   1.986  0.00  0.00    +0.292 HD
ENDBRANCH  12  18
ENDBRANCH   3  11
BRANCH   2  20
ATOM     20  C   UNL     1     -33.707  20.445   1.070  0.00  0.00    +0.051 C 
ATOM     21  C   UNL     1     -31.659  18.660   0.436  0.00  0.00    +0.000 C 
ATOM     22  C   UNL     1     -32.672  20.843   0.223  0.00  0.00    +0.015 C 
ATOM     23  C   UNL     1     -33.717  19.155   1.600  0.00  0.00    +0.015 C 
ATOM     24  C   UNL     1     -31.648  19.951  -0.094  0.00  0.00    +0.001 C 
ATOM     25  C   UNL     1     -32.693  18.262   1.283  0.00  0.00    +0.001 C 
BRANCH  21  28
ATOM     26 CL   UNL     1     -27.246  16.429   1.831  0.00  0.00    -0.081 Cl
ATOM     27 CL   UNL     1     -27.311  14.832  -0.982  0.00  0.00    -0.081 Cl
ATOM     28  C   UNL     1     -30.596  17.735   0.107  0.00  0.00    +0.001 C 
ATOM     29  C   UNL     1     -29.545  17.531   1.001  0.00  0.00    +0.012 C 
ATOM     30  C   UNL     1     -30.623  17.046  -1.106  0.00  0.00    +0.001 C 
ATOM     31  C   UNL     1     -28.522  16.638   0.683  0.00  0.00    +0.068 C 
ATOM     32  C   UNL     1     -29.600  16.154  -1.425  0.00  0.00    +0.012 C 
ATOM     33  C   UNL     1     -28.550  15.950  -0.530  0.00  0.00    +0.068 C 
ENDBRANCH  21  28
ENDBRANCH   2  20
TORSDOF 4
ENDMDL
MODEL 6
REMARK VINA RESULT:      -7.3      8.851     12.000
REMARK  Name = 54728414
REMARK  4 active torsions:
REMARK  status: ('A' for Active; 'I' for Inactive)
REMARK    1  A    between atoms: N_2  and  C_20
REMARK    2  A    between atoms: C_3  and  C_11
REMARK    3  A    between atoms: C_12  and  O_18
REMARK    4  A    between atoms: C_21  and  C_28
REMARK                            x       y       z     vdW  Elec       q    Type
REMARK                         _______ _______ _______ _____ _____    ______ ____
ROOT
ATOM      1  O   UNL     1     -36.393  28.502   1.215  0.00  0.00    -0.268 OA
ATOM      2  N   UNL     1     -35.067  29.552   2.854  0.00  0.00    -0.279 N 
ATOM      3  C   UNL     1     -35.711  28.485   2.240  0.00  0.00    +0.267 C 
ATOM      4  H   UNL     1     -34.565  29.343   3.674  0.00  0.00    +0.155 HD
ENDROOT
BRANCH   3  11
ATOM      5  S   UNL     1     -34.086  26.148   4.955  0.00  0.00    +0.074 S 
ATOM      6  O   UNL     1     -34.157  26.236   6.401  0.00  0.00    -0.150 OA
ATOM      7  O   UNL     1     -32.817  26.115   4.259  0.00  0.00    -0.150 OA
ATOM      8  N   UNL     1     -35.076  27.355   4.305  0.00  0.00    -0.208 N 
ATOM      9  C   UNL     1     -34.965  24.710   4.469  0.00  0.00    +0.128 C 
ATOM     10  C   UNL     1     -35.705  24.763   3.284  0.00  0.00    +0.054 C 
ATOM     11  C   UNL     1     -35.506  27.225   2.959  0.00  0.00    +0.152 C 
ATOM     12  C   UNL     1     -35.773  26.000   2.466  0.00  0.00    +0.154 C 
ATOM     13  C   UNL     1     -34.899  23.567   5.267  0.00  0.00    +0.020 C 
ATOM     14  C   UNL     1     -36.386  23.596   2.903  0.00  0.00    +0.004 C 
ATOM     15  C   UNL     1     -35.587  22.426   4.868  0.00  0.00    +0.001 C 
ATOM     16  C   UNL     1     -36.327  22.439   3.688  0.00  0.00    +0.000 C 
ATOM     17  H   UNL     1     -35.348  28.130   4.848  0.00  0.00    +0.174 HD
BRANCH  12  18
ATOM     18  O   UNL     1     -36.194  25.780   1.168  0.00  0.00    -0.504 OA
ATOM     19  H   UNL     1     -36.621  26.465   0.691  0.00  0.00    +0.292 HD
ENDBRANCH  12  18
ENDBRANCH   3  11
BRANCH   2  20
ATOM     20  C   UNL     1     -35.050  30.906   2.439  0.00  0.00    +0.051 C 
ATOM     21  C   UNL     1     -35.014  33.574   1.622  0.00  0.00    +0.000 C 
ATOM     22  C   UNL     1     -33.857  31.631   2.474  0.00  0.00    +0.015 C 
ATOM     23  C   UNL     1     -36.223  31.516   1.995  0.00  0.00    +0.015 C 
ATOM     24  C   UNL     1     -33.840  32.964   2.066  0.00  0.00    +0.001 C 
ATOM     25  C   UNL     1     -36.205  32.850   1.587  0.00  0.00    +0.001 C 
BRANCH  21  28
ATOM     26 CL   UNL     1     -32.308  37.895   0.994  0.00  0.00    -0.081 Cl
ATOM     27 CL   UNL     1     -35.008  39.271  -0.142  0.00  0.00    -0.081 Cl
ATOM     28  C   UNL     1     -34.995  34.957   1.198  0.00  0.00    +0.001 C 
ATOM     29  C   UNL     1     -33.816  35.697   1.279  0.00  0.00    +0.012 C 
ATOM     30  C   UNL     1     -36.160  35.551   0.708  0.00  0.00    +0.001 C 
ATOM     31  C   UNL     1     -33.800  37.030   0.869  0.00  0.00    +0.068 C 
ATOM     32  C   UNL     1     -36.144  36.884   0.300  0.00  0.00    +0.012 C 
ATOM     33  C   UNL     1     -34.963  37.623   0.379  0.00  0.00    +0.068 C 
ENDBRANCH  21  28
ENDBRANCH   2  20
TORSDOF 4
ENDMDL
MODEL 7
REMARK VINA RESULT:      -7.1      8.938     11.906
REMARK  Name = 54728414
REMARK  4 active torsions:
REMARK  status: ('A' for Active; 'I' for Inactive)
REMARK    1  A    between atoms: N_2  and  C_20
REMARK    2  A    between atoms: C_3  and  C_11
REMARK    3  A    between atoms: C_12  and  O_18
REMARK    4  A    between atoms: C_21  and  C_28
REMARK                            x       y       z     vdW  Elec       q    Type
REMARK                         _______ _______ _______ _____ _____    ______ ____
ROOT
ATOM      1  O   UNL     1     -34.394  28.133   0.864  0.00  0.00    -0.268 OA
ATOM      2  N   UNL     1     -34.690  29.247   2.918  0.00  0.00    -0.279 N 
ATOM      3  C   UNL     1     -34.606  28.143   2.077  0.00  0.00    +0.267 C 
ATOM      4  H   UNL     1     -34.868  29.056   3.867  0.00  0.00    +0.155 HD
ENDROOT
BRANCH   3  11
ATOM      5  S   UNL     1     -34.985  25.873   5.267  0.00  0.00    +0.074 S 
ATOM      6  O   UNL     1     -36.015  25.890   6.287  0.00  0.00    -0.150 OA
ATOM      7  O   UNL     1     -33.582  26.003   5.604  0.00  0.00    -0.150 OA
ATOM      8  N   UNL     1     -35.404  26.997   4.075  0.00  0.00    -0.208 N 
ATOM      9  C   UNL     1     -35.151  24.374   4.372  0.00  0.00    +0.128 C 
ATOM     10  C   UNL     1     -34.905  24.401   2.995  0.00  0.00    +0.054 C 
ATOM     11  C   UNL     1     -34.803  26.882   2.795  0.00  0.00    +0.152 C 
ATOM     12  C   UNL     1     -34.538  25.658   2.297  0.00  0.00    +0.154 C 
ATOM     13  C   UNL     1     -35.516  23.210   5.051  0.00  0.00    +0.020 C 
ATOM     14  C   UNL     1     -35.026  23.187   2.301  0.00  0.00    +0.004 C 
ATOM     15  C   UNL     1     -35.632  22.022   4.337  0.00  0.00    +0.001 C 
ATOM     16  C   UNL     1     -35.386  22.009   2.966  0.00  0.00    +0.000 C 
ATOM     17  H   UNL     1     -36.050  27.715   4.266  0.00  0.00    +0.174 HD
BRANCH  12  18
ATOM     18  O   UNL     1     -33.953  25.452   1.062  0.00  0.00    -0.504 OA
ATOM     19  H   UNL     1     -33.370  24.729   0.935  0.00  0.00    +0.292 HD
ENDBRANCH  12  18
ENDBRANCH   3  11
BRANCH   2  20
ATOM     20  C   UNL     1     -34.553  30.612   2.570  0.00  0.00    +0.051 C 
ATOM     21  C   UNL     1     -34.281  33.303   1.883  0.00  0.00    +0.000 C 
ATOM     22  C   UNL     1     -33.370  31.292   2.865  0.00  0.00    +0.015 C 
ATOM     23  C   UNL     1     -35.599  31.279   1.931  0.00  0.00    +0.015 C 
ATOM     24  C   UNL     1     -33.234  32.636   2.522  0.00  0.00    +0.001 C 
ATOM     25  C   UNL     1     -35.463  32.624   1.588  0.00  0.00    +0.001 C 
BRANCH  21  28
ATOM     26 CL   UNL     1     -36.428  37.521  -0.114  0.00  0.00    -0.081 Cl
ATOM     27 CL   UNL     1     -33.632  39.053   0.438  0.00  0.00    -0.081 Cl
ATOM     28  C   UNL     1     -34.140  34.698   1.527  0.00  0.00    +0.001 C 
ATOM     29  C   UNL     1     -35.208  35.382   0.946  0.00  0.00    +0.012 C 
ATOM     30  C   UNL     1     -32.934  35.359   1.765  0.00  0.00    +0.001 C 
ATOM     31  C   UNL     1     -35.070  36.728   0.604  0.00  0.00    +0.068 C 
ATOM     32  C   UNL     1     -32.797  36.704   1.422  0.00  0.00    +0.012 C 
ATOM     33  C   UNL     1     -33.865  37.388   0.842  0.00  0.00    +0.068 C 
ENDBRANCH  21  28
ENDBRANCH   2  20
TORSDOF 4
ENDMDL
MODEL 8
REMARK VINA RESULT:      -7.0      8.518     11.538
REMARK  Name = 54728414
REMARK  4 active torsions:
REMARK  status: ('A' for Active; 'I' for Inactive)
REMARK    1  A    between atoms: N_2  and  C_20
REMARK    2  A    between atoms: C_3  and  C_11
REMARK    3  A    between atoms: C_12  and  O_18
REMARK    4  A    between atoms: C_21  and  C_28
REMARK                            x       y       z     vdW  Elec       q    Type
REMARK                         _______ _______ _______ _____ _____    ______ ____
ROOT
ATOM      1  O   UNL     1     -34.338  28.208   0.695  0.00  0.00    -0.268 OA
ATOM      2  N   UNL     1     -35.630  29.235   2.375  0.00  0.00    -0.279 N 
ATOM      3  C   UNL     1     -35.054  28.168   1.696  0.00  0.00    +0.267 C 
ATOM      4  H   UNL     1     -36.176  29.005   3.161  0.00  0.00    +0.155 HD
ENDROOT
BRANCH   3  11
ATOM      5  S   UNL     1     -37.100  24.833   2.105  0.00  0.00    +0.074 S 
ATOM      6  O   UNL     1     -37.239  23.725   1.181  0.00  0.00    -0.150 OA
ATOM      7  O   UNL     1     -38.255  25.532   2.630  0.00  0.00    -0.150 OA
ATOM      8  N   UNL     1     -36.003  25.937   1.442  0.00  0.00    -0.208 N 
ATOM      9  C   UNL     1     -36.187  24.259   3.488  0.00  0.00    +0.128 C 
ATOM     10  C   UNL     1     -35.281  25.140   4.088  0.00  0.00    +0.054 C 
ATOM     11  C   UNL     1     -35.385  26.878   2.305  0.00  0.00    +0.152 C 
ATOM     12  C   UNL     1     -35.072  26.513   3.564  0.00  0.00    +0.154 C 
ATOM     13  C   UNL     1     -36.390  22.956   3.947  0.00  0.00    +0.020 C 
ATOM     14  C   UNL     1     -34.574  24.667   5.205  0.00  0.00    +0.004 C 
ATOM     15  C   UNL     1     -35.672  22.513   5.053  0.00  0.00    +0.001 C 
ATOM     16  C   UNL     1     -34.768  23.365   5.682  0.00  0.00    +0.000 C 
ATOM     17  H   UNL     1     -35.799  25.926   0.479  0.00  0.00    +0.174 HD
BRANCH  12  18
ATOM     18  O   UNL     1     -34.471  27.363   4.473  0.00  0.00    -0.504 OA
ATOM     19  H   UNL     1     -33.537  27.372   4.560  0.00  0.00    +0.292 HD
ENDBRANCH  12  18
ENDBRANCH   3  11
BRANCH   2  20
ATOM     20  C   UNL     1     -35.525  30.613   2.069  0.00  0.00    +0.051 C 
ATOM     21  C   UNL     1     -35.321  33.330   1.468  0.00  0.00    +0.000 C 
ATOM     22  C   UNL     1     -36.617  31.292   1.524  0.00  0.00    +0.015 C 
ATOM     23  C   UNL     1     -34.333  31.294   2.314  0.00  0.00    +0.015 C 
ATOM     24  C   UNL     1     -36.514  32.649   1.224  0.00  0.00    +0.001 C 
ATOM     25  C   UNL     1     -34.231  32.653   2.013  0.00  0.00    +0.001 C 
BRANCH  21  28
ATOM     26 CL   UNL     1     -32.334  37.495   1.117  0.00  0.00    -0.081 Cl
ATOM     27 CL   UNL     1     -34.954  39.139   0.168  0.00  0.00    -0.081 Cl
ATOM     28  C   UNL     1     -35.215  34.739   1.156  0.00  0.00    +0.001 C 
ATOM     29  C   UNL     1     -33.985  35.388   1.264  0.00  0.00    +0.012 C 
ATOM     30  C   UNL     1     -36.345  35.449   0.747  0.00  0.00    +0.001 C 
ATOM     31  C   UNL     1     -33.885  36.746   0.962  0.00  0.00    +0.068 C 
ATOM     32  C   UNL     1     -36.244  36.806   0.446  0.00  0.00    +0.012 C 
ATOM     33  C   UNL     1     -35.014  37.455   0.554  0.00  0.00    +0.068 C 
ENDBRANCH  21  28
ENDBRANCH   2  20
TORSDOF 4
ENDMDL
MODEL 9
REMARK VINA RESULT:      -7.0      2.931      4.606
REMARK  Name = 54728414
REMARK  4 active torsions:
REMARK  status: ('A' for Active; 'I' for Inactive)
REMARK    1  A    between atoms: N_2  and  C_20
REMARK    2  A    between atoms: C_3  and  C_11
REMARK    3  A    between atoms: C_12  and  O_18
REMARK    4  A    between atoms: C_21  and  C_28
REMARK                            x       y       z     vdW  Elec       q    Type
REMARK                         _______ _______ _______ _____ _____    ______ ____
ROOT
ATOM      1  O   UNL     1     -35.269  20.586   3.659  0.00  0.00    -0.268 OA
ATOM      2  N   UNL     1     -35.576  20.545   1.324  0.00  0.00    -0.279 N 
ATOM      3  C   UNL     1     -35.740  21.036   2.614  0.00  0.00    +0.267 C 
ATOM      4  H   UNL     1     -36.034  21.043   0.609  0.00  0.00    +0.155 HD
ENDROOT
BRANCH   3  11
ATOM      5  S   UNL     1     -36.648  24.738   3.586  0.00  0.00    +0.074 S 
ATOM      6  O   UNL     1     -35.998  25.974   3.196  0.00  0.00    -0.150 OA
ATOM      7  O   UNL     1     -36.845  24.391   4.979  0.00  0.00    -0.150 OA
ATOM      8  N   UNL     1     -35.893  23.465   2.770  0.00  0.00    -0.208 N 
ATOM      9  C   UNL     1     -38.232  24.712   2.833  0.00  0.00    +0.128 C 
ATOM     10  C   UNL     1     -38.721  23.484   2.375  0.00  0.00    +0.054 C 
ATOM     11  C   UNL     1     -36.585  22.231   2.650  0.00  0.00    +0.152 C 
ATOM     12  C   UNL     1     -37.923  22.239   2.495  0.00  0.00    +0.154 C 
ATOM     13  C   UNL     1     -38.952  25.902   2.715  0.00  0.00    +0.020 C 
ATOM     14  C   UNL     1     -39.998  23.482   1.791  0.00  0.00    +0.004 C 
ATOM     15  C   UNL     1     -40.212  25.872   2.129  0.00  0.00    +0.001 C 
ATOM     16  C   UNL     1     -40.736  24.666   1.670  0.00  0.00    +0.000 C 
ATOM     17  H   UNL     1     -34.993  23.576   2.387  0.00  0.00    +0.174 HD
BRANCH  12  18
ATOM     18  O   UNL     1     -38.679  21.087   2.372  0.00  0.00    -0.504 OA
ATOM     19  H   UNL     1     -38.282  20.298   2.058  0.00  0.00    +0.292 HD
ENDBRANCH  12  18
ENDBRANCH   3  11
BRANCH   2  20
ATOM     20  C   UNL     1     -34.830  19.413   0.917  0.00  0.00    +0.051 C 
ATOM     21  C   UNL     1     -33.360  17.180   0.118  0.00  0.00    +0.000 C 
ATOM     22  C   UNL     1     -33.582  19.157   1.489  0.00  0.00    +0.015 C 
ATOM     23  C   UNL     1     -35.341  18.551  -0.053  0.00  0.00    +0.015 C 
ATOM     24  C   UNL     1     -32.848  18.042   1.089  0.00  0.00    +0.001 C 
ATOM     25  C   UNL     1     -34.607  17.435  -0.453  0.00  0.00    +0.001 C 
BRANCH  21  28
ATOM     26 CL   UNL     1     -28.825  14.768   0.008  0.00  0.00    -0.081 Cl
ATOM     27 CL   UNL     1     -30.277  12.380  -1.622  0.00  0.00    -0.081 Cl
ATOM     28  C   UNL     1     -32.598  16.022  -0.297  0.00  0.00    +0.001 C 
ATOM     29  C   UNL     1     -31.239  15.935   0.005  0.00  0.00    +0.012 C 
ATOM     30  C   UNL     1     -33.223  14.992  -1.001  0.00  0.00    +0.001 C 
ATOM     31  C   UNL     1     -30.506  14.818  -0.395  0.00  0.00    +0.068 C 
ATOM     32  C   UNL     1     -32.490  13.876  -1.401  0.00  0.00    +0.012 C 
ATOM     33  C   UNL     1     -31.131  13.789  -1.098  0.00  0.00    +0.068 C 
ENDBRANCH  21  28
ENDBRANCH   2  20
TORSDOF 4
ENDMDL
