MODEL 1
REMARK VINA RESULT:      -6.4      0.000      0.000
REMARK  Name = 5320945
REMARK  6 active torsions:
REMARK  status: ('A' for Active; 'I' for Inactive)
REMARK    1  A    between atoms: C_5  and  C_12
REMARK    2  A    between atoms: C_6  and  O_22
REMARK    3  A    between atoms: C_8  and  O_26
REMARK    4  A    between atoms: C_10  and  O_24
REMARK    5  A    between atoms: C_15  and  O_18
REMARK    6  A    between atoms: C_17  and  O_20
REMARK                            x       y       z     vdW  Elec       q    Type
REMARK                         _______ _______ _______ _____ _____    ______ ____
ROOT
ATOM      1  O   UNL     1     -34.920  26.289   3.468  0.00  0.00    -0.450 OA
ATOM      2  O   UNL     1     -38.180  27.306   1.245  0.00  0.00    -0.283 OA
ATOM      3  C   UNL     1     -36.074  27.931   2.103  0.00  0.00    +0.110 A 
ATOM      4  C   UNL     1     -34.990  27.524   2.877  0.00  0.00    +0.155 A 
ATOM      5  C   UNL     1     -35.970  25.404   3.279  0.00  0.00    +0.182 A 
ATOM      6  C   UNL     1     -37.077  25.677   2.565  0.00  0.00    +0.208 A 
ATOM      7  C   UNL     1     -37.198  27.002   1.909  0.00  0.00    +0.238 A 
ATOM      8  C   UNL     1     -36.091  29.203   1.526  0.00  0.00    +0.143 C 
ATOM      9  C   UNL     1     -33.913  28.389   3.079  0.00  0.00    +0.075 C 
ATOM     10  C   UNL     1     -33.926  29.659   2.504  0.00  0.00    +0.145 C 
ATOM     11  C   UNL     1     -35.013  30.066   1.728  0.00  0.00    +0.074 C 
ENDROOT
BRANCH   5  12
ATOM     12  C   UNL     1     -35.768  24.117   3.968  0.00  0.00    +0.041 C 
ATOM     13  C   UNL     1     -35.658  22.939   3.229  0.00  0.00    +0.043 C 
ATOM     14  C   UNL     1     -35.689  24.076   5.360  0.00  0.00    +0.006 C 
ATOM     15  C   UNL     1     -35.470  21.721   3.880  0.00  0.00    +0.172 C 
ATOM     16  C   UNL     1     -35.499  22.857   6.012  0.00  0.00    +0.040 C 
ATOM     17  C   UNL     1     -35.389  21.680   5.273  0.00  0.00    +0.168 C 
BRANCH  15  18
ATOM     18  O   UNL     1     -35.364  20.578   3.147  0.00  0.00    -0.468 OA
ATOM     19  C   UNL     1     -36.214  20.457   2.009  0.00  0.00    +0.253 C 
ENDBRANCH  15  18
BRANCH  17  20
ATOM     20  O   UNL     1     -35.204  20.496   5.921  0.00  0.00    -0.503 OA
ATOM     21  H   UNL     1     -34.735  20.474   6.731  0.00  0.00    +0.292 HD
ENDBRANCH  17  20
ENDBRANCH   5  12
BRANCH   6  22
ATOM     22  O   UNL     1     -38.119  24.786   2.423  0.00  0.00    -0.501 OA
ATOM     23  H   UNL     1     -38.921  25.063   2.027  0.00  0.00    +0.292 HD
ENDBRANCH   6  22
BRANCH  10  24
ATOM     24  O   UNL     1     -32.877  30.504   2.700  0.00  0.00    -0.471 OA
ATOM     25  C   UNL     1     -32.394  30.641   4.035  0.00  0.00    +0.252 C 
ENDBRANCH  10  24
BRANCH   8  26
ATOM     26  O   UNL     1     -37.126  29.649   0.762  0.00  0.00    -0.505 OA
ATOM     27  H   UNL     1     -37.508  29.088   0.115  0.00  0.00    +0.292 HD
ENDBRANCH   8  26
TORSDOF 6
ENDMDL
MODEL 2
REMARK VINA RESULT:      -6.4      2.412      6.693
REMARK  Name = 5320945
REMARK  6 active torsions:
REMARK  status: ('A' for Active; 'I' for Inactive)
REMARK    1  A    between atoms: C_5  and  C_12
REMARK    2  A    between atoms: C_6  and  O_22
REMARK    3  A    between atoms: C_8  and  O_26
REMARK    4  A    between atoms: C_10  and  O_24
REMARK    5  A    between atoms: C_15  and  O_18
REMARK    6  A    between atoms: C_17  and  O_20
REMARK                            x       y       z     vdW  Elec       q    Type
REMARK                         _______ _______ _______ _____ _____    ______ ____
ROOT
ATOM      1  O   UNL     1     -34.950  23.713   3.389  0.00  0.00    -0.450 OA
ATOM      2  O   UNL     1     -38.986  24.266   3.315  0.00  0.00    -0.283 OA
ATOM      3  C   UNL     1     -37.148  22.892   2.771  0.00  0.00    +0.110 A 
ATOM      4  C   UNL     1     -35.762  22.765   2.825  0.00  0.00    +0.155 A 
ATOM      5  C   UNL     1     -35.533  24.845   3.937  0.00  0.00    +0.182 A 
ATOM      6  C   UNL     1     -36.856  25.093   3.940  0.00  0.00    +0.208 A 
ATOM      7  C   UNL     1     -37.774  24.095   3.338  0.00  0.00    +0.238 A 
ATOM      8  C   UNL     1     -37.926  21.892   2.182  0.00  0.00    +0.143 C 
ATOM      9  C   UNL     1     -35.143  21.633   2.290  0.00  0.00    +0.075 C 
ATOM     10  C   UNL     1     -35.917  20.632   1.702  0.00  0.00    +0.145 C 
ATOM     11  C   UNL     1     -37.305  20.761   1.648  0.00  0.00    +0.074 C 
ENDROOT
BRANCH   5  12
ATOM     12  C   UNL     1     -34.550  25.782   4.507  0.00  0.00    +0.041 C 
ATOM     13  C   UNL     1     -33.890  26.691   3.679  0.00  0.00    +0.043 C 
ATOM     14  C   UNL     1     -34.278  25.761   5.875  0.00  0.00    +0.006 C 
ATOM     15  C   UNL     1     -32.958  27.577   4.218  0.00  0.00    +0.172 C 
ATOM     16  C   UNL     1     -33.346  26.648   6.415  0.00  0.00    +0.040 C 
ATOM     17  C   UNL     1     -32.687  27.556   5.587  0.00  0.00    +0.168 C 
BRANCH  15  18
ATOM     18  O   UNL     1     -32.320  28.460   3.400  0.00  0.00    -0.468 OA
ATOM     19  C   UNL     1     -33.055  29.612   2.992  0.00  0.00    +0.253 C 
ENDBRANCH  15  18
BRANCH  17  20
ATOM     20  O   UNL     1     -31.779  28.417   6.126  0.00  0.00    -0.503 OA
ATOM     21  H   UNL     1     -30.864  28.285   5.982  0.00  0.00    +0.292 HD
ENDBRANCH  17  20
ENDBRANCH   5  12
BRANCH   6  22
ATOM     22  O   UNL     1     -37.404  26.244   4.465  0.00  0.00    -0.501 OA
ATOM     23  H   UNL     1     -37.613  26.290   5.376  0.00  0.00    +0.292 HD
ENDBRANCH   6  22
BRANCH  10  24
ATOM     24  O   UNL     1     -35.316  19.529   1.179  0.00  0.00    -0.471 OA
ATOM     25  C   UNL     1     -33.932  19.344   1.470  0.00  0.00    +0.252 C 
ENDBRANCH  10  24
BRANCH   8  26
ATOM     26  O   UNL     1     -39.283  21.968   2.104  0.00  0.00    -0.505 OA
ATOM     27  H   UNL     1     -39.794  22.050   2.885  0.00  0.00    +0.292 HD
ENDBRANCH   8  26
TORSDOF 6
ENDMDL
MODEL 3
REMARK VINA RESULT:      -6.2      2.497      6.947
REMARK  Name = 5320945
REMARK  6 active torsions:
REMARK  status: ('A' for Active; 'I' for Inactive)
REMARK    1  A    between atoms: C_5  and  C_12
REMARK    2  A    between atoms: C_6  and  O_22
REMARK    3  A    between atoms: C_8  and  O_26
REMARK    4  A    between atoms: C_10  and  O_24
REMARK    5  A    between atoms: C_15  and  O_18
REMARK    6  A    between atoms: C_17  and  O_20
REMARK                            x       y       z     vdW  Elec       q    Type
REMARK                         _______ _______ _______ _____ _____    ______ ____
ROOT
ATOM      1  O   UNL     1     -36.456  22.588   2.396  0.00  0.00    -0.450 OA
ATOM      2  O   UNL     1     -40.485  23.100   2.072  0.00  0.00    -0.283 OA
ATOM      3  C   UNL     1     -38.571  21.872   1.447  0.00  0.00    +0.110 A 
ATOM      4  C   UNL     1     -37.191  21.752   1.598  0.00  0.00    +0.155 A 
ATOM      5  C   UNL     1     -37.114  23.591   3.090  0.00  0.00    +0.182 A 
ATOM      6  C   UNL     1     -38.439  23.820   3.023  0.00  0.00    +0.208 A 
ATOM      7  C   UNL     1     -39.275  22.941   2.170  0.00  0.00    +0.238 A 
ATOM      8  C   UNL     1     -39.269  20.989   0.619  0.00  0.00    +0.143 C 
ATOM      9  C   UNL     1     -36.500  20.747   0.920  0.00  0.00    +0.075 C 
ATOM     10  C   UNL     1     -37.194  19.864   0.093  0.00  0.00    +0.145 C 
ATOM     11  C   UNL     1     -38.576  19.985  -0.058  0.00  0.00    +0.074 C 
ENDROOT
BRANCH   5  12
ATOM     12  C   UNL     1     -36.208  24.418   3.906  0.00  0.00    +0.041 C 
ATOM     13  C   UNL     1     -35.907  25.722   3.514  0.00  0.00    +0.043 C 
ATOM     14  C   UNL     1     -35.649  23.895   5.073  0.00  0.00    +0.006 C 
ATOM     15  C   UNL     1     -35.049  26.504   4.286  0.00  0.00    +0.172 C 
ATOM     16  C   UNL     1     -34.790  24.677   5.846  0.00  0.00    +0.040 C 
ATOM     17  C   UNL     1     -34.490  25.981   5.453  0.00  0.00    +0.168 C 
BRANCH  15  18
ATOM     18  O   UNL     1     -34.763  27.776   3.892  0.00  0.00    -0.468 OA
ATOM     19  C   UNL     1     -35.015  28.103   2.527  0.00  0.00    +0.253 C 
ENDBRANCH  15  18
BRANCH  17  20
ATOM     20  O   UNL     1     -33.651  26.735   6.216  0.00  0.00    -0.503 OA
ATOM     21  H   UNL     1     -33.117  26.327   6.868  0.00  0.00    +0.292 HD
ENDBRANCH  17  20
ENDBRANCH   5  12
BRANCH   6  22
ATOM     22  O   UNL     1     -39.059  24.847   3.700  0.00  0.00    -0.501 OA
ATOM     23  H   UNL     1     -39.502  25.522   3.225  0.00  0.00    +0.292 HD
ENDBRANCH   6  22
BRANCH  10  24
ATOM     24  O   UNL     1     -36.521  18.883  -0.570  0.00  0.00    -0.471 OA
ATOM     25  C   UNL     1     -35.148  18.696  -0.233  0.00  0.00    +0.252 C 
ENDBRANCH  10  24
BRANCH   8  26
ATOM     26  O   UNL     1     -40.617  21.064   0.437  0.00  0.00    -0.505 OA
ATOM     27  H   UNL     1     -41.198  20.783   1.117  0.00  0.00    +0.292 HD
ENDBRANCH   8  26
TORSDOF 6
ENDMDL
MODEL 4
REMARK VINA RESULT:      -6.2      2.362      7.339
REMARK  Name = 5320945
REMARK  6 active torsions:
REMARK  status: ('A' for Active; 'I' for Inactive)
REMARK    1  A    between atoms: C_5  and  C_12
REMARK    2  A    between atoms: C_6  and  O_22
REMARK    3  A    between atoms: C_8  and  O_26
REMARK    4  A    between atoms: C_10  and  O_24
REMARK    5  A    between atoms: C_15  and  O_18
REMARK    6  A    between atoms: C_17  and  O_20
REMARK                            x       y       z     vdW  Elec       q    Type
REMARK                         _______ _______ _______ _____ _____    ______ ____
ROOT
ATOM      1  O   UNL     1     -35.166  21.720   2.421  0.00  0.00    -0.450 OA
ATOM      2  O   UNL     1     -39.109  21.368   1.456  0.00  0.00    -0.283 OA
ATOM      3  C   UNL     1     -36.917  20.523   1.243  0.00  0.00    +0.110 A 
ATOM      4  C   UNL     1     -35.585  20.700   1.607  0.00  0.00    +0.155 A 
ATOM      5  C   UNL     1     -36.110  22.609   2.909  0.00  0.00    +0.182 A 
ATOM      6  C   UNL     1     -37.425  22.555   2.625  0.00  0.00    +0.208 A 
ATOM      7  C   UNL     1     -37.924  21.469   1.746  0.00  0.00    +0.238 A 
ATOM      8  C   UNL     1     -37.286  19.463   0.410  0.00  0.00    +0.143 C 
ATOM      9  C   UNL     1     -34.610  19.817   1.139  0.00  0.00    +0.075 C 
ATOM     10  C   UNL     1     -34.975  18.758   0.308  0.00  0.00    +0.145 C 
ATOM     11  C   UNL     1     -36.310  18.582  -0.056  0.00  0.00    +0.074 C 
ENDROOT
BRANCH   5  12
ATOM     12  C   UNL     1     -35.528  23.655   3.767  0.00  0.00    +0.041 C 
ATOM     13  C   UNL     1     -34.978  24.802   3.194  0.00  0.00    +0.043 C 
ATOM     14  C   UNL     1     -35.525  23.499   5.153  0.00  0.00    +0.006 C 
ATOM     15  C   UNL     1     -34.425  25.792   4.006  0.00  0.00    +0.172 C 
ATOM     16  C   UNL     1     -34.973  24.490   5.966  0.00  0.00    +0.040 C 
ATOM     17  C   UNL     1     -34.423  25.636   5.392  0.00  0.00    +0.168 C 
BRANCH  15  18
ATOM     18  O   UNL     1     -33.891  26.908   3.434  0.00  0.00    -0.468 OA
ATOM     19  C   UNL     1     -34.804  27.905   2.982  0.00  0.00    +0.253 C 
ENDBRANCH  15  18
BRANCH  17  20
ATOM     20  O   UNL     1     -33.887  26.596   6.196  0.00  0.00    -0.503 OA
ATOM     21  H   UNL     1     -33.925  27.496   5.941  0.00  0.00    +0.292 HD
ENDBRANCH  17  20
ENDBRANCH   5  12
BRANCH   6  22
ATOM     22  O   UNL     1     -38.335  23.474   3.100  0.00  0.00    -0.501 OA
ATOM     23  H   UNL     1     -38.153  24.390   3.037  0.00  0.00    +0.292 HD
ENDBRANCH   6  22
BRANCH  10  24
ATOM     24  O   UNL     1     -34.026  17.896  -0.150  0.00  0.00    -0.471 OA
ATOM     25  C   UNL     1     -32.924  17.625   0.715  0.00  0.00    +0.252 C 
ENDBRANCH  10  24
BRANCH   8  26
ATOM     26  O   UNL     1     -38.574  19.247   0.024  0.00  0.00    -0.505 OA
ATOM     27  H   UNL     1     -38.971  19.801  -0.618  0.00  0.00    +0.292 HD
ENDBRANCH   8  26
TORSDOF 6
ENDMDL
MODEL 5
REMARK VINA RESULT:      -6.1      3.909      8.926
REMARK  Name = 5320945
REMARK  6 active torsions:
REMARK  status: ('A' for Active; 'I' for Inactive)
REMARK    1  A    between atoms: C_5  and  C_12
REMARK    2  A    between atoms: C_6  and  O_22
REMARK    3  A    between atoms: C_8  and  O_26
REMARK    4  A    between atoms: C_10  and  O_24
REMARK    5  A    between atoms: C_15  and  O_18
REMARK    6  A    between atoms: C_17  and  O_20
REMARK                            x       y       z     vdW  Elec       q    Type
REMARK                         _______ _______ _______ _____ _____    ______ ____
ROOT
ATOM      1  O   UNL     1     -33.718  19.679   1.536  0.00  0.00    -0.450 OA
ATOM      2  O   UNL     1     -36.605  17.589  -0.438  0.00  0.00    -0.283 OA
ATOM      3  C   UNL     1     -34.352  17.725   0.246  0.00  0.00    +0.110 A 
ATOM      4  C   UNL     1     -33.411  18.488   0.932  0.00  0.00    +0.155 A 
ATOM      5  C   UNL     1     -35.023  20.140   1.467  0.00  0.00    +0.182 A 
ATOM      6  C   UNL     1     -36.022  19.505   0.827  0.00  0.00    +0.208 A 
ATOM      7  C   UNL     1     -35.736  18.213   0.157  0.00  0.00    +0.238 A 
ATOM      8  C   UNL     1     -33.981  16.516  -0.351  0.00  0.00    +0.143 C 
ATOM      9  C   UNL     1     -32.090  18.047   1.027  0.00  0.00    +0.075 C 
ATOM     10  C   UNL     1     -31.716  16.842   0.433  0.00  0.00    +0.145 C 
ATOM     11  C   UNL     1     -32.660  16.078  -0.255  0.00  0.00    +0.074 C 
ENDROOT
BRANCH   5  12
ATOM     12  C   UNL     1     -35.215  21.429   2.154  0.00  0.00    +0.041 C 
ATOM     13  C   UNL     1     -35.632  21.457   3.485  0.00  0.00    +0.043 C 
ATOM     14  C   UNL     1     -34.982  22.624   1.473  0.00  0.00    +0.006 C 
ATOM     15  C   UNL     1     -35.816  22.677   4.135  0.00  0.00    +0.172 C 
ATOM     16  C   UNL     1     -35.164  23.845   2.122  0.00  0.00    +0.040 C 
ATOM     17  C   UNL     1     -35.581  23.872   3.453  0.00  0.00    +0.168 C 
BRANCH  15  18
ATOM     18  O   UNL     1     -36.223  22.690   5.434  0.00  0.00    -0.468 OA
ATOM     19  C   UNL     1     -35.329  22.139   6.399  0.00  0.00    +0.253 C 
ENDBRANCH  15  18
BRANCH  17  20
ATOM     20  O   UNL     1     -35.756  25.070   4.077  0.00  0.00    -0.503 OA
ATOM     21  H   UNL     1     -35.305  25.252   4.877  0.00  0.00    +0.292 HD
ENDBRANCH  17  20
ENDBRANCH   5  12
BRANCH   6  22
ATOM     22  O   UNL     1     -37.304  20.006   0.749  0.00  0.00    -0.501 OA
ATOM     23  H   UNL     1     -37.609  20.390  -0.048  0.00  0.00    +0.292 HD
ENDBRANCH   6  22
BRANCH  10  24
ATOM     24  O   UNL     1     -30.428  16.410   0.524  0.00  0.00    -0.471 OA
ATOM     25  C   UNL     1     -29.450  17.368   0.923  0.00  0.00    +0.252 C 
ENDBRANCH  10  24
BRANCH   8  26
ATOM     26  O   UNL     1     -34.862  15.734  -1.033  0.00  0.00    -0.505 OA
ATOM     27  H   UNL     1     -35.395  16.106  -1.709  0.00  0.00    +0.292 HD
ENDBRANCH   8  26
TORSDOF 6
ENDMDL
MODEL 6
REMARK VINA RESULT:      -6.1      2.981      7.050
REMARK  Name = 5320945
REMARK  6 active torsions:
REMARK  status: ('A' for Active; 'I' for Inactive)
REMARK    1  A    between atoms: C_5  and  C_12
REMARK    2  A    between atoms: C_6  and  O_22
REMARK    3  A    between atoms: C_8  and  O_26
REMARK    4  A    between atoms: C_10  and  O_24
REMARK    5  A    between atoms: C_15  and  O_18
REMARK    6  A    between atoms: C_17  and  O_20
REMARK                            x       y       z     vdW  Elec       q    Type
REMARK                         _______ _______ _______ _____ _____    ______ ____
ROOT
ATOM      1  O   UNL     1     -33.283  26.561   5.305  0.00  0.00    -0.450 OA
ATOM      2  O   UNL     1     -35.461  28.146   2.247  0.00  0.00    -0.283 OA
ATOM      3  C   UNL     1     -35.197  26.409   3.822  0.00  0.00    +0.110 A 
ATOM      4  C   UNL     1     -34.408  25.919   4.859  0.00  0.00    +0.155 A 
ATOM      5  C   UNL     1     -32.919  27.755   4.702  0.00  0.00    +0.182 A 
ATOM      6  C   UNL     1     -33.588  28.330   3.686  0.00  0.00    +0.208 A 
ATOM      7  C   UNL     1     -34.811  27.669   3.169  0.00  0.00    +0.238 A 
ATOM      8  C   UNL     1     -36.335  25.710   3.409  0.00  0.00    +0.143 C 
ATOM      9  C   UNL     1     -34.752  24.724   5.493  0.00  0.00    +0.075 C 
ATOM     10  C   UNL     1     -35.887  24.024   5.084  0.00  0.00    +0.145 C 
ATOM     11  C   UNL     1     -36.677  24.516   4.044  0.00  0.00    +0.074 C 
ENDROOT
BRANCH   5  12
ATOM     12  C   UNL     1     -31.693  28.339   5.274  0.00  0.00    +0.041 C 
ATOM     13  C   UNL     1     -30.463  28.131   4.648  0.00  0.00    +0.043 C 
ATOM     14  C   UNL     1     -31.760  29.099   6.442  0.00  0.00    +0.006 C 
ATOM     15  C   UNL     1     -29.302  28.682   5.190  0.00  0.00    +0.172 C 
ATOM     16  C   UNL     1     -30.599  29.651   6.983  0.00  0.00    +0.040 C 
ATOM     17  C   UNL     1     -29.370  29.443   6.358  0.00  0.00    +0.168 C 
BRANCH  15  18
ATOM     18  O   UNL     1     -28.107  28.472   4.570  0.00  0.00    -0.468 OA
ATOM     19  C   UNL     1     -27.485  27.206   4.775  0.00  0.00    +0.253 C 
ENDBRANCH  15  18
BRANCH  17  20
ATOM     20  O   UNL     1     -28.244  29.987   6.896  0.00  0.00    -0.503 OA
ATOM     21  H   UNL     1     -27.528  29.436   7.141  0.00  0.00    +0.292 HD
ENDBRANCH  17  20
ENDBRANCH   5  12
BRANCH   6  22
ATOM     22  O   UNL     1     -33.181  29.502   3.086  0.00  0.00    -0.501 OA
ATOM     23  H   UNL     1     -33.479  30.326   3.417  0.00  0.00    +0.292 HD
ENDBRANCH   6  22
BRANCH  10  24
ATOM     24  O   UNL     1     -36.224  22.857   5.700  0.00  0.00    -0.471 OA
ATOM     25  C   UNL     1     -35.175  22.137   6.344  0.00  0.00    +0.252 C 
ENDBRANCH  10  24
BRANCH   8  26
ATOM     26  O   UNL     1     -37.138  26.146   2.400  0.00  0.00    -0.505 OA
ATOM     27  H   UNL     1     -37.096  27.039   2.119  0.00  0.00    +0.292 HD
ENDBRANCH   8  26
TORSDOF 6
ENDMDL
MODEL 7
REMARK VINA RESULT:      -5.9      4.222      7.418
REMARK  Name = 5320945
REMARK  6 active torsions:
REMARK  status: ('A' for Active; 'I' for Inactive)
REMARK    1  A    between atoms: C_5  and  C_12
REMARK    2  A    between atoms: C_6  and  O_22
REMARK    3  A    between atoms: C_8  and  O_26
REMARK    4  A    between atoms: C_10  and  O_24
REMARK    5  A    between atoms: C_15  and  O_18
REMARK    6  A    between atoms: C_17  and  O_20
REMARK                            x       y       z     vdW  Elec       q    Type
REMARK                         _______ _______ _______ _____ _____    ______ ____
ROOT
ATOM      1  O   UNL     1     -34.595  20.834   1.689  0.00  0.00    -0.450 OA
ATOM      2  O   UNL     1     -37.764  19.006  -0.104  0.00  0.00    -0.283 OA
ATOM      3  C   UNL     1     -36.990  20.719   1.321  0.00  0.00    +0.110 A 
ATOM      4  C   UNL     1     -35.866  21.297   1.905  0.00  0.00    +0.155 A 
ATOM      5  C   UNL     1     -34.419  19.749   0.845  0.00  0.00    +0.182 A 
ATOM      6  C   UNL     1     -35.420  19.095   0.227  0.00  0.00    +0.208 A 
ATOM      7  C   UNL     1     -36.814  19.560   0.434  0.00  0.00    +0.238 A 
ATOM      8  C   UNL     1     -38.264  21.234   1.578  0.00  0.00    +0.143 C 
ATOM      9  C   UNL     1     -36.008  22.396   2.754  0.00  0.00    +0.075 C 
ATOM     10  C   UNL     1     -37.277  22.913   3.013  0.00  0.00    +0.145 C 
ATOM     11  C   UNL     1     -38.403  22.333   2.426  0.00  0.00    +0.074 C 
ENDROOT
BRANCH   5  12
ATOM     12  C   UNL     1     -33.007  19.354   0.701  0.00  0.00    +0.041 C 
ATOM     13  C   UNL     1     -32.119  20.175   0.007  0.00  0.00    +0.043 C 
ATOM     14  C   UNL     1     -32.558  18.156   1.258  0.00  0.00    +0.006 C 
ATOM     15  C   UNL     1     -30.783  19.801  -0.131  0.00  0.00    +0.172 C 
ATOM     16  C   UNL     1     -31.221  17.781   1.122  0.00  0.00    +0.040 C 
ATOM     17  C   UNL     1     -30.334  18.603   0.427  0.00  0.00    +0.168 C 
BRANCH  15  18
ATOM     18  O   UNL     1     -29.925  20.611  -0.811  0.00  0.00    -0.468 OA
ATOM     19  C   UNL     1     -30.489  21.744  -1.469  0.00  0.00    +0.253 C 
ENDBRANCH  15  18
BRANCH  17  20
ATOM     20  O   UNL     1     -29.031  18.226   0.301  0.00  0.00    -0.503 OA
ATOM     21  H   UNL     1     -28.447  18.306   1.028  0.00  0.00    +0.292 HD
ENDBRANCH  17  20
ENDBRANCH   5  12
BRANCH   6  22
ATOM     22  O   UNL     1     -35.216  17.998  -0.582  0.00  0.00    -0.501 OA
ATOM     23  H   UNL     1     -35.254  18.089  -1.513  0.00  0.00    +0.292 HD
ENDBRANCH   6  22
BRANCH  10  24
ATOM     24  O   UNL     1     -37.418  23.985   3.841  0.00  0.00    -0.471 OA
ATOM     25  C   UNL     1     -36.277  24.369   4.605  0.00  0.00    +0.252 C 
ENDBRANCH  10  24
BRANCH   8  26
ATOM     26  O   UNL     1     -39.394  20.706   1.033  0.00  0.00    -0.505 OA
ATOM     27  H   UNL     1     -40.196  21.190   1.054  0.00  0.00    +0.292 HD
ENDBRANCH   8  26
TORSDOF 6
ENDMDL
MODEL 8
REMARK VINA RESULT:      -5.9      1.324      1.730
REMARK  Name = 5320945
REMARK  6 active torsions:
REMARK  status: ('A' for Active; 'I' for Inactive)
REMARK    1  A    between atoms: C_5  and  C_12
REMARK    2  A    between atoms: C_6  and  O_22
REMARK    3  A    between atoms: C_8  and  O_26
REMARK    4  A    between atoms: C_10  and  O_24
REMARK    5  A    between atoms: C_15  and  O_18
REMARK    6  A    between atoms: C_17  and  O_20
REMARK                            x       y       z     vdW  Elec       q    Type
REMARK                         _______ _______ _______ _____ _____    ______ ____
ROOT
ATOM      1  O   UNL     1     -33.699  26.386   4.177  0.00  0.00    -0.450 OA
ATOM      2  O   UNL     1     -36.303  28.319   1.709  0.00  0.00    -0.283 OA
ATOM      3  C   UNL     1     -34.271  28.372   2.905  0.00  0.00    +0.110 A 
ATOM      4  C   UNL     1     -33.424  27.659   3.750  0.00  0.00    +0.155 A 
ATOM      5  C   UNL     1     -34.866  25.779   3.741  0.00  0.00    +0.182 A 
ATOM      6  C   UNL     1     -35.771  26.361   2.932  0.00  0.00    +0.208 A 
ATOM      7  C   UNL     1     -35.517  27.740   2.448  0.00  0.00    +0.238 A 
ATOM      8  C   UNL     1     -33.938  29.669   2.503  0.00  0.00    +0.143 C 
ATOM      9  C   UNL     1     -32.237  28.239   4.201  0.00  0.00    +0.075 C 
ATOM     10  C   UNL     1     -31.902  29.533   3.801  0.00  0.00    +0.145 C 
ATOM     11  C   UNL     1     -32.751  30.246   2.954  0.00  0.00    +0.074 C 
ENDROOT
BRANCH   5  12
ATOM     12  C   UNL     1     -35.040  24.416   4.273  0.00  0.00    +0.041 C 
ATOM     13  C   UNL     1     -35.175  23.337   3.400  0.00  0.00    +0.043 C 
ATOM     14  C   UNL     1     -35.072  24.205   5.652  0.00  0.00    +0.006 C 
ATOM     15  C   UNL     1     -35.342  22.047   3.904  0.00  0.00    +0.172 C 
ATOM     16  C   UNL     1     -35.237  22.915   6.156  0.00  0.00    +0.040 C 
ATOM     17  C   UNL     1     -35.372  21.836   5.283  0.00  0.00    +0.168 C 
BRANCH  15  18
ATOM     18  O   UNL     1     -35.472  21.002   3.040  0.00  0.00    -0.468 OA
ATOM     19  C   UNL     1     -35.074  21.223   1.689  0.00  0.00    +0.253 C 
ENDBRANCH  15  18
BRANCH  17  20
ATOM     20  O   UNL     1     -35.533  20.581   5.787  0.00  0.00    -0.503 OA
ATOM     21  H   UNL     1     -34.784  20.062   6.002  0.00  0.00    +0.292 HD
ENDBRANCH  17  20
ENDBRANCH   5  12
BRANCH   6  22
ATOM     22  O   UNL     1     -36.939  25.742   2.542  0.00  0.00    -0.501 OA
ATOM     23  H   UNL     1     -37.258  25.001   3.017  0.00  0.00    +0.292 HD
ENDBRANCH   6  22
BRANCH  10  24
ATOM     24  O   UNL     1     -30.745  30.101   4.240  0.00  0.00    -0.471 OA
ATOM     25  C   UNL     1     -30.381  29.866   5.599  0.00  0.00    +0.252 C 
ENDBRANCH  10  24
BRANCH   8  26
ATOM     26  O   UNL     1     -34.730  30.407   1.678  0.00  0.00    -0.505 OA
ATOM     27  H   UNL     1     -35.614  30.600   1.925  0.00  0.00    +0.292 HD
ENDBRANCH   8  26
TORSDOF 6
ENDMDL
MODEL 9
REMARK VINA RESULT:      -5.9      3.009      7.993
REMARK  Name = 5320945
REMARK  6 active torsions:
REMARK  status: ('A' for Active; 'I' for Inactive)
REMARK    1  A    between atoms: C_5  and  C_12
REMARK    2  A    between atoms: C_6  and  O_22
REMARK    3  A    between atoms: C_8  and  O_26
REMARK    4  A    between atoms: C_10  and  O_24
REMARK    5  A    between atoms: C_15  and  O_18
REMARK    6  A    between atoms: C_17  and  O_20
REMARK                            x       y       z     vdW  Elec       q    Type
REMARK                         _______ _______ _______ _____ _____    ______ ____
ROOT
ATOM      1  O   UNL     1     -34.553  20.562   2.328  0.00  0.00    -0.450 OA
ATOM      2  O   UNL     1     -37.665  19.421  -0.042  0.00  0.00    -0.283 OA
ATOM      3  C   UNL     1     -35.452  19.031   0.674  0.00  0.00    +0.110 A 
ATOM      4  C   UNL     1     -34.426  19.474   1.505  0.00  0.00    +0.155 A 
ATOM      5  C   UNL     1     -35.758  21.246   2.340  0.00  0.00    +0.182 A 
ATOM      6  C   UNL     1     -36.822  20.928   1.579  0.00  0.00    +0.208 A 
ATOM      7  C   UNL     1     -36.729  19.759   0.671  0.00  0.00    +0.238 A 
ATOM      8  C   UNL     1     -35.264  17.914  -0.145  0.00  0.00    +0.143 C 
ATOM      9  C   UNL     1     -33.202  18.802   1.523  0.00  0.00    +0.075 C 
ATOM     10  C   UNL     1     -33.012  17.686   0.707  0.00  0.00    +0.145 C 
ATOM     11  C   UNL     1     -34.041  17.244  -0.125  0.00  0.00    +0.074 C 
ENDROOT
BRANCH   5  12
ATOM     12  C   UNL     1     -35.760  22.393   3.265  0.00  0.00    +0.041 C 
ATOM     13  C   UNL     1     -35.949  23.686   2.774  0.00  0.00    +0.043 C 
ATOM     14  C   UNL     1     -35.573  22.188   4.631  0.00  0.00    +0.006 C 
ATOM     15  C   UNL     1     -35.950  24.772   3.649  0.00  0.00    +0.172 C 
ATOM     16  C   UNL     1     -35.575  23.274   5.507  0.00  0.00    +0.040 C 
ATOM     17  C   UNL     1     -35.763  24.565   5.017  0.00  0.00    +0.168 C 
BRANCH  15  18
ATOM     18  O   UNL     1     -36.134  26.029   3.158  0.00  0.00    -0.468 OA
ATOM     19  C   UNL     1     -37.351  26.278   2.457  0.00  0.00    +0.253 C 
ENDBRANCH  15  18
BRANCH  17  20
ATOM     20  O   UNL     1     -35.763  25.618   5.881  0.00  0.00    -0.503 OA
ATOM     21  H   UNL     1     -35.915  26.485   5.564  0.00  0.00    +0.292 HD
ENDBRANCH  17  20
ENDBRANCH   5  12
BRANCH   6  22
ATOM     22  O   UNL     1     -37.997  21.649   1.590  0.00  0.00    -0.501 OA
ATOM     23  H   UNL     1     -38.606  21.563   0.884  0.00  0.00    +0.292 HD
ENDBRANCH   6  22
BRANCH  10  24
ATOM     24  O   UNL     1     -31.820  17.030   0.722  0.00  0.00    -0.471 OA
ATOM     25  C   UNL     1     -30.641  17.820   0.579  0.00  0.00    +0.252 C 
ENDBRANCH  10  24
BRANCH   8  26
ATOM     26  O   UNL     1     -36.234  17.441  -0.975  0.00  0.00    -0.505 OA
ATOM     27  H   UNL     1     -36.462  16.532  -0.961  0.00  0.00    +0.292 HD
ENDBRANCH   8  26
TORSDOF 6
ENDMDL
