MODEL 1
REMARK VINA RESULT:      -6.7      0.000      0.000
REMARK  Name = 5320270
REMARK  8 active torsions:
REMARK  status: ('A' for Active; 'I' for Inactive)
REMARK    1  A    between atoms: C_2  and  O_10
REMARK    2  A    between atoms: C_3  and  O_8
REMARK    3  A    between atoms: C_6  and  O_22
REMARK    4  A    between atoms: O_10  and  C_12
REMARK    5  A    between atoms: C_14  and  O_18
REMARK    6  A    between atoms: C_15  and  O_20
REMARK    7  A    between atoms: O_22  and  C_24
REMARK    8  A    between atoms: C_26  and  O_30
REMARK                            x       y       z     vdW  Elec       q    Type
REMARK                         _______ _______ _______ _____ _____    ______ ____
ROOT
ATOM      1  O   UNL     1     -33.731  24.916   5.018  0.00  0.00    -0.330 OA
ATOM      2  C   UNL     1     -35.804  24.237   3.951  0.00  0.00    +0.172 C 
ATOM      3  C   UNL     1     -36.071  25.682   3.522  0.00  0.00    +0.145 C 
ATOM      4  C   UNL     1     -34.952  24.193   5.227  0.00  0.00    +0.147 C 
ATOM      5  C   UNL     1     -34.754  26.447   3.435  0.00  0.00    +0.093 C 
ATOM      6  C   UNL     1     -33.947  26.297   4.726  0.00  0.00    +0.238 C 
ATOM      7  C   UNL     1     -34.571  22.769   5.619  0.00  0.00    +0.035 C 
ENDROOT
BRANCH   3   8
ATOM      8  O   UNL     1     -36.916  26.312   4.485  0.00  0.00    -0.382 OA
ATOM      9  H   UNL     1     -37.820  25.969   4.398  0.00  0.00    +0.210 HD
ENDBRANCH   3   8
BRANCH   2  10
ATOM     10  O   UNL     1     -37.048  23.572   4.134  0.00  0.00    -0.328 OA
BRANCH  10  12
ATOM     11  O   UNL     1     -39.055  24.486   3.346  0.00  0.00    -0.330 OA
ATOM     12  C   UNL     1     -37.896  23.727   3.002  0.00  0.00    +0.238 C 
ATOM     13  C   UNL     1     -38.308  22.337   2.530  0.00  0.00    +0.093 C 
ATOM     14  C   UNL     1     -39.276  22.422   1.356  0.00  0.00    +0.149 C 
ATOM     15  C   UNL     1     -40.437  23.363   1.685  0.00  0.00    +0.165 C 
ATOM     16  C   UNL     1     -39.919  24.701   2.227  0.00  0.00    +0.147 C 
ATOM     17  C   UNL     1     -41.063  25.598   2.693  0.00  0.00    +0.035 C 
BRANCH  14  18
ATOM     18  O   UNL     1     -39.796  21.125   1.075  0.00  0.00    -0.351 OA
ATOM     19  C   UNL     1     -39.208  20.574  -0.093  0.00  0.00    +0.174 C 
ENDBRANCH  14  18
BRANCH  15  20
ATOM     20  O   UNL     1     -41.219  23.577   0.512  0.00  0.00    -0.380 OA
ATOM     21  H   UNL     1     -40.791  23.147  -0.244  0.00  0.00    +0.211 HD
ENDBRANCH  15  20
ENDBRANCH  10  12
ENDBRANCH   2  10
BRANCH   6  22
ATOM     22  O   UNL     1     -32.701  26.963   4.542  0.00  0.00    -0.326 OA
BRANCH  22  24
ATOM     23  O   UNL     1     -32.392  30.659   4.764  0.00  0.00    -0.474 OA
ATOM     24  C   UNL     1     -32.705  28.246   5.152  0.00  0.00    +0.189 C 
ATOM     25  C   UNL     1     -32.387  29.360   4.141  0.00  0.00    +0.196 C 
ATOM     26  C   UNL     1     -31.676  28.264   6.290  0.00  0.00    +0.171 C 
ATOM     27  C   UNL     1     -31.436  29.667   6.745  0.00  0.00    +0.045 C 
ATOM     28  C   UNL     1     -33.396  29.412   2.997  0.00  0.00    +0.050 C 
ATOM     29  C   UNL     1     -31.812  30.715   6.003  0.00  0.00    +0.170 C 
BRANCH  26  30
ATOM     30  O   UNL     1     -30.425  27.736   5.856  0.00  0.00    -0.346 OA
ATOM     31  C   UNL     1     -29.359  28.189   6.677  0.00  0.00    +0.175 C 
ENDBRANCH  26  30
ENDBRANCH  22  24
ENDBRANCH   6  22
TORSDOF 8
ENDMDL
MODEL 2
REMARK VINA RESULT:      -6.6      2.825      4.389
REMARK  Name = 5320270
REMARK  8 active torsions:
REMARK  status: ('A' for Active; 'I' for Inactive)
REMARK    1  A    between atoms: C_2  and  O_10
REMARK    2  A    between atoms: C_3  and  O_8
REMARK    3  A    between atoms: C_6  and  O_22
REMARK    4  A    between atoms: O_10  and  C_12
REMARK    5  A    between atoms: C_14  and  O_18
REMARK    6  A    between atoms: C_15  and  O_20
REMARK    7  A    between atoms: O_22  and  C_24
REMARK    8  A    between atoms: C_26  and  O_30
REMARK                            x       y       z     vdW  Elec       q    Type
REMARK                         _______ _______ _______ _____ _____    ______ ____
ROOT
ATOM      1  O   UNL     1     -35.093  24.611   5.388  0.00  0.00    -0.330 OA
ATOM      2  C   UNL     1     -35.866  23.081   3.669  0.00  0.00    +0.172 C 
ATOM      3  C   UNL     1     -36.657  24.209   3.002  0.00  0.00    +0.145 C 
ATOM      4  C   UNL     1     -35.712  23.336   5.175  0.00  0.00    +0.147 C 
ATOM      5  C   UNL     1     -36.037  25.556   3.360  0.00  0.00    +0.093 C 
ATOM      6  C   UNL     1     -35.866  25.696   4.874  0.00  0.00    +0.238 C 
ATOM      7  C   UNL     1     -34.832  22.290   5.851  0.00  0.00    +0.035 C 
ENDROOT
BRANCH   3   8
ATOM      8  O   UNL     1     -38.008  24.178   3.465  0.00  0.00    -0.382 OA
ATOM      9  H   UNL     1     -38.360  23.278   3.377  0.00  0.00    +0.210 HD
ENDBRANCH   3   8
BRANCH   2  10
ATOM     10  O   UNL     1     -36.523  21.845   3.416  0.00  0.00    -0.328 OA
BRANCH  10  12
ATOM     11  O   UNL     1     -37.279  20.625   1.566  0.00  0.00    -0.330 OA
ATOM     12  C   UNL     1     -36.171  21.315   2.142  0.00  0.00    +0.238 C 
ATOM     13  C   UNL     1     -35.006  20.352   2.341  0.00  0.00    +0.093 C 
ATOM     14  C   UNL     1     -34.614  19.690   1.025  0.00  0.00    +0.149 C 
ATOM     15  C   UNL     1     -35.842  19.086   0.341  0.00  0.00    +0.165 C 
ATOM     16  C   UNL     1     -36.983  20.110   0.264  0.00  0.00    +0.147 C 
ATOM     17  C   UNL     1     -38.262  19.484  -0.285  0.00  0.00    +0.035 C 
BRANCH  14  18
ATOM     18  O   UNL     1     -33.669  18.654   1.279  0.00  0.00    -0.351 OA
ATOM     19  C   UNL     1     -32.367  19.026   0.854  0.00  0.00    +0.174 C 
ENDBRANCH  14  18
BRANCH  15  20
ATOM     20  O   UNL     1     -35.487  18.648  -0.968  0.00  0.00    -0.380 OA
ATOM     21  H   UNL     1     -35.572  19.388  -1.590  0.00  0.00    +0.211 HD
ENDBRANCH  15  20
ENDBRANCH  10  12
ENDBRANCH   2  10
BRANCH   6  22
ATOM     22  O   UNL     1     -35.209  26.934   5.127  0.00  0.00    -0.326 OA
BRANCH  22  24
ATOM     23  O   UNL     1     -31.557  27.612   5.017  0.00  0.00    -0.474 OA
ATOM     24  C   UNL     1     -33.890  26.939   4.599  0.00  0.00    +0.189 C 
ATOM     25  C   UNL     1     -32.893  27.610   5.557  0.00  0.00    +0.196 C 
ATOM     26  C   UNL     1     -33.893  27.671   3.251  0.00  0.00    +0.171 C 
ATOM     27  C   UNL     1     -32.492  27.961   2.820  0.00  0.00    +0.045 C 
ATOM     28  C   UNL     1     -32.824  26.906   6.910  0.00  0.00    +0.050 C 
ATOM     29  C   UNL     1     -31.469  27.892   3.679  0.00  0.00    +0.170 C 
BRANCH  26  30
ATOM     30  O   UNL     1     -34.576  28.919   3.348  0.00  0.00    -0.346 OA
ATOM     31  C   UNL     1     -35.363  29.170   2.194  0.00  0.00    +0.175 C 
ENDBRANCH  26  30
ENDBRANCH  22  24
ENDBRANCH   6  22
TORSDOF 8
ENDMDL
MODEL 3
REMARK VINA RESULT:      -6.6      2.351      4.574
REMARK  Name = 5320270
REMARK  8 active torsions:
REMARK  status: ('A' for Active; 'I' for Inactive)
REMARK    1  A    between atoms: C_2  and  O_10
REMARK    2  A    between atoms: C_3  and  O_8
REMARK    3  A    between atoms: C_6  and  O_22
REMARK    4  A    between atoms: O_10  and  C_12
REMARK    5  A    between atoms: C_14  and  O_18
REMARK    6  A    between atoms: C_15  and  O_20
REMARK    7  A    between atoms: O_22  and  C_24
REMARK    8  A    between atoms: C_26  and  O_30
REMARK                            x       y       z     vdW  Elec       q    Type
REMARK                         _______ _______ _______ _____ _____    ______ ____
ROOT
ATOM      1  O   UNL     1     -31.067  27.874   5.900  0.00  0.00    -0.330 OA
ATOM      2  C   UNL     1     -33.018  27.201   4.622  0.00  0.00    +0.172 C 
ATOM      3  C   UNL     1     -32.527  28.015   3.421  0.00  0.00    +0.145 C 
ATOM      4  C   UNL     1     -32.498  27.799   5.937  0.00  0.00    +0.147 C 
ATOM      5  C   UNL     1     -31.012  28.176   3.492  0.00  0.00    +0.093 C 
ATOM      6  C   UNL     1     -30.582  28.718   4.857  0.00  0.00    +0.238 C 
ATOM      7  C   UNL     1     -32.874  26.948   7.146  0.00  0.00    +0.035 C 
ENDROOT
BRANCH   3   8
ATOM      8  O   UNL     1     -33.138  29.305   3.442  0.00  0.00    -0.382 OA
ATOM      9  H   UNL     1     -33.468  29.522   2.556  0.00  0.00    +0.210 HD
ENDBRANCH   3   8
BRANCH   2  10
ATOM     10  O   UNL     1     -34.440  27.156   4.598  0.00  0.00    -0.328 OA
BRANCH  10  12
ATOM     11  O   UNL     1     -36.147  26.101   3.392  0.00  0.00    -0.330 OA
ATOM     12  C   UNL     1     -34.916  25.915   4.089  0.00  0.00    +0.238 C 
ATOM     13  C   UNL     1     -35.127  24.974   5.271  0.00  0.00    +0.093 C 
ATOM     14  C   UNL     1     -35.703  23.640   4.810  0.00  0.00    +0.149 C 
ATOM     15  C   UNL     1     -36.937  23.862   3.933  0.00  0.00    +0.165 C 
ATOM     16  C   UNL     1     -36.644  24.884   2.827  0.00  0.00    +0.147 C 
ATOM     17  C   UNL     1     -37.901  25.225   2.031  0.00  0.00    +0.035 C 
BRANCH  14  18
ATOM     18  O   UNL     1     -36.077  22.867   5.949  0.00  0.00    -0.351 OA
ATOM     19  C   UNL     1     -35.177  21.790   6.160  0.00  0.00    +0.174 C 
ENDBRANCH  14  18
BRANCH  15  20
ATOM     20  O   UNL     1     -37.340  22.621   3.360  0.00  0.00    -0.380 OA
ATOM     21  H   UNL     1     -36.935  22.523   2.484  0.00  0.00    +0.211 HD
ENDBRANCH  15  20
ENDBRANCH  10  12
ENDBRANCH   2  10
BRANCH   6  22
ATOM     22  O   UNL     1     -29.158  28.764   4.879  0.00  0.00    -0.326 OA
BRANCH  22  24
ATOM     23  O   UNL     1     -27.141  31.647   6.075  0.00  0.00    -0.474 OA
ATOM     24  C   UNL     1     -28.686  29.748   5.789  0.00  0.00    +0.189 C 
ATOM     25  C   UNL     1     -27.617  30.650   5.149  0.00  0.00    +0.196 C 
ATOM     26  C   UNL     1     -28.108  29.051   7.027  0.00  0.00    +0.171 C 
ATOM     27  C   UNL     1     -27.334  30.026   7.853  0.00  0.00    +0.045 C 
ATOM     28  C   UNL     1     -28.143  31.396   3.926  0.00  0.00    +0.050 C 
ATOM     29  C   UNL     1     -26.944  31.206   7.357  0.00  0.00    +0.170 C 
BRANCH  26  30
ATOM     30  O   UNL     1     -27.214  28.005   6.654  0.00  0.00    -0.346 OA
ATOM     31  C   UNL     1     -27.628  26.755   7.187  0.00  0.00    +0.175 C 
ENDBRANCH  26  30
ENDBRANCH  22  24
ENDBRANCH   6  22
TORSDOF 8
ENDMDL
MODEL 4
REMARK VINA RESULT:      -6.6      3.996      7.630
REMARK  Name = 5320270
REMARK  8 active torsions:
REMARK  status: ('A' for Active; 'I' for Inactive)
REMARK    1  A    between atoms: C_2  and  O_10
REMARK    2  A    between atoms: C_3  and  O_8
REMARK    3  A    between atoms: C_6  and  O_22
REMARK    4  A    between atoms: O_10  and  C_12
REMARK    5  A    between atoms: C_14  and  O_18
REMARK    6  A    between atoms: C_15  and  O_20
REMARK    7  A    between atoms: O_22  and  C_24
REMARK    8  A    between atoms: C_26  and  O_30
REMARK                            x       y       z     vdW  Elec       q    Type
REMARK                         _______ _______ _______ _____ _____    ______ ____
ROOT
ATOM      1  O   UNL     1     -37.801  21.449   1.834  0.00  0.00    -0.330 OA
ATOM      2  C   UNL     1     -36.672  19.708   0.573  0.00  0.00    +0.172 C 
ATOM      3  C   UNL     1     -35.347  20.052   1.259  0.00  0.00    +0.145 C 
ATOM      4  C   UNL     1     -37.592  20.936   0.512  0.00  0.00    +0.147 C 
ATOM      5  C   UNL     1     -35.621  20.711   2.608  0.00  0.00    +0.093 C 
ATOM      6  C   UNL     1     -36.592  21.883   2.459  0.00  0.00    +0.238 C 
ATOM      7  C   UNL     1     -38.964  20.602  -0.063  0.00  0.00    +0.035 C 
ENDROOT
BRANCH   3   8
ATOM      8  O   UNL     1     -34.609  20.957   0.437  0.00  0.00    -0.382 OA
ATOM      9  H   UNL     1     -33.940  21.410   0.973  0.00  0.00    +0.210 HD
ENDBRANCH   3   8
BRANCH   2  10
ATOM     10  O   UNL     1     -36.399  19.199  -0.727  0.00  0.00    -0.328 OA
BRANCH  10  12
ATOM     11  O   UNL     1     -35.898  17.309  -2.014  0.00  0.00    -0.330 OA
ATOM     12  C   UNL     1     -36.227  17.786  -0.710  0.00  0.00    +0.238 C 
ATOM     13  C   UNL     1     -37.536  17.160  -0.244  0.00  0.00    +0.093 C 
ATOM     14  C   UNL     1     -37.452  15.638  -0.265  0.00  0.00    +0.149 C 
ATOM     15  C   UNL     1     -36.949  15.146  -1.623  0.00  0.00    +0.165 C 
ATOM     16  C   UNL     1     -35.676  15.896  -2.038  0.00  0.00    +0.147 C 
ATOM     17  C   UNL     1     -35.240  15.521  -3.452  0.00  0.00    +0.035 C 
BRANCH  14  18
ATOM     18  O   UNL     1     -38.745  15.088  -0.023  0.00  0.00    -0.351 OA
ATOM     19  C   UNL     1     -39.712  15.633  -0.907  0.00  0.00    +0.174 C 
ENDBRANCH  14  18
BRANCH  15  20
ATOM     20  O   UNL     1     -36.694  13.746  -1.555  0.00  0.00    -0.380 OA
ATOM     21  H   UNL     1     -37.504  13.282  -1.291  0.00  0.00    +0.211 HD
ENDBRANCH  15  20
ENDBRANCH  10  12
ENDBRANCH   2  10
BRANCH   6  22
ATOM     22  O   UNL     1     -36.864  22.394   3.760  0.00  0.00    -0.326 OA
BRANCH  22  24
ATOM     23  O   UNL     1     -34.806  24.648   5.880  0.00  0.00    -0.474 OA
ATOM     24  C   UNL     1     -36.021  23.493   4.073  0.00  0.00    +0.189 C 
ATOM     25  C   UNL     1     -35.663  23.531   5.568  0.00  0.00    +0.196 C 
ATOM     26  C   UNL     1     -36.725  24.796   3.671  0.00  0.00    +0.171 C 
ATOM     27  C   UNL     1     -36.010  25.969   4.259  0.00  0.00    +0.045 C 
ATOM     28  C   UNL     1     -34.931  22.271   6.022  0.00  0.00    +0.050 C 
ATOM     29  C   UNL     1     -35.128  25.822   5.254  0.00  0.00    +0.170 C 
BRANCH  26  30
ATOM     30  O   UNL     1     -38.064  24.824   4.159  0.00  0.00    -0.346 OA
ATOM     31  C   UNL     1     -38.993  25.051   3.109  0.00  0.00    +0.175 C 
ENDBRANCH  26  30
ENDBRANCH  22  24
ENDBRANCH   6  22
TORSDOF 8
ENDMDL
MODEL 5
REMARK VINA RESULT:      -6.5      1.555      2.626
REMARK  Name = 5320270
REMARK  8 active torsions:
REMARK  status: ('A' for Active; 'I' for Inactive)
REMARK    1  A    between atoms: C_2  and  O_10
REMARK    2  A    between atoms: C_3  and  O_8
REMARK    3  A    between atoms: C_6  and  O_22
REMARK    4  A    between atoms: O_10  and  C_12
REMARK    5  A    between atoms: C_14  and  O_18
REMARK    6  A    between atoms: C_15  and  O_20
REMARK    7  A    between atoms: O_22  and  C_24
REMARK    8  A    between atoms: C_26  and  O_30
REMARK                            x       y       z     vdW  Elec       q    Type
REMARK                         _______ _______ _______ _____ _____    ______ ____
ROOT
ATOM      1  O   UNL     1     -33.818  25.199   4.903  0.00  0.00    -0.330 OA
ATOM      2  C   UNL     1     -35.721  24.369   3.644  0.00  0.00    +0.172 C 
ATOM      3  C   UNL     1     -35.729  25.643   2.795  0.00  0.00    +0.145 C 
ATOM      4  C   UNL     1     -35.133  24.644   5.036  0.00  0.00    +0.147 C 
ATOM      5  C   UNL     1     -34.337  26.267   2.786  0.00  0.00    +0.093 C 
ATOM      6  C   UNL     1     -33.809  26.447   4.211  0.00  0.00    +0.238 C 
ATOM      7  C   UNL     1     -35.004  23.373   5.870  0.00  0.00    +0.035 C 
ENDROOT
BRANCH   3   8
ATOM      8  O   UNL     1     -36.658  26.575   3.349  0.00  0.00    -0.382 OA
ATOM      9  H   UNL     1     -36.706  26.452   4.310  0.00  0.00    +0.210 HD
ENDBRANCH   3   8
BRANCH   2  10
ATOM     10  O   UNL     1     -37.047  23.864   3.732  0.00  0.00    -0.328 OA
BRANCH  10  12
ATOM     11  O   UNL     1     -35.866  22.083   2.773  0.00  0.00    -0.330 OA
ATOM     12  C   UNL     1     -37.119  22.506   3.310  0.00  0.00    +0.238 C 
ATOM     13  C   UNL     1     -38.202  22.404   2.241  0.00  0.00    +0.093 C 
ATOM     14  C   UNL     1     -38.292  20.986   1.689  0.00  0.00    +0.149 C 
ATOM     15  C   UNL     1     -36.911  20.488   1.259  0.00  0.00    +0.165 C 
ATOM     16  C   UNL     1     -35.879  20.710   2.372  0.00  0.00    +0.147 C 
ATOM     17  C   UNL     1     -34.470  20.351   1.911  0.00  0.00    +0.035 C 
BRANCH  14  18
ATOM     18  O   UNL     1     -39.162  20.972   0.559  0.00  0.00    -0.351 OA
ATOM     19  C   UNL     1     -40.029  22.096   0.560  0.00  0.00    +0.174 C 
ENDBRANCH  14  18
BRANCH  15  20
ATOM     20  O   UNL     1     -36.989  19.103   0.931  0.00  0.00    -0.380 OA
ATOM     21  H   UNL     1     -36.483  18.934   0.120  0.00  0.00    +0.211 HD
ENDBRANCH  15  20
ENDBRANCH  10  12
ENDBRANCH   2  10
BRANCH   6  22
ATOM     22  O   UNL     1     -32.481  26.954   4.123  0.00  0.00    -0.326 OA
BRANCH  22  24
ATOM     23  O   UNL     1     -31.606  30.554   3.839  0.00  0.00    -0.474 OA
ATOM     24  C   UNL     1     -32.423  28.324   4.495  0.00  0.00    +0.189 C 
ATOM     25  C   UNL     1     -31.662  29.165   3.458  0.00  0.00    +0.196 C 
ATOM     26  C   UNL     1     -31.743  28.443   5.865  0.00  0.00    +0.171 C 
ATOM     27  C   UNL     1     -31.393  29.869   6.143  0.00  0.00    +0.045 C 
ATOM     28  C   UNL     1     -32.309  29.111   2.076  0.00  0.00    +0.050 C 
ATOM     29  C   UNL     1     -31.373  30.786   5.168  0.00  0.00    +0.170 C 
BRANCH  26  30
ATOM     30  O   UNL     1     -30.533  27.692   5.903  0.00  0.00    -0.346 OA
ATOM     31  C   UNL     1     -29.507  28.396   6.586  0.00  0.00    +0.175 C 
ENDBRANCH  26  30
ENDBRANCH  22  24
ENDBRANCH   6  22
TORSDOF 8
ENDMDL
MODEL 6
REMARK VINA RESULT:      -6.5      2.088      8.748
REMARK  Name = 5320270
REMARK  8 active torsions:
REMARK  status: ('A' for Active; 'I' for Inactive)
REMARK    1  A    between atoms: C_2  and  O_10
REMARK    2  A    between atoms: C_3  and  O_8
REMARK    3  A    between atoms: C_6  and  O_22
REMARK    4  A    between atoms: O_10  and  C_12
REMARK    5  A    between atoms: C_14  and  O_18
REMARK    6  A    between atoms: C_15  and  O_20
REMARK    7  A    between atoms: O_22  and  C_24
REMARK    8  A    between atoms: C_26  and  O_30
REMARK                            x       y       z     vdW  Elec       q    Type
REMARK                         _______ _______ _______ _____ _____    ______ ____
ROOT
ATOM      1  O   UNL     1     -36.094  24.628   2.671  0.00  0.00    -0.330 OA
ATOM      2  C   UNL     1     -34.735  26.275   3.827  0.00  0.00    +0.172 C 
ATOM      3  C   UNL     1     -35.389  25.898   5.159  0.00  0.00    +0.145 C 
ATOM      4  C   UNL     1     -35.687  26.003   2.653  0.00  0.00    +0.147 C 
ATOM      5  C   UNL     1     -35.920  24.469   5.087  0.00  0.00    +0.093 C 
ATOM      6  C   UNL     1     -36.807  24.276   3.856  0.00  0.00    +0.238 C 
ATOM      7  C   UNL     1     -35.027  26.260   1.303  0.00  0.00    +0.035 C 
ENDROOT
BRANCH   3   8
ATOM      8  O   UNL     1     -36.474  26.788   5.422  0.00  0.00    -0.382 OA
ATOM      9  H   UNL     1     -36.957  26.962   4.599  0.00  0.00    +0.210 HD
ENDBRANCH   3   8
BRANCH   2  10
ATOM     10  O   UNL     1     -34.347  27.643   3.874  0.00  0.00    -0.328 OA
BRANCH  10  12
ATOM     11  O   UNL     1     -32.825  28.621   5.361  0.00  0.00    -0.330 OA
ATOM     12  C   UNL     1     -32.971  27.785   4.213  0.00  0.00    +0.238 C 
ATOM     13  C   UNL     1     -32.258  28.412   3.021  0.00  0.00    +0.093 C 
ATOM     14  C   UNL     1     -30.786  28.660   3.334  0.00  0.00    +0.149 C 
ATOM     15  C   UNL     1     -30.639  29.425   4.650  0.00  0.00    +0.165 C 
ATOM     16  C   UNL     1     -31.459  28.760   5.763  0.00  0.00    +0.147 C 
ATOM     17  C   UNL     1     -31.439  29.588   7.045  0.00  0.00    +0.035 C 
BRANCH  14  18
ATOM     18  O   UNL     1     -30.201  29.427   2.284  0.00  0.00    -0.351 OA
ATOM     19  C   UNL     1     -30.913  30.636   2.069  0.00  0.00    +0.174 C 
ENDBRANCH  14  18
BRANCH  15  20
ATOM     20  O   UNL     1     -29.262  29.474   5.017  0.00  0.00    -0.380 OA
ATOM     21  H   UNL     1     -28.756  29.910   4.314  0.00  0.00    +0.211 HD
ENDBRANCH  15  20
ENDBRANCH  10  12
ENDBRANCH   2  10
BRANCH   6  22
ATOM     22  O   UNL     1     -37.196  22.906   3.810  0.00  0.00    -0.326 OA
BRANCH  22  24
ATOM     23  O   UNL     1     -37.083  20.613   0.888  0.00  0.00    -0.474 OA
ATOM     24  C   UNL     1     -36.644  22.249   2.678  0.00  0.00    +0.189 C 
ATOM     25  C   UNL     1     -37.648  21.277   2.036  0.00  0.00    +0.196 C 
ATOM     26  C   UNL     1     -35.383  21.488   3.106  0.00  0.00    +0.171 C 
ATOM     27  C   UNL     1     -34.956  20.548   2.025  0.00  0.00    +0.045 C 
ATOM     28  C   UNL     1     -38.916  21.982   1.560  0.00  0.00    +0.050 C 
ATOM     29  C   UNL     1     -35.782  20.211   1.028  0.00  0.00    +0.170 C 
BRANCH  26  30
ATOM     30  O   UNL     1     -35.627  20.710   4.275  0.00  0.00    -0.346 OA
ATOM     31  C   UNL     1     -34.961  21.251   5.406  0.00  0.00    +0.175 C 
ENDBRANCH  26  30
ENDBRANCH  22  24
ENDBRANCH   6  22
TORSDOF 8
ENDMDL
MODEL 7
REMARK VINA RESULT:      -6.5      3.014      9.596
REMARK  Name = 5320270
REMARK  8 active torsions:
REMARK  status: ('A' for Active; 'I' for Inactive)
REMARK    1  A    between atoms: C_2  and  O_10
REMARK    2  A    between atoms: C_3  and  O_8
REMARK    3  A    between atoms: C_6  and  O_22
REMARK    4  A    between atoms: O_10  and  C_12
REMARK    5  A    between atoms: C_14  and  O_18
REMARK    6  A    between atoms: C_15  and  O_20
REMARK    7  A    between atoms: O_22  and  C_24
REMARK    8  A    between atoms: C_26  and  O_30
REMARK                            x       y       z     vdW  Elec       q    Type
REMARK                         _______ _______ _______ _____ _____    ______ ____
ROOT
ATOM      1  O   UNL     1     -37.483  21.483   1.317  0.00  0.00    -0.330 OA
ATOM      2  C   UNL     1     -36.521  22.775   3.134  0.00  0.00    +0.172 C 
ATOM      3  C   UNL     1     -35.394  21.750   3.283  0.00  0.00    +0.145 C 
ATOM      4  C   UNL     1     -37.787  22.118   2.566  0.00  0.00    +0.147 C 
ATOM      5  C   UNL     1     -35.191  21.010   1.964  0.00  0.00    +0.093 C 
ATOM      6  C   UNL     1     -36.514  20.442   1.445  0.00  0.00    +0.238 C 
ATOM      7  C   UNL     1     -38.894  23.132   2.298  0.00  0.00    +0.035 C 
ENDROOT
BRANCH   3   8
ATOM      8  O   UNL     1     -35.742  20.809   4.299  0.00  0.00    -0.382 OA
ATOM      9  H   UNL     1     -36.704  20.807   4.424  0.00  0.00    +0.210 HD
ENDBRANCH   3   8
BRANCH   2  10
ATOM     10  O   UNL     1     -36.771  23.374   4.400  0.00  0.00    -0.328 OA
BRANCH  10  12
ATOM     11  O   UNL     1     -36.256  25.252   3.099  0.00  0.00    -0.330 OA
ATOM     12  C   UNL     1     -36.356  24.736   4.425  0.00  0.00    +0.238 C 
ATOM     13  C   UNL     1     -34.995  24.799   5.110  0.00  0.00    +0.093 C 
ATOM     14  C   UNL     1     -34.452  26.223   5.115  0.00  0.00    +0.149 C 
ATOM     15  C   UNL     1     -34.495  26.819   3.707  0.00  0.00    +0.165 C 
ATOM     16  C   UNL     1     -35.881  26.632   3.077  0.00  0.00    +0.147 C 
ATOM     17  C   UNL     1     -35.902  27.092   1.622  0.00  0.00    +0.035 C 
BRANCH  14  18
ATOM     18  O   UNL     1     -33.102  26.214   5.574  0.00  0.00    -0.351 OA
ATOM     19  C   UNL     1     -32.965  26.925   6.794  0.00  0.00    +0.174 C 
ENDBRANCH  14  18
BRANCH  15  20
ATOM     20  O   UNL     1     -34.168  28.205   3.770  0.00  0.00    -0.380 OA
ATOM     21  H   UNL     1     -33.244  28.332   3.503  0.00  0.00    +0.211 HD
ENDBRANCH  15  20
ENDBRANCH  10  12
ENDBRANCH   2  10
BRANCH   6  22
ATOM     22  O   UNL     1     -36.263  19.842   0.178  0.00  0.00    -0.326 OA
BRANCH  22  24
ATOM     23  O   UNL     1     -35.740  16.230  -0.522  0.00  0.00    -0.474 OA
ATOM     24  C   UNL     1     -36.534  18.447   0.203  0.00  0.00    +0.189 C 
ATOM     25  C   UNL     1     -35.461  17.644  -0.550  0.00  0.00    +0.196 C 
ATOM     26  C   UNL     1     -37.912  18.193  -0.423  0.00  0.00    +0.171 C 
ATOM     27  C   UNL     1     -38.093  16.734  -0.691  0.00  0.00    +0.045 C 
ATOM     28  C   UNL     1     -34.068  17.833   0.046  0.00  0.00    +0.050 C 
ATOM     29  C   UNL     1     -37.055  15.891  -0.698  0.00  0.00    +0.170 C 
BRANCH  26  30
ATOM     30  O   UNL     1     -38.042  18.874  -1.668  0.00  0.00    -0.346 OA
ATOM     31  C   UNL     1     -39.244  19.627  -1.723  0.00  0.00    +0.175 C 
ENDBRANCH  26  30
ENDBRANCH  22  24
ENDBRANCH   6  22
TORSDOF 8
ENDMDL
MODEL 8
REMARK VINA RESULT:      -6.3      4.570      7.784
REMARK  Name = 5320270
REMARK  8 active torsions:
REMARK  status: ('A' for Active; 'I' for Inactive)
REMARK    1  A    between atoms: C_2  and  O_10
REMARK    2  A    between atoms: C_3  and  O_8
REMARK    3  A    between atoms: C_6  and  O_22
REMARK    4  A    between atoms: O_10  and  C_12
REMARK    5  A    between atoms: C_14  and  O_18
REMARK    6  A    between atoms: C_15  and  O_20
REMARK    7  A    between atoms: O_22  and  C_24
REMARK    8  A    between atoms: C_26  and  O_30
REMARK                            x       y       z     vdW  Elec       q    Type
REMARK                         _______ _______ _______ _____ _____    ______ ____
ROOT
ATOM      1  O   UNL     1     -36.984  21.619   1.262  0.00  0.00    -0.330 OA
ATOM      2  C   UNL     1     -35.634  19.930   0.157  0.00  0.00    +0.172 C 
ATOM      3  C   UNL     1     -34.537  20.100   1.211  0.00  0.00    +0.145 C 
ATOM      4  C   UNL     1     -36.442  21.226  -0.005  0.00  0.00    +0.147 C 
ATOM      5  C   UNL     1     -35.141  20.640   2.504  0.00  0.00    +0.093 C 
ATOM      6  C   UNL     1     -35.976  21.894   2.236  0.00  0.00    +0.238 C 
ATOM      7  C   UNL     1     -37.615  21.058  -0.965  0.00  0.00    +0.035 C 
ENDROOT
BRANCH   3   8
ATOM      8  O   UNL     1     -33.557  21.021   0.731  0.00  0.00    -0.382 OA
ATOM      9  H   UNL     1     -33.275  21.601   1.455  0.00  0.00    +0.210 HD
ENDBRANCH   3   8
BRANCH   2  10
ATOM     10  O   UNL     1     -35.037  19.533  -1.071  0.00  0.00    -0.328 OA
BRANCH  10  12
ATOM     11  O   UNL     1     -36.291  17.634  -0.519  0.00  0.00    -0.330 OA
ATOM     12  C   UNL     1     -35.226  18.144  -1.320  0.00  0.00    +0.238 C 
ATOM     13  C   UNL     1     -33.927  17.424  -0.975  0.00  0.00    +0.093 C 
ATOM     14  C   UNL     1     -34.073  15.918  -1.152  0.00  0.00    +0.149 C 
ATOM     15  C   UNL     1     -35.310  15.407  -0.411  0.00  0.00    +0.165 C 
ATOM     16  C   UNL     1     -36.544  16.248  -0.766  0.00  0.00    +0.147 C 
ATOM     17  C   UNL     1     -37.756  15.845   0.070  0.00  0.00    +0.035 C 
BRANCH  14  18
ATOM     18  O   UNL     1     -32.918  15.265  -0.629  0.00  0.00    -0.351 OA
ATOM     19  C   UNL     1     -32.069  16.179   0.048  0.00  0.00    +0.174 C 
ENDBRANCH  14  18
BRANCH  15  20
ATOM     20  O   UNL     1     -35.534  14.041  -0.749  0.00  0.00    -0.380 OA
ATOM     21  H   UNL     1     -35.327  13.901  -1.687  0.00  0.00    +0.211 HD
ENDBRANCH  15  20
ENDBRANCH  10  12
ENDBRANCH   2  10
BRANCH   6  22
ATOM     22  O   UNL     1     -36.573  22.292   3.466  0.00  0.00    -0.326 OA
BRANCH  22  24
ATOM     23  O   UNL     1     -35.102  24.509   6.059  0.00  0.00    -0.474 OA
ATOM     24  C   UNL     1     -35.939  23.446   4.000  0.00  0.00    +0.189 C 
ATOM     25  C   UNL     1     -35.746  23.337   5.522  0.00  0.00    +0.196 C 
ATOM     26  C   UNL     1     -36.785  24.682   3.669  0.00  0.00    +0.171 C 
ATOM     27  C   UNL     1     -36.318  25.855   4.467  0.00  0.00    +0.045 C 
ATOM     28  C   UNL     1     -34.884  22.139   5.914  0.00  0.00    +0.050 C 
ATOM     29  C   UNL     1     -35.529  25.701   5.538  0.00  0.00    +0.170 C 
BRANCH  26  30
ATOM     30  O   UNL     1     -38.156  24.465   3.992  0.00  0.00    -0.346 OA
ATOM     31  C   UNL     1     -39.003  24.779   2.897  0.00  0.00    +0.175 C 
ENDBRANCH  26  30
ENDBRANCH  22  24
ENDBRANCH   6  22
TORSDOF 8
ENDMDL
MODEL 9
REMARK VINA RESULT:      -6.1      4.495      8.384
REMARK  Name = 5320270
REMARK  8 active torsions:
REMARK  status: ('A' for Active; 'I' for Inactive)
REMARK    1  A    between atoms: C_2  and  O_10
REMARK    2  A    between atoms: C_3  and  O_8
REMARK    3  A    between atoms: C_6  and  O_22
REMARK    4  A    between atoms: O_10  and  C_12
REMARK    5  A    between atoms: C_14  and  O_18
REMARK    6  A    between atoms: C_15  and  O_20
REMARK    7  A    between atoms: O_22  and  C_24
REMARK    8  A    between atoms: C_26  and  O_30
REMARK                            x       y       z     vdW  Elec       q    Type
REMARK                         _______ _______ _______ _____ _____    ______ ____
ROOT
ATOM      1  O   UNL     1     -36.533  20.998   0.395  0.00  0.00    -0.330 OA
ATOM      2  C   UNL     1     -36.606  22.482   2.315  0.00  0.00    +0.172 C 
ATOM      3  C   UNL     1     -35.431  21.736   2.953  0.00  0.00    +0.145 C 
ATOM      4  C   UNL     1     -37.404  21.555   1.388  0.00  0.00    +0.147 C 
ATOM      5  C   UNL     1     -34.603  21.053   1.868  0.00  0.00    +0.093 C 
ATOM      6  C   UNL     1     -35.490  20.201   0.957  0.00  0.00    +0.238 C 
ATOM      7  C   UNL     1     -38.514  22.295   0.648  0.00  0.00    +0.035 C 
ENDROOT
BRANCH   3   8
ATOM      8  O   UNL     1     -35.931  20.746   3.853  0.00  0.00    -0.382 OA
ATOM      9  H   UNL     1     -36.624  21.135   4.409  0.00  0.00    +0.210 HD
ENDBRANCH   3   8
BRANCH   2  10
ATOM     10  O   UNL     1     -37.426  23.017   3.347  0.00  0.00    -0.328 OA
BRANCH  10  12
ATOM     11  O   UNL     1     -36.611  24.960   2.326  0.00  0.00    -0.330 OA
ATOM     12  C   UNL     1     -37.242  24.422   3.487  0.00  0.00    +0.238 C 
ATOM     13  C   UNL     1     -36.365  24.660   4.711  0.00  0.00    +0.093 C 
ATOM     14  C   UNL     1     -36.066  26.144   4.889  0.00  0.00    +0.149 C 
ATOM     15  C   UNL     1     -35.533  26.744   3.586  0.00  0.00    +0.165 C 
ATOM     16  C   UNL     1     -36.441  26.378   2.405  0.00  0.00    +0.147 C 
ATOM     17  C   UNL     1     -35.851  26.847   1.078  0.00  0.00    +0.035 C 
BRANCH  14  18
ATOM     18  O   UNL     1     -35.087  26.311   5.911  0.00  0.00    -0.351 OA
ATOM     19  C   UNL     1     -33.791  25.963   5.448  0.00  0.00    +0.174 C 
ENDBRANCH  14  18
BRANCH  15  20
ATOM     20  O   UNL     1     -35.446  28.160   3.718  0.00  0.00    -0.380 OA
ATOM     21  H   UNL     1     -36.275  28.565   3.418  0.00  0.00    +0.211 HD
ENDBRANCH  15  20
ENDBRANCH  10  12
ENDBRANCH   2  10
BRANCH   6  22
ATOM     22  O   UNL     1     -34.668  19.665  -0.075  0.00  0.00    -0.326 OA
BRANCH  22  24
ATOM     23  O   UNL     1     -30.952  19.608  -0.096  0.00  0.00    -0.474 OA
ATOM     24  C   UNL     1     -33.356  19.389   0.397  0.00  0.00    +0.189 C 
ATOM     25  C   UNL     1     -32.280  19.889  -0.580  0.00  0.00    +0.196 C 
ATOM     26  C   UNL     1     -33.207  17.877   0.609  0.00  0.00    +0.171 C 
ATOM     27  C   UNL     1     -31.769  17.524   0.806  0.00  0.00    +0.045 C 
ATOM     28  C   UNL     1     -32.358  21.397  -0.809  0.00  0.00    +0.050 C 
ATOM     29  C   UNL     1     -30.790  18.377   0.481  0.00  0.00    +0.170 C 
BRANCH  26  30
ATOM     30  O   UNL     1     -33.671  17.153  -0.528  0.00  0.00    -0.346 OA
ATOM     31  C   UNL     1     -33.858  15.779  -0.227  0.00  0.00    +0.175 C 
ENDBRANCH  26  30
ENDBRANCH  22  24
ENDBRANCH   6  22
TORSDOF 8
ENDMDL
