MODEL 1
REMARK VINA RESULT:      -6.9      0.000      0.000
REMARK  Name = 18931306
REMARK  9 active torsions:
REMARK  status: ('A' for Active; 'I' for Inactive)
REMARK    1  A    between atoms: C_1  and  C_2
REMARK    2  A    between atoms: C_1  and  C_18
REMARK    3  A    between atoms: C_2  and  N_5
REMARK    4  A    between atoms: C_18  and  C_19
REMARK    5  A    between atoms: C_19  and  C_21
REMARK    6  A    between atoms: C_21  and  C_22
REMARK    7  A    between atoms: C_23  and  O_31
REMARK    8  A    between atoms: C_25  and  N_28
REMARK    9  A    between atoms: C_27  and  O_33
REMARK                            x       y       z     vdW  Elec       q    Type
REMARK                         _______ _______ _______ _____ _____    ______ ____
ROOT
ATOM      1  C   UNL     1     -35.024  21.893   1.762  0.00  0.00    -0.022 C 
ENDROOT
BRANCH   1   2
ATOM      2  C   UNL     1     -34.137  21.828   0.518  0.00  0.00    -0.077 C 
BRANCH   2   5
ATOM      3  O   UNL     1     -31.472  16.256  -0.204  0.00  0.00    -0.273 OA
ATOM      4  O   UNL     1     -35.864  14.950  -0.118  0.00  0.00    -0.252 OA
ATOM      5  N   UNL     1     -33.528  20.509   0.348  0.00  0.00    +0.387 N 
ATOM      6  N   UNL     1     -34.845  17.046   0.053  0.00  0.00    -0.284 N 
ATOM      7  N   UNL     1     -33.560  15.249  -0.203  0.00  0.00    -0.238 N 
ATOM      8  C   UNL     1     -33.504  17.599   0.042  0.00  0.00    +0.123 C 
ATOM      9  C   UNL     1     -33.289  18.545  -1.140  0.00  0.00    +0.004 C 
ATOM     10  C   UNL     1     -33.161  18.281   1.367  0.00  0.00    +0.004 C 
ATOM     11  C   UNL     1     -33.968  19.899  -0.915  0.00  0.00    -0.075 C 
ATOM     12  C   UNL     1     -33.844  19.646   1.495  0.00  0.00    -0.075 C 
ATOM     13  C   UNL     1     -32.693  16.312  -0.135  0.00  0.00    +0.245 C 
ATOM     14  C   UNL     1     -34.868  15.660  -0.094  0.00  0.00    +0.307 C 
ATOM     15  H   UNL     1     -32.514  20.618   0.308  0.00  0.00    -0.080 HD
ATOM     16  H   UNL     1     -35.657  17.595   0.152  0.00  0.00    +0.151 HD
ATOM     17  H   UNL     1     -33.281  14.312  -0.318  0.00  0.00    +0.159 HD
ENDBRANCH   2   5
ENDBRANCH   1   2
BRANCH   1  18
ATOM     18  C   UNL     1     -36.235  22.815   1.591  0.00  0.00    +0.006 C 
BRANCH  18  19
ATOM     19  C   UNL     1     -37.270  22.581   2.693  0.00  0.00    +0.069 C 
BRANCH  19  21
ATOM     20  O   UNL     1     -38.835  24.222   3.511  0.00  0.00    -0.291 OA
ATOM     21  C   UNL     1     -37.663  23.871   3.397  0.00  0.00    +0.176 C 
BRANCH  21  22
ATOM     22  C   UNL     1     -36.585  24.733   3.966  0.00  0.00    +0.070 C 
ATOM     23  C   UNL     1     -35.843  24.316   5.070  0.00  0.00    +0.145 C 
ATOM     24  C   UNL     1     -36.325  25.971   3.378  0.00  0.00    +0.023 C 
ATOM     25  C   UNL     1     -35.322  26.791   3.895  0.00  0.00    +0.076 C 
ATOM     26  C   UNL     1     -34.841  25.135   5.588  0.00  0.00    +0.075 C 
ATOM     27  C   UNL     1     -34.580  26.372   5.000  0.00  0.00    +0.154 C 
BRANCH  25  28
ATOM     28  N   UNL     1     -35.067  28.040   3.290  0.00  0.00    -0.355 N 
ATOM     29  H   UNL     1     -34.894  28.092   2.322  0.00  0.00    +0.142 HD
ATOM     30  H   UNL     1     -35.065  28.860   3.836  0.00  0.00    +0.142 HD
ENDBRANCH  25  28
BRANCH  23  31
ATOM     31  O   UNL     1     -36.084  23.110   5.659  0.00  0.00    -0.471 OA
ATOM     32  C   UNL     1     -34.987  22.202   5.747  0.00  0.00    +0.252 C 
ENDBRANCH  23  31
BRANCH  27  33
ATOM     33  O   UNL     1     -33.596  27.160   5.522  0.00  0.00    -0.470 OA
ATOM     34  C   UNL     1     -33.048  26.764   6.778  0.00  0.00    +0.253 C 
ENDBRANCH  27  33
ENDBRANCH  21  22
ENDBRANCH  19  21
ENDBRANCH  18  19
ENDBRANCH   1  18
TORSDOF 9
ENDMDL
MODEL 2
REMARK VINA RESULT:      -6.5      1.387      2.093
REMARK  Name = 18931306
REMARK  9 active torsions:
REMARK  status: ('A' for Active; 'I' for Inactive)
REMARK    1  A    between atoms: C_1  and  C_2
REMARK    2  A    between atoms: C_1  and  C_18
REMARK    3  A    between atoms: C_2  and  N_5
REMARK    4  A    between atoms: C_18  and  C_19
REMARK    5  A    between atoms: C_19  and  C_21
REMARK    6  A    between atoms: C_21  and  C_22
REMARK    7  A    between atoms: C_23  and  O_31
REMARK    8  A    between atoms: C_25  and  N_28
REMARK    9  A    between atoms: C_27  and  O_33
REMARK                            x       y       z     vdW  Elec       q    Type
REMARK                         _______ _______ _______ _____ _____    ______ ____
ROOT
ATOM      1  C   UNL     1     -35.609  21.565   2.148  0.00  0.00    -0.022 C 
ENDROOT
BRANCH   1   2
ATOM      2  C   UNL     1     -36.330  20.306   1.665  0.00  0.00    -0.077 C 
BRANCH   2   5
ATOM      3  O   UNL     1     -32.392  15.660   0.408  0.00  0.00    -0.273 OA
ATOM      4  O   UNL     1     -31.004  18.661  -2.764  0.00  0.00    -0.252 OA
ATOM      5  N   UNL     1     -35.395  19.224   1.356  0.00  0.00    +0.387 N 
ATOM      6  N   UNL     1     -32.674  18.760  -1.133  0.00  0.00    -0.284 N 
ATOM      7  N   UNL     1     -31.442  16.915  -1.293  0.00  0.00    -0.238 N 
ATOM      8  C   UNL     1     -33.213  17.912  -0.086  0.00  0.00    +0.123 C 
ATOM      9  C   UNL     1     -33.020  18.528   1.300  0.00  0.00    +0.004 C 
ATOM     10  C   UNL     1     -34.681  17.564  -0.338  0.00  0.00    +0.004 C 
ATOM     11  C   UNL     1     -34.009  19.668   1.557  0.00  0.00    -0.075 C 
ATOM     12  C   UNL     1     -35.606  18.741  -0.017  0.00  0.00    -0.075 C 
ATOM     13  C   UNL     1     -32.321  16.680  -0.265  0.00  0.00    +0.245 C 
ATOM     14  C   UNL     1     -31.629  18.164  -1.838  0.00  0.00    +0.307 C 
ATOM     15  H   UNL     1     -35.572  18.445   1.992  0.00  0.00    -0.080 HD
ATOM     16  H   UNL     1     -33.011  19.666  -1.324  0.00  0.00    +0.151 HD
ATOM     17  H   UNL     1     -30.763  16.273  -1.600  0.00  0.00    +0.159 HD
ENDBRANCH   2   5
ENDBRANCH   1   2
BRANCH   1  18
ATOM     18  C   UNL     1     -36.374  22.854   1.834  0.00  0.00    +0.006 C 
BRANCH  18  19
ATOM     19  C   UNL     1     -37.684  22.928   2.619  0.00  0.00    +0.069 C 
BRANCH  19  21
ATOM     20  O   UNL     1     -38.827  24.705   3.780  0.00  0.00    -0.291 OA
ATOM     21  C   UNL     1     -37.759  24.166   3.499  0.00  0.00    +0.176 C 
BRANCH  21  22
ATOM     22  C   UNL     1     -36.490  24.740   4.038  0.00  0.00    +0.070 C 
ATOM     23  C   UNL     1     -35.739  24.049   4.989  0.00  0.00    +0.145 C 
ATOM     24  C   UNL     1     -36.058  25.983   3.578  0.00  0.00    +0.023 C 
ATOM     25  C   UNL     1     -34.875  26.536   4.069  0.00  0.00    +0.076 C 
ATOM     26  C   UNL     1     -34.557  24.601   5.481  0.00  0.00    +0.075 C 
ATOM     27  C   UNL     1     -34.124  25.844   5.020  0.00  0.00    +0.154 C 
BRANCH  25  28
ATOM     28  N   UNL     1     -34.449  27.795   3.594  0.00  0.00    -0.355 N 
ATOM     29  H   UNL     1     -33.923  27.856   2.764  0.00  0.00    +0.142 HD
ATOM     30  H   UNL     1     -34.678  28.613   4.093  0.00  0.00    +0.142 HD
ENDBRANCH  25  28
BRANCH  23  31
ATOM     31  O   UNL     1     -36.145  22.832   5.451  0.00  0.00    -0.471 OA
ATOM     32  C   UNL     1     -35.130  21.946   5.921  0.00  0.00    +0.252 C 
ENDBRANCH  23  31
BRANCH  27  33
ATOM     33  O   UNL     1     -32.966  26.368   5.514  0.00  0.00    -0.470 OA
ATOM     34  C   UNL     1     -33.031  26.983   6.799  0.00  0.00    +0.253 C 
ENDBRANCH  27  33
ENDBRANCH  21  22
ENDBRANCH  19  21
ENDBRANCH  18  19
ENDBRANCH   1  18
TORSDOF 9
ENDMDL
MODEL 3
REMARK VINA RESULT:      -6.4      5.752      9.416
REMARK  Name = 18931306
REMARK  9 active torsions:
REMARK  status: ('A' for Active; 'I' for Inactive)
REMARK    1  A    between atoms: C_1  and  C_2
REMARK    2  A    between atoms: C_1  and  C_18
REMARK    3  A    between atoms: C_2  and  N_5
REMARK    4  A    between atoms: C_18  and  C_19
REMARK    5  A    between atoms: C_19  and  C_21
REMARK    6  A    between atoms: C_21  and  C_22
REMARK    7  A    between atoms: C_23  and  O_31
REMARK    8  A    between atoms: C_25  and  N_28
REMARK    9  A    between atoms: C_27  and  O_33
REMARK                            x       y       z     vdW  Elec       q    Type
REMARK                         _______ _______ _______ _____ _____    ______ ____
ROOT
ATOM      1  C   UNL     1     -33.191  29.856   0.395  0.00  0.00    -0.022 C 
ENDROOT
BRANCH   1   2
ATOM      2  C   UNL     1     -32.614  31.123   1.027  0.00  0.00    -0.077 C 
BRANCH   2   5
ATOM      3  O   UNL     1     -29.251  29.929   6.120  0.00  0.00    -0.273 OA
ATOM      4  O   UNL     1     -32.880  27.276   7.012  0.00  0.00    -0.252 OA
ATOM      5  N   UNL     1     -31.837  30.829   2.231  0.00  0.00    +0.387 N 
ATOM      6  N   UNL     1     -32.366  28.682   5.218  0.00  0.00    -0.284 N 
ATOM      7  N   UNL     1     -30.906  28.497   6.885  0.00  0.00    -0.238 N 
ATOM      8  C   UNL     1     -31.285  29.560   4.809  0.00  0.00    +0.123 C 
ATOM      9  C   UNL     1     -30.630  29.087   3.511  0.00  0.00    +0.004 C 
ATOM     10  C   UNL     1     -31.746  31.014   4.699  0.00  0.00    +0.004 C 
ATOM     11  C   UNL     1     -31.499  29.401   2.290  0.00  0.00    -0.075 C 
ATOM     12  C   UNL     1     -32.571  31.253   3.431  0.00  0.00    -0.075 C 
ATOM     13  C   UNL     1     -30.336  29.376   5.997  0.00  0.00    +0.245 C 
ATOM     14  C   UNL     1     -32.132  28.060   6.443  0.00  0.00    +0.307 C 
ATOM     15  H   UNL     1     -30.964  31.358   2.195  0.00  0.00    -0.080 HD
ATOM     16  H   UNL     1     -33.181  28.540   4.684  0.00  0.00    +0.151 HD
ATOM     17  H   UNL     1     -30.488  28.215   7.731  0.00  0.00    +0.159 HD
ENDBRANCH   2   5
ENDBRANCH   1   2
BRANCH   1  18
ATOM     18  C   UNL     1     -34.652  29.603   0.780  0.00  0.00    +0.006 C 
BRANCH  18  19
ATOM     19  C   UNL     1     -34.867  28.152   1.215  0.00  0.00    +0.069 C 
BRANCH  19  21
ATOM     20  O   UNL     1     -34.801  28.967   3.483  0.00  0.00    -0.291 OA
ATOM     21  C   UNL     1     -34.973  28.014   2.726  0.00  0.00    +0.176 C 
BRANCH  21  22
ATOM     22  C   UNL     1     -35.299  26.676   3.302  0.00  0.00    +0.070 C 
ATOM     23  C   UNL     1     -34.289  25.817   3.734  0.00  0.00    +0.145 C 
ATOM     24  C   UNL     1     -36.635  26.288   3.406  0.00  0.00    +0.023 C 
ATOM     25  C   UNL     1     -36.960  25.042   3.942  0.00  0.00    +0.076 C 
ATOM     26  C   UNL     1     -34.612  24.571   4.269  0.00  0.00    +0.075 C 
ATOM     27  C   UNL     1     -35.948  24.183   4.374  0.00  0.00    +0.154 C 
BRANCH  25  28
ATOM     28  N   UNL     1     -38.316  24.663   4.043  0.00  0.00    -0.355 N 
ATOM     29  H   UNL     1     -38.914  25.135   4.667  0.00  0.00    +0.142 HD
ATOM     30  H   UNL     1     -38.664  23.927   3.488  0.00  0.00    +0.142 HD
ENDBRANCH  25  28
BRANCH  23  31
ATOM     31  O   UNL     1     -32.977  26.177   3.640  0.00  0.00    -0.471 OA
ATOM     32  C   UNL     1     -32.299  25.844   2.430  0.00  0.00    +0.252 C 
ENDBRANCH  23  31
BRANCH  27  33
ATOM     33  O   UNL     1     -36.245  22.961   4.899  0.00  0.00    -0.470 OA
ATOM     34  C   UNL     1     -35.417  22.497   5.964  0.00  0.00    +0.253 C 
ENDBRANCH  27  33
ENDBRANCH  21  22
ENDBRANCH  19  21
ENDBRANCH  18  19
ENDBRANCH   1  18
TORSDOF 9
ENDMDL
MODEL 4
REMARK VINA RESULT:      -6.3      3.006      4.540
REMARK  Name = 18931306
REMARK  9 active torsions:
REMARK  status: ('A' for Active; 'I' for Inactive)
REMARK    1  A    between atoms: C_1  and  C_2
REMARK    2  A    between atoms: C_1  and  C_18
REMARK    3  A    between atoms: C_2  and  N_5
REMARK    4  A    between atoms: C_18  and  C_19
REMARK    5  A    between atoms: C_19  and  C_21
REMARK    6  A    between atoms: C_21  and  C_22
REMARK    7  A    between atoms: C_23  and  O_31
REMARK    8  A    between atoms: C_25  and  N_28
REMARK    9  A    between atoms: C_27  and  O_33
REMARK                            x       y       z     vdW  Elec       q    Type
REMARK                         _______ _______ _______ _____ _____    ______ ____
ROOT
ATOM      1  C   UNL     1     -32.721  26.164   0.780  0.00  0.00    -0.022 C 
ENDROOT
BRANCH   1   2
ATOM      2  C   UNL     1     -33.752  25.324   0.026  0.00  0.00    -0.077 C 
BRANCH   2   5
ATOM      3  O   UNL     1     -35.057  20.073   3.093  0.00  0.00    -0.273 OA
ATOM      4  O   UNL     1     -37.840  19.519  -0.505  0.00  0.00    -0.252 OA
ATOM      5  N   UNL     1     -34.071  24.083   0.733  0.00  0.00    +0.387 N 
ATOM      6  N   UNL     1     -36.352  21.222   0.081  0.00  0.00    -0.284 N 
ATOM      7  N   UNL     1     -36.562  19.471   1.436  0.00  0.00    -0.238 N 
ATOM      8  C   UNL     1     -35.429  21.526   1.159  0.00  0.00    +0.123 C 
ATOM      9  C   UNL     1     -33.986  21.610   0.663  0.00  0.00    +0.004 C 
ATOM     10  C   UNL     1     -35.832  22.797   1.909  0.00  0.00    +0.004 C 
ATOM     11  C   UNL     1     -33.718  22.917  -0.088  0.00  0.00    -0.075 C 
ATOM     12  C   UNL     1     -35.492  24.058   1.110  0.00  0.00    -0.075 C 
ATOM     13  C   UNL     1     -35.634  20.287   2.035  0.00  0.00    +0.245 C 
ATOM     14  C   UNL     1     -37.015  20.007   0.253  0.00  0.00    +0.307 C 
ATOM     15  H   UNL     1     -33.520  24.043   1.591  0.00  0.00    -0.080 HD
ATOM     16  H   UNL     1     -36.495  21.813  -0.693  0.00  0.00    +0.151 HD
ATOM     17  H   UNL     1     -36.864  18.609   1.805  0.00  0.00    +0.159 HD
ENDBRANCH   2   5
ENDBRANCH   1   2
BRANCH   1  18
ATOM     18  C   UNL     1     -33.081  27.651   0.836  0.00  0.00    +0.006 C 
BRANCH  18  19
ATOM     19  C   UNL     1     -34.548  27.853   1.219  0.00  0.00    +0.069 C 
BRANCH  19  21
ATOM     20  O   UNL     1     -34.608  29.157   3.246  0.00  0.00    -0.291 OA
ATOM     21  C   UNL     1     -34.729  28.055   2.716  0.00  0.00    +0.176 C 
BRANCH  21  22
ATOM     22  C   UNL     1     -35.067  26.873   3.563  0.00  0.00    +0.070 C 
ATOM     23  C   UNL     1     -34.107  26.286   4.387  0.00  0.00    +0.145 C 
ATOM     24  C   UNL     1     -36.362  26.356   3.523  0.00  0.00    +0.023 C 
ATOM     25  C   UNL     1     -36.697  25.253   4.307  0.00  0.00    +0.076 C 
ATOM     26  C   UNL     1     -34.441  25.182   5.171  0.00  0.00    +0.075 C 
ATOM     27  C   UNL     1     -35.736  24.666   5.132  0.00  0.00    +0.154 C 
BRANCH  25  28
ATOM     28  N   UNL     1     -38.012  24.741   4.258  0.00  0.00    -0.355 N 
ATOM     29  H   UNL     1     -38.163  23.769   4.285  0.00  0.00    +0.142 HD
ATOM     30  H   UNL     1     -38.778  25.357   4.197  0.00  0.00    +0.142 HD
ENDBRANCH  25  28
BRANCH  23  31
ATOM     31  O   UNL     1     -32.836  26.776   4.440  0.00  0.00    -0.471 OA
ATOM     32  C   UNL     1     -32.496  27.574   5.572  0.00  0.00    +0.252 C 
ENDBRANCH  23  31
BRANCH  27  33
ATOM     33  O   UNL     1     -36.043  23.585   5.905  0.00  0.00    -0.470 OA
ATOM     34  C   UNL     1     -35.261  22.409   5.711  0.00  0.00    +0.253 C 
ENDBRANCH  27  33
ENDBRANCH  21  22
ENDBRANCH  19  21
ENDBRANCH  18  19
ENDBRANCH   1  18
TORSDOF 9
ENDMDL
MODEL 5
REMARK VINA RESULT:      -6.2      2.915      8.125
REMARK  Name = 18931306
REMARK  9 active torsions:
REMARK  status: ('A' for Active; 'I' for Inactive)
REMARK    1  A    between atoms: C_1  and  C_2
REMARK    2  A    between atoms: C_1  and  C_18
REMARK    3  A    between atoms: C_2  and  N_5
REMARK    4  A    between atoms: C_18  and  C_19
REMARK    5  A    between atoms: C_19  and  C_21
REMARK    6  A    between atoms: C_21  and  C_22
REMARK    7  A    between atoms: C_23  and  O_31
REMARK    8  A    between atoms: C_25  and  N_28
REMARK    9  A    between atoms: C_27  and  O_33
REMARK                            x       y       z     vdW  Elec       q    Type
REMARK                         _______ _______ _______ _____ _____    ______ ____
ROOT
ATOM      1  C   UNL     1     -37.364  20.807  -0.870  0.00  0.00    -0.022 C 
ENDROOT
BRANCH   1   2
ATOM      2  C   UNL     1     -38.736  20.998  -0.223  0.00  0.00    -0.077 C 
BRANCH   2   5
ATOM      3  O   UNL     1     -39.253  26.497   2.637  0.00  0.00    -0.273 OA
ATOM      4  O   UNL     1     -36.028  24.605   5.286  0.00  0.00    -0.252 OA
ATOM      5  N   UNL     1     -38.843  22.287   0.462  0.00  0.00    +0.387 N 
ATOM      6  N   UNL     1     -37.183  23.817   3.414  0.00  0.00    -0.284 N 
ATOM      7  N   UNL     1     -37.632  25.861   4.167  0.00  0.00    -0.238 N 
ATOM      8  C   UNL     1     -38.202  24.290   2.496  0.00  0.00    +0.123 C 
ATOM      9  C   UNL     1     -37.676  24.386   1.064  0.00  0.00    +0.004 C 
ATOM     10  C   UNL     1     -39.469  23.436   2.565  0.00  0.00    +0.004 C 
ATOM     11  C   UNL     1     -37.564  23.007   0.407  0.00  0.00    -0.075 C 
ATOM     12  C   UNL     1     -39.287  22.094   1.850  0.00  0.00    -0.075 C 
ATOM     13  C   UNL     1     -38.452  25.684   3.079  0.00  0.00    +0.245 C 
ATOM     14  C   UNL     1     -36.853  24.751   4.395  0.00  0.00    +0.307 C 
ATOM     15  H   UNL     1     -39.545  22.855  -0.014  0.00  0.00    -0.080 HD
ATOM     16  H   UNL     1     -36.766  22.928   3.349  0.00  0.00    +0.151 HD
ATOM     17  H   UNL     1     -37.605  26.680   4.714  0.00  0.00    +0.159 HD
ENDBRANCH   2   5
ENDBRANCH   1   2
BRANCH   1  18
ATOM     18  C   UNL     1     -36.628  19.563  -0.363  0.00  0.00    +0.006 C 
BRANCH  18  19
ATOM     19  C   UNL     1     -36.617  19.509   1.165  0.00  0.00    +0.069 C 
BRANCH  19  21
ATOM     20  O   UNL     1     -35.602  21.082   2.683  0.00  0.00    -0.291 OA
ATOM     21  C   UNL     1     -35.452  20.285   1.760  0.00  0.00    +0.176 C 
BRANCH  21  22
ATOM     22  C   UNL     1     -34.086  20.067   1.200  0.00  0.00    +0.070 C 
ATOM     23  C   UNL     1     -33.481  21.031   0.393  0.00  0.00    +0.145 C 
ATOM     24  C   UNL     1     -33.413  18.882   1.494  0.00  0.00    +0.023 C 
ATOM     25  C   UNL     1     -32.135  18.659   0.981  0.00  0.00    +0.076 C 
ATOM     26  C   UNL     1     -32.204  20.809  -0.121  0.00  0.00    +0.075 C 
ATOM     27  C   UNL     1     -31.530  19.623   0.174  0.00  0.00    +0.154 C 
BRANCH  25  28
ATOM     28  N   UNL     1     -31.465  17.455   1.287  0.00  0.00    -0.355 N 
ATOM     29  H   UNL     1     -31.807  16.600   0.941  0.00  0.00    +0.142 HD
ATOM     30  H   UNL     1     -30.654  17.472   1.847  0.00  0.00    +0.142 HD
ENDBRANCH  25  28
BRANCH  23  31
ATOM     31  O   UNL     1     -34.122  22.196   0.094  0.00  0.00    -0.471 OA
ATOM     32  C   UNL     1     -33.310  23.299  -0.302  0.00  0.00    +0.252 C 
ENDBRANCH  23  31
BRANCH  27  33
ATOM     33  O   UNL     1     -30.283  19.425  -0.339  0.00  0.00    -0.470 OA
ATOM     34  C   UNL     1     -29.567  20.582  -0.765  0.00  0.00    +0.253 C 
ENDBRANCH  27  33
ENDBRANCH  21  22
ENDBRANCH  19  21
ENDBRANCH  18  19
ENDBRANCH   1  18
TORSDOF 9
ENDMDL
MODEL 6
REMARK VINA RESULT:      -6.2      2.659      4.099
REMARK  Name = 18931306
REMARK  9 active torsions:
REMARK  status: ('A' for Active; 'I' for Inactive)
REMARK    1  A    between atoms: C_1  and  C_2
REMARK    2  A    between atoms: C_1  and  C_18
REMARK    3  A    between atoms: C_2  and  N_5
REMARK    4  A    between atoms: C_18  and  C_19
REMARK    5  A    between atoms: C_19  and  C_21
REMARK    6  A    between atoms: C_21  and  C_22
REMARK    7  A    between atoms: C_23  and  O_31
REMARK    8  A    between atoms: C_25  and  N_28
REMARK    9  A    between atoms: C_27  and  O_33
REMARK                            x       y       z     vdW  Elec       q    Type
REMARK                         _______ _______ _______ _____ _____    ______ ____
ROOT
ATOM      1  C   UNL     1     -35.647  22.057   4.915  0.00  0.00    -0.022 C 
ENDROOT
BRANCH   1   2
ATOM      2  C   UNL     1     -36.325  22.654   3.682  0.00  0.00    -0.077 C 
BRANCH   2   5
ATOM      3  O   UNL     1     -34.636  19.753  -1.553  0.00  0.00    -0.273 OA
ATOM      4  O   UNL     1     -37.784  16.776  -0.062  0.00  0.00    -0.252 OA
ATOM      5  N   UNL     1     -35.940  21.958   2.453  0.00  0.00    +0.387 N 
ATOM      6  N   UNL     1     -36.990  18.793   0.813  0.00  0.00    -0.284 N 
ATOM      7  N   UNL     1     -36.146  18.052  -1.107  0.00  0.00    -0.238 N 
ATOM      8  C   UNL     1     -36.024  19.816   0.462  0.00  0.00    +0.123 C 
ATOM      9  C   UNL     1     -36.691  21.171   0.229  0.00  0.00    +0.004 C 
ATOM     10  C   UNL     1     -34.905  19.920   1.499  0.00  0.00    +0.004 C 
ATOM     11  C   UNL     1     -37.091  21.841   1.547  0.00  0.00    -0.075 C 
ATOM     12  C   UNL     1     -35.374  20.639   2.768  0.00  0.00    -0.075 C 
ATOM     13  C   UNL     1     -35.495  19.235  -0.853  0.00  0.00    +0.245 C 
ATOM     14  C   UNL     1     -37.055  17.757  -0.118  0.00  0.00    +0.307 C 
ATOM     15  H   UNL     1     -35.220  22.503   1.979  0.00  0.00    -0.080 HD
ATOM     16  H   UNL     1     -37.544  18.826   1.626  0.00  0.00    +0.151 HD
ATOM     17  H   UNL     1     -35.982  17.488  -1.897  0.00  0.00    +0.159 HD
ENDBRANCH   2   5
ENDBRANCH   1   2
BRANCH   1  18
ATOM     18  C   UNL     1     -34.940  23.104   5.780  0.00  0.00    +0.006 C 
BRANCH  18  19
ATOM     19  C   UNL     1     -34.268  24.175   4.918  0.00  0.00    +0.069 C 
BRANCH  19  21
ATOM     20  O   UNL     1     -35.798  25.820   5.792  0.00  0.00    -0.291 OA
ATOM     21  C   UNL     1     -34.691  25.581   5.314  0.00  0.00    +0.176 C 
BRANCH  21  22
ATOM     22  C   UNL     1     -33.726  26.703   5.115  0.00  0.00    +0.070 C 
ATOM     23  C   UNL     1     -33.609  27.335   3.878  0.00  0.00    +0.145 C 
ATOM     24  C   UNL     1     -32.935  27.116   6.187  0.00  0.00    +0.023 C 
ATOM     25  C   UNL     1     -32.028  28.162   6.021  0.00  0.00    +0.076 C 
ATOM     26  C   UNL     1     -32.701  28.380   3.711  0.00  0.00    +0.075 C 
ATOM     27  C   UNL     1     -31.911  28.795   4.783  0.00  0.00    +0.154 C 
BRANCH  25  28
ATOM     28  N   UNL     1     -31.235  28.572   7.115  0.00  0.00    -0.355 N 
ATOM     29  H   UNL     1     -30.261  28.427   7.099  0.00  0.00    +0.142 HD
ATOM     30  H   UNL     1     -31.656  29.004   7.893  0.00  0.00    +0.142 HD
ENDBRANCH  25  28
BRANCH  23  31
ATOM     31  O   UNL     1     -34.373  26.945   2.818  0.00  0.00    -0.471 OA
ATOM     32  C   UNL     1     -35.388  27.847   2.384  0.00  0.00    +0.252 C 
ENDBRANCH  23  31
BRANCH  27  33
ATOM     33  O   UNL     1     -31.029  29.818   4.600  0.00  0.00    -0.470 OA
ATOM     34  C   UNL     1     -31.574  31.133   4.509  0.00  0.00    +0.253 C 
ENDBRANCH  27  33
ENDBRANCH  21  22
ENDBRANCH  19  21
ENDBRANCH  18  19
ENDBRANCH   1  18
TORSDOF 9
ENDMDL
MODEL 7
REMARK VINA RESULT:      -6.2      2.662      8.745
REMARK  Name = 18931306
REMARK  9 active torsions:
REMARK  status: ('A' for Active; 'I' for Inactive)
REMARK    1  A    between atoms: C_1  and  C_2
REMARK    2  A    between atoms: C_1  and  C_18
REMARK    3  A    between atoms: C_2  and  N_5
REMARK    4  A    between atoms: C_18  and  C_19
REMARK    5  A    between atoms: C_19  and  C_21
REMARK    6  A    between atoms: C_21  and  C_22
REMARK    7  A    between atoms: C_23  and  O_31
REMARK    8  A    between atoms: C_25  and  N_28
REMARK    9  A    between atoms: C_27  and  O_33
REMARK                            x       y       z     vdW  Elec       q    Type
REMARK                         _______ _______ _______ _____ _____    ______ ____
ROOT
ATOM      1  C   UNL     1     -36.904  22.320   1.735  0.00  0.00    -0.022 C 
ENDROOT
BRANCH   1   2
ATOM      2  C   UNL     1     -37.499  22.961   2.990  0.00  0.00    -0.077 C 
BRANCH   2   5
ATOM      3  O   UNL     1     -33.297  26.279   6.153  0.00  0.00    -0.273 OA
ATOM      4  O   UNL     1     -33.836  29.049   2.543  0.00  0.00    -0.252 OA
ATOM      5  N   UNL     1     -36.511  23.755   3.720  0.00  0.00    +0.387 N 
ATOM      6  N   UNL     1     -34.802  26.997   3.106  0.00  0.00    -0.284 N 
ATOM      7  N   UNL     1     -33.318  27.899   4.496  0.00  0.00    -0.238 N 
ATOM      8  C   UNL     1     -34.731  26.030   4.185  0.00  0.00    +0.123 C 
ATOM      9  C   UNL     1     -36.072  25.884   4.905  0.00  0.00    +0.004 C 
ATOM     10  C   UNL     1     -34.212  24.676   3.701  0.00  0.00    +0.004 C 
ATOM     11  C   UNL     1     -37.071  25.064   4.083  0.00  0.00    -0.075 C 
ATOM     12  C   UNL     1     -35.283  23.903   2.926  0.00  0.00    -0.075 C 
ATOM     13  C   UNL     1     -33.701  26.719   5.085  0.00  0.00    +0.245 C 
ATOM     14  C   UNL     1     -33.965  28.096   3.298  0.00  0.00    +0.307 C 
ATOM     15  H   UNL     1     -36.270  23.266   4.583  0.00  0.00    -0.080 HD
ATOM     16  H   UNL     1     -35.382  26.889   2.318  0.00  0.00    +0.151 HD
ATOM     17  H   UNL     1     -32.664  28.525   4.882  0.00  0.00    +0.159 HD
ENDBRANCH   2   5
ENDBRANCH   1   2
BRANCH   1  18
ATOM     18  C   UNL     1     -37.454  20.917   1.457  0.00  0.00    +0.006 C 
BRANCH  18  19
ATOM     19  C   UNL     1     -36.349  19.973   0.980  0.00  0.00    +0.069 C 
BRANCH  19  21
ATOM     20  O   UNL     1     -35.189  20.243   3.076  0.00  0.00    -0.291 OA
ATOM     21  C   UNL     1     -35.115  20.037   1.867  0.00  0.00    +0.176 C 
BRANCH  21  22
ATOM     22  C   UNL     1     -33.773  19.841   1.243  0.00  0.00    +0.070 C 
ATOM     23  C   UNL     1     -33.205  20.832   0.441  0.00  0.00    +0.145 C 
ATOM     24  C   UNL     1     -33.085  18.650   1.470  0.00  0.00    +0.023 C 
ATOM     25  C   UNL     1     -31.830  18.448   0.896  0.00  0.00    +0.076 C 
ATOM     26  C   UNL     1     -31.951  20.630  -0.134  0.00  0.00    +0.075 C 
ATOM     27  C   UNL     1     -31.263  19.439   0.094  0.00  0.00    +0.154 C 
BRANCH  25  28
ATOM     28  N   UNL     1     -31.145  17.238   1.136  0.00  0.00    -0.355 N 
ATOM     29  H   UNL     1     -30.375  17.221   1.750  0.00  0.00    +0.142 HD
ATOM     30  H   UNL     1     -31.437  16.410   0.689  0.00  0.00    +0.142 HD
ENDBRANCH  25  28
BRANCH  23  31
ATOM     31  O   UNL     1     -33.862  22.003   0.206  0.00  0.00    -0.471 OA
ATOM     32  C   UNL     1     -34.170  22.312  -1.152  0.00  0.00    +0.252 C 
ENDBRANCH  23  31
BRANCH  27  33
ATOM     33  O   UNL     1     -30.038  19.261  -0.477  0.00  0.00    -0.470 OA
ATOM     34  C   UNL     1     -29.398  20.420  -1.008  0.00  0.00    +0.253 C 
ENDBRANCH  27  33
ENDBRANCH  21  22
ENDBRANCH  19  21
ENDBRANCH  18  19
ENDBRANCH   1  18
TORSDOF 9
ENDMDL
MODEL 8
REMARK VINA RESULT:      -6.0      4.677      7.011
REMARK  Name = 18931306
REMARK  9 active torsions:
REMARK  status: ('A' for Active; 'I' for Inactive)
REMARK    1  A    between atoms: C_1  and  C_2
REMARK    2  A    between atoms: C_1  and  C_18
REMARK    3  A    between atoms: C_2  and  N_5
REMARK    4  A    between atoms: C_18  and  C_19
REMARK    5  A    between atoms: C_19  and  C_21
REMARK    6  A    between atoms: C_21  and  C_22
REMARK    7  A    between atoms: C_23  and  O_31
REMARK    8  A    between atoms: C_25  and  N_28
REMARK    9  A    between atoms: C_27  and  O_33
REMARK                            x       y       z     vdW  Elec       q    Type
REMARK                         _______ _______ _______ _____ _____    ______ ____
ROOT
ATOM      1  C   UNL     1     -35.660  28.281   2.193  0.00  0.00    -0.022 C 
ENDROOT
BRANCH   1   2
ATOM      2  C   UNL     1     -36.350  27.965   0.866  0.00  0.00    -0.077 C 
BRANCH   2   5
ATOM      3  O   UNL     1     -41.441  24.478   1.641  0.00  0.00    -0.273 OA
ATOM      4  O   UNL     1     -38.264  21.187   1.906  0.00  0.00    -0.252 OA
ATOM      5  N   UNL     1     -37.537  27.129   1.051  0.00  0.00    +0.387 N 
ATOM      6  N   UNL     1     -38.110  23.495   1.579  0.00  0.00    -0.284 N 
ATOM      7  N   UNL     1     -40.123  22.581   1.824  0.00  0.00    -0.238 N 
ATOM      8  C   UNL     1     -39.004  24.633   1.476  0.00  0.00    +0.123 C 
ATOM      9  C   UNL     1     -38.769  25.643   2.600  0.00  0.00    +0.004 C 
ATOM     10  C   UNL     1     -38.916  25.302   0.104  0.00  0.00    +0.004 C 
ATOM     11  C   UNL     1     -37.503  26.471   2.364  0.00  0.00    -0.075 C 
ATOM     12  C   UNL     1     -37.644  26.144  -0.035  0.00  0.00    -0.075 C 
ATOM     13  C   UNL     1     -40.350  23.924   1.652  0.00  0.00    +0.245 C 
ATOM     14  C   UNL     1     -38.779  22.289   1.785  0.00  0.00    +0.307 C 
ATOM     15  H   UNL     1     -38.366  27.723   1.017  0.00  0.00    -0.080 HD
ATOM     16  H   UNL     1     -37.130  23.567   1.512  0.00  0.00    +0.151 HD
ATOM     17  H   UNL     1     -40.832  21.911   1.959  0.00  0.00    +0.159 HD
ENDBRANCH   2   5
ENDBRANCH   1   2
BRANCH   1  18
ATOM     18  C   UNL     1     -34.160  28.549   2.043  0.00  0.00    +0.006 C 
BRANCH  18  19
ATOM     19  C   UNL     1     -33.418  27.300   1.564  0.00  0.00    +0.069 C 
BRANCH  19  21
ATOM     20  O   UNL     1     -31.628  26.603   3.022  0.00  0.00    -0.291 OA
ATOM     21  C   UNL     1     -32.815  26.511   2.717  0.00  0.00    +0.176 C 
BRANCH  21  22
ATOM     22  C   UNL     1     -33.700  25.600   3.501  0.00  0.00    +0.070 C 
ATOM     23  C   UNL     1     -34.075  25.915   4.807  0.00  0.00    +0.145 C 
ATOM     24  C   UNL     1     -34.153  24.420   2.911  0.00  0.00    +0.023 C 
ATOM     25  C   UNL     1     -34.981  23.555   3.627  0.00  0.00    +0.076 C 
ATOM     26  C   UNL     1     -34.902  25.050   5.524  0.00  0.00    +0.075 C 
ATOM     27  C   UNL     1     -35.355  23.871   4.934  0.00  0.00    +0.154 C 
BRANCH  25  28
ATOM     28  N   UNL     1     -35.433  22.365   3.017  0.00  0.00    -0.355 N 
ATOM     29  H   UNL     1     -34.791  21.762   2.579  0.00  0.00    +0.142 HD
ATOM     30  H   UNL     1     -36.392  22.139   3.032  0.00  0.00    +0.142 HD
ENDBRANCH  25  28
BRANCH  23  31
ATOM     31  O   UNL     1     -33.642  27.063   5.402  0.00  0.00    -0.471 OA
ATOM     32  C   UNL     1     -32.964  26.930   6.650  0.00  0.00    +0.252 C 
ENDBRANCH  23  31
BRANCH  27  33
ATOM     33  O   UNL     1     -36.162  23.038   5.651  0.00  0.00    -0.470 OA
ATOM     34  C   UNL     1     -35.521  22.035   6.437  0.00  0.00    +0.253 C 
ENDBRANCH  27  33
ENDBRANCH  21  22
ENDBRANCH  19  21
ENDBRANCH  18  19
ENDBRANCH   1  18
TORSDOF 9
ENDMDL
MODEL 9
REMARK VINA RESULT:      -6.0      4.587      8.180
REMARK  Name = 18931306
REMARK  9 active torsions:
REMARK  status: ('A' for Active; 'I' for Inactive)
REMARK    1  A    between atoms: C_1  and  C_2
REMARK    2  A    between atoms: C_1  and  C_18
REMARK    3  A    between atoms: C_2  and  N_5
REMARK    4  A    between atoms: C_18  and  C_19
REMARK    5  A    between atoms: C_19  and  C_21
REMARK    6  A    between atoms: C_21  and  C_22
REMARK    7  A    between atoms: C_23  and  O_31
REMARK    8  A    between atoms: C_25  and  N_28
REMARK    9  A    between atoms: C_27  and  O_33
REMARK                            x       y       z     vdW  Elec       q    Type
REMARK                         _______ _______ _______ _____ _____    ______ ____
ROOT
ATOM      1  C   UNL     1     -35.969  21.814   2.478  0.00  0.00    -0.022 C 
ENDROOT
BRANCH   1   2
ATOM      2  C   UNL     1     -36.249  22.462   3.834  0.00  0.00    -0.077 C 
BRANCH   2   5
ATOM      3  O   UNL     1     -32.440  27.245   4.970  0.00  0.00    -0.273 OA
ATOM      4  O   UNL     1     -35.542  29.393   2.370  0.00  0.00    -0.252 OA
ATOM      5  N   UNL     1     -35.365  23.599   4.092  0.00  0.00    +0.387 N 
ATOM      6  N   UNL     1     -35.365  27.179   3.096  0.00  0.00    -0.284 N 
ATOM      7  N   UNL     1     -33.798  28.635   3.707  0.00  0.00    -0.238 N 
ATOM      8  C   UNL     1     -34.464  26.376   3.902  0.00  0.00    +0.123 C 
ATOM      9  C   UNL     1     -35.156  25.827   5.150  0.00  0.00    +0.004 C 
ATOM     10  C   UNL     1     -33.821  25.254   3.086  0.00  0.00    +0.004 C 
ATOM     11  C   UNL     1     -36.084  24.656   4.815  0.00  0.00    -0.075 C 
ATOM     12  C   UNL     1     -34.801  24.105   2.832  0.00  0.00    -0.075 C 
ATOM     13  C   UNL     1     -33.429  27.441   4.276  0.00  0.00    +0.245 C 
ATOM     14  C   UNL     1     -34.964  28.511   2.988  0.00  0.00    +0.307 C 
ATOM     15  H   UNL     1     -34.591  23.286   4.678  0.00  0.00    -0.080 HD
ATOM     16  H   UNL     1     -36.177  26.821   2.670  0.00  0.00    +0.151 HD
ATOM     17  H   UNL     1     -33.293  29.475   3.803  0.00  0.00    +0.159 HD
ENDBRANCH   2   5
ENDBRANCH   1   2
BRANCH   1  18
ATOM     18  C   UNL     1     -37.062  20.833   2.042  0.00  0.00    +0.006 C 
BRANCH  18  19
ATOM     19  C   UNL     1     -38.031  21.485   1.055  0.00  0.00    +0.069 C 
BRANCH  19  21
ATOM     20  O   UNL     1     -40.100  20.971   2.181  0.00  0.00    -0.291 OA
ATOM     21  C   UNL     1     -39.364  21.831   1.701  0.00  0.00    +0.176 C 
BRANCH  21  22
ATOM     22  C   UNL     1     -39.786  23.262   1.752  0.00  0.00    +0.070 C 
ATOM     23  C   UNL     1     -40.825  23.731   0.949  0.00  0.00    +0.145 C 
ATOM     24  C   UNL     1     -39.127  24.134   2.618  0.00  0.00    +0.023 C 
ATOM     25  C   UNL     1     -39.506  25.474   2.681  0.00  0.00    +0.076 C 
ATOM     26  C   UNL     1     -41.205  25.071   1.010  0.00  0.00    +0.075 C 
ATOM     27  C   UNL     1     -40.546  25.943   1.877  0.00  0.00    +0.154 C 
BRANCH  25  28
ATOM     28  N   UNL     1     -38.831  26.346   3.563  0.00  0.00    -0.355 N 
ATOM     29  H   UNL     1     -38.844  26.172   4.532  0.00  0.00    +0.142 HD
ATOM     30  H   UNL     1     -38.346  27.126   3.208  0.00  0.00    +0.142 HD
ENDBRANCH  25  28
BRANCH  23  31
ATOM     31  O   UNL     1     -41.482  22.894   0.095  0.00  0.00    -0.471 OA
ATOM     32  C   UNL     1     -41.867  23.431  -1.169  0.00  0.00    +0.252 C 
ENDBRANCH  23  31
BRANCH  27  33
ATOM     33  O   UNL     1     -40.931  27.250   1.922  0.00  0.00    -0.470 OA
ATOM     34  C   UNL     1     -41.689  27.739   0.817  0.00  0.00    +0.253 C 
ENDBRANCH  27  33
ENDBRANCH  21  22
ENDBRANCH  19  21
ENDBRANCH  18  19
ENDBRANCH   1  18
TORSDOF 9
ENDMDL
