MODEL 1
REMARK VINA RESULT:      -6.8      0.000      0.000
REMARK  Name = 5877
REMARK  6 active torsions:
REMARK  status: ('A' for Active; 'I' for Inactive)
REMARK    1  A    between atoms: C_6  and  O_22
REMARK    2  A    between atoms: C_6  and  C_27
REMARK    3  A    between atoms: C_8  and  O_24
REMARK    4  A    between atoms: C_27  and  C_28
REMARK    5  A    between atoms: C_28  and  O_29
REMARK    6  A    between atoms: O_29  and  C_31
REMARK                            x       y       z     vdW  Elec       q    Type
REMARK                         _______ _______ _______ _____ _____    ______ ____
ROOT
ATOM      1  O   UNL     1     -34.901  20.842   5.990  0.00  0.00    -0.287 OA
ATOM      2  C   UNL     1     -39.633  25.630   1.303  0.00  0.00    +0.031 C 
ATOM      3  C   UNL     1     -39.084  24.223   0.978  0.00  0.00    +0.003 C 
ATOM      4  C   UNL     1     -37.610  24.035   1.368  0.00  0.00    +0.003 C 
ATOM      5  C   UNL     1     -37.465  24.251   2.912  0.00  0.00    +0.034 C 
ATOM      6  C   UNL     1     -41.071  25.478   0.734  0.00  0.00    +0.143 C 
ATOM      7  C   UNL     1     -39.525  25.828   2.828  0.00  0.00    +0.032 C 
ATOM      8  C   UNL     1     -38.095  25.604   3.371  0.00  0.00    +0.111 C 
ATOM      9  C   UNL     1     -39.498  24.009  -0.475  0.00  0.00    +0.003 C 
ATOM     10  C   UNL     1     -35.997  23.961   3.419  0.00  0.00    +0.036 C 
ATOM     11  C   UNL     1     -40.878  24.691  -0.582  0.00  0.00    +0.034 C 
ATOM     12  C   UNL     1     -37.118  22.637   0.951  0.00  0.00    +0.004 C 
ATOM     13  C   UNL     1     -35.685  22.353   1.418  0.00  0.00    +0.019 C 
ATOM     14  C   UNL     1     -38.893  26.768   0.546  0.00  0.00    +0.003 C 
ATOM     15  C   UNL     1     -35.607  22.551   2.929  0.00  0.00    -0.038 C 
ATOM     16  C   UNL     1     -34.943  24.968   2.902  0.00  0.00    +0.009 C 
ATOM     17  C   UNL     1     -35.953  24.059   4.937  0.00  0.00    -0.020 C 
ATOM     18  C   UNL     1     -35.244  20.983   0.887  0.00  0.00    +0.004 C 
ATOM     19  C   UNL     1     -35.259  21.565   3.774  0.00  0.00    +0.034 C 
ATOM     20  C   UNL     1     -35.609  23.074   5.770  0.00  0.00    +0.038 C 
ATOM     21  C   UNL     1     -35.229  21.755   5.240  0.00  0.00    +0.195 C 
ENDROOT
BRANCH   6  22
ATOM     22  O   UNL     1     -41.900  24.729   1.617  0.00  0.00    -0.380 OA
ATOM     23  H   UNL     1     -41.417  24.548   2.438  0.00  0.00    +0.211 HD
ENDBRANCH   6  22
BRANCH   8  24
ATOM     24  O   UNL     1     -37.271  26.704   3.010  0.00  0.00    -0.384 OA
ATOM     25  H   UNL     1     -36.887  26.546   2.134  0.00  0.00    +0.210 HD
ENDBRANCH   8  24
BRANCH   6  27
ATOM     26  O   UNL     1     -41.668  27.440  -0.481  0.00  0.00    -0.290 OA
ATOM     27  C   UNL     1     -41.807  26.771   0.542  0.00  0.00    +0.218 C 
BRANCH  27  28
ATOM     28  C   UNL     1     -42.719  27.197   1.672  0.00  0.00    +0.274 C 
BRANCH  28  29
ATOM     29  O   UNL     1     -42.067  28.121   2.517  0.00  0.00    -0.440 OA
BRANCH  29  31
ATOM     30  O   UNL     1     -42.016  28.847   4.711  0.00  0.00    -0.250 OA
ATOM     31  C   UNL     1     -42.494  28.155   3.821  0.00  0.00    +0.318 C 
ATOM     32  C   UNL     1     -43.644  27.215   4.015  0.00  0.00    +0.121 C 
ENDBRANCH  29  31
ENDBRANCH  28  29
ENDBRANCH  27  28
ENDBRANCH   6  27
TORSDOF 6
ENDMDL
MODEL 2
REMARK VINA RESULT:      -6.6      3.308      5.892
REMARK  Name = 5877
REMARK  6 active torsions:
REMARK  status: ('A' for Active; 'I' for Inactive)
REMARK    1  A    between atoms: C_6  and  O_22
REMARK    2  A    between atoms: C_6  and  C_27
REMARK    3  A    between atoms: C_8  and  O_24
REMARK    4  A    between atoms: C_27  and  C_28
REMARK    5  A    between atoms: C_28  and  O_29
REMARK    6  A    between atoms: O_29  and  C_31
REMARK                            x       y       z     vdW  Elec       q    Type
REMARK                         _______ _______ _______ _____ _____    ______ ____
ROOT
ATOM      1  O   UNL     1     -31.490  16.489   0.750  0.00  0.00    -0.287 OA
ATOM      2  C   UNL     1     -36.593  22.840   1.701  0.00  0.00    +0.031 C 
ATOM      3  C   UNL     1     -36.952  21.345   1.554  0.00  0.00    +0.003 C 
ATOM      4  C   UNL     1     -36.148  20.627   0.460  0.00  0.00    +0.003 C 
ATOM      5  C   UNL     1     -34.625  20.712   0.813  0.00  0.00    +0.034 C 
ATOM      6  C   UNL     1     -37.607  23.237   2.810  0.00  0.00    +0.143 C 
ATOM      7  C   UNL     1     -35.102  22.924   2.085  0.00  0.00    +0.032 C 
ATOM      8  C   UNL     1     -34.177  22.182   1.095  0.00  0.00    +0.111 C 
ATOM      9  C   UNL     1     -38.475  21.353   1.470  0.00  0.00    +0.003 C 
ATOM     10  C   UNL     1     -33.731  19.897  -0.203  0.00  0.00    +0.036 C 
ATOM     11  C   UNL     1     -38.903  22.487   2.424  0.00  0.00    +0.034 C 
ATOM     12  C   UNL     1     -36.609  19.163   0.328  0.00  0.00    +0.004 C 
ATOM     13  C   UNL     1     -35.762  18.367  -0.673  0.00  0.00    +0.019 C 
ATOM     14  C   UNL     1     -36.878  23.668   0.417  0.00  0.00    +0.003 C 
ATOM     15  C   UNL     1     -34.294  18.462  -0.268  0.00  0.00    -0.038 C 
ATOM     16  C   UNL     1     -33.713  20.480  -1.636  0.00  0.00    +0.009 C 
ATOM     17  C   UNL     1     -32.283  19.910   0.267  0.00  0.00    -0.020 C 
ATOM     18  C   UNL     1     -36.342  16.952  -0.810  0.00  0.00    +0.004 C 
ATOM     19  C   UNL     1     -33.555  17.382   0.044  0.00  0.00    +0.034 C 
ATOM     20  C   UNL     1     -31.557  18.834   0.577  0.00  0.00    +0.038 C 
ATOM     21  C   UNL     1     -32.146  17.489   0.478  0.00  0.00    +0.195 C 
ENDROOT
BRANCH   6  22
ATOM     22  O   UNL     1     -37.170  22.797   4.091  0.00  0.00    -0.380 OA
ATOM     23  H   UNL     1     -36.954  23.567   4.641  0.00  0.00    +0.211 HD
ENDBRANCH   6  22
BRANCH   8  24
ATOM     24  O   UNL     1     -34.071  22.928  -0.110  0.00  0.00    -0.384 OA
ATOM     25  H   UNL     1     -33.426  23.641   0.008  0.00  0.00    +0.210 HD
ENDBRANCH   8  24
BRANCH   6  27
ATOM     26  O   UNL     1     -38.872  25.251   2.663  0.00  0.00    -0.290 OA
ATOM     27  C   UNL     1     -37.810  24.714   2.972  0.00  0.00    +0.218 C 
BRANCH  27  28
ATOM     28  C   UNL     1     -36.640  25.493   3.534  0.00  0.00    +0.274 C 
BRANCH  28  29
ATOM     29  O   UNL     1     -36.555  25.325   4.933  0.00  0.00    -0.440 OA
BRANCH  29  31
ATOM     30  O   UNL     1     -34.982  23.794   5.655  0.00  0.00    -0.250 OA
ATOM     31  C   UNL     1     -35.331  24.944   5.424  0.00  0.00    +0.318 C 
ATOM     32  C   UNL     1     -34.464  26.146   5.643  0.00  0.00    +0.121 C 
ENDBRANCH  29  31
ENDBRANCH  28  29
ENDBRANCH  27  28
ENDBRANCH   6  27
TORSDOF 6
ENDMDL
MODEL 3
REMARK VINA RESULT:      -6.6      4.655      9.221
REMARK  Name = 5877
REMARK  6 active torsions:
REMARK  status: ('A' for Active; 'I' for Inactive)
REMARK    1  A    between atoms: C_6  and  O_22
REMARK    2  A    between atoms: C_6  and  C_27
REMARK    3  A    between atoms: C_8  and  O_24
REMARK    4  A    between atoms: C_27  and  C_28
REMARK    5  A    between atoms: C_28  and  O_29
REMARK    6  A    between atoms: O_29  and  C_31
REMARK                            x       y       z     vdW  Elec       q    Type
REMARK                         _______ _______ _______ _____ _____    ______ ____
ROOT
ATOM      1  O   UNL     1     -34.850  25.899   5.883  0.00  0.00    -0.287 OA
ATOM      2  C   UNL     1     -34.270  19.849   0.374  0.00  0.00    +0.031 C 
ATOM      3  C   UNL     1     -34.041  21.361   0.155  0.00  0.00    +0.003 C 
ATOM      4  C   UNL     1     -35.097  22.246   0.834  0.00  0.00    +0.003 C 
ATOM      5  C   UNL     1     -35.060  21.983   2.377  0.00  0.00    +0.034 C 
ATOM      6  C   UNL     1     -33.096  19.289  -0.475  0.00  0.00    +0.143 C 
ATOM      7  C   UNL     1     -34.197  19.585   1.891  0.00  0.00    +0.032 C 
ATOM      8  C   UNL     1     -35.171  20.461   2.709  0.00  0.00    +0.111 C 
ATOM      9  C   UNL     1     -33.839  21.474  -1.353  0.00  0.00    +0.003 C 
ATOM     10  C   UNL     1     -36.038  22.940   3.168  0.00  0.00    +0.036 C 
ATOM     11  C   UNL     1     -33.071  20.190  -1.731  0.00  0.00    +0.034 C 
ATOM     12  C   UNL     1     -34.841  23.730   0.514  0.00  0.00    +0.004 C 
ATOM     13  C   UNL     1     -35.800  24.668   1.259  0.00  0.00    +0.019 C 
ATOM     14  C   UNL     1     -35.619  19.343  -0.208  0.00  0.00    +0.003 C 
ATOM     15  C   UNL     1     -35.704  24.389   2.756  0.00  0.00    -0.038 C 
ATOM     16  C   UNL     1     -37.537  22.684   2.883  0.00  0.00    +0.009 C 
ATOM     17  C   UNL     1     -35.860  22.727   4.665  0.00  0.00    -0.020 C 
ATOM     18  C   UNL     1     -35.536  26.114   0.817  0.00  0.00    +0.004 C 
ATOM     19  C   UNL     1     -35.323  25.322   3.646  0.00  0.00    +0.034 C 
ATOM     20  C   UNL     1     -35.479  23.659   5.542  0.00  0.00    +0.038 C 
ATOM     21  C   UNL     1     -35.192  25.029   5.089  0.00  0.00    +0.195 C 
ENDROOT
BRANCH   6  22
ATOM     22  O   UNL     1     -31.856  19.408   0.216  0.00  0.00    -0.380 OA
ATOM     23  H   UNL     1     -32.019  19.709   1.124  0.00  0.00    +0.211 HD
ENDBRANCH   6  22
BRANCH   8  24
ATOM     24  O   UNL     1     -36.500  19.991   2.532  0.00  0.00    -0.384 OA
ATOM     25  H   UNL     1     -36.954  20.546   1.879  0.00  0.00    +0.210 HD
ENDBRANCH   8  24
BRANCH   6  27
ATOM     26  O   UNL     1     -33.461  17.446  -1.941  0.00  0.00    -0.290 OA
ATOM     27  C   UNL     1     -33.201  17.829  -0.802  0.00  0.00    +0.218 C 
BRANCH  27  28
ATOM     28  C   UNL     1     -32.971  16.868   0.345  0.00  0.00    +0.274 C 
BRANCH  28  29
ATOM     29  O   UNL     1     -31.591  16.728   0.608  0.00  0.00    -0.440 OA
BRANCH  29  31
ATOM     30  O   UNL     1     -31.176  14.511   0.104  0.00  0.00    -0.250 OA
ATOM     31  C   UNL     1     -30.951  15.705  -0.046  0.00  0.00    +0.318 C 
ATOM     32  C   UNL     1     -29.921  16.254  -0.985  0.00  0.00    +0.121 C 
ENDBRANCH  29  31
ENDBRANCH  28  29
ENDBRANCH  27  28
ENDBRANCH   6  27
TORSDOF 6
ENDMDL
MODEL 4
REMARK VINA RESULT:      -6.6      4.235      7.123
REMARK  Name = 5877
REMARK  6 active torsions:
REMARK  status: ('A' for Active; 'I' for Inactive)
REMARK    1  A    between atoms: C_6  and  O_22
REMARK    2  A    between atoms: C_6  and  C_27
REMARK    3  A    between atoms: C_8  and  O_24
REMARK    4  A    between atoms: C_27  and  C_28
REMARK    5  A    between atoms: C_28  and  O_29
REMARK    6  A    between atoms: O_29  and  C_31
REMARK                            x       y       z     vdW  Elec       q    Type
REMARK                         _______ _______ _______ _____ _____    ______ ____
ROOT
ATOM      1  O   UNL     1     -31.838  33.168   3.375  0.00  0.00    -0.287 OA
ATOM      2  C   UNL     1     -35.262  25.714   3.420  0.00  0.00    +0.031 C 
ATOM      3  C   UNL     1     -34.548  26.441   4.581  0.00  0.00    +0.003 C 
ATOM      4  C   UNL     1     -33.249  27.143   4.159  0.00  0.00    +0.003 C 
ATOM      5  C   UNL     1     -33.586  28.216   3.070  0.00  0.00    +0.034 C 
ATOM      6  C   UNL     1     -36.450  25.091   4.203  0.00  0.00    +0.143 C 
ATOM      7  C   UNL     1     -35.627  26.776   2.364  0.00  0.00    +0.032 C 
ATOM      8  C   UNL     1     -34.413  27.608   1.892  0.00  0.00    +0.111 C 
ATOM      9  C   UNL     1     -34.494  25.384   5.680  0.00  0.00    +0.003 C 
ATOM     10  C   UNL     1     -32.321  29.069   2.661  0.00  0.00    +0.036 C 
ATOM     11  C   UNL     1     -35.821  24.611   5.531  0.00  0.00    +0.034 C 
ATOM     12  C   UNL     1     -32.563  27.783   5.379  0.00  0.00    +0.004 C 
ATOM     13  C   UNL     1     -31.319  28.596   4.997  0.00  0.00    +0.019 C 
ATOM     14  C   UNL     1     -34.406  24.580   2.787  0.00  0.00    +0.003 C 
ATOM     15  C   UNL     1     -31.709  29.641   3.957  0.00  0.00    -0.038 C 
ATOM     16  C   UNL     1     -31.229  28.261   1.920  0.00  0.00    +0.009 C 
ATOM     17  C   UNL     1     -32.739  30.175   1.702  0.00  0.00    -0.020 C 
ATOM     18  C   UNL     1     -30.649  29.122   6.274  0.00  0.00    +0.004 C 
ATOM     19  C   UNL     1     -31.565  30.962   4.164  0.00  0.00    +0.034 C 
ATOM     20  C   UNL     1     -32.594  31.485   1.917  0.00  0.00    +0.038 C 
ATOM     21  C   UNL     1     -31.986  31.968   3.166  0.00  0.00    +0.195 C 
ENDROOT
BRANCH   6  22
ATOM     22  O   UNL     1     -37.453  26.064   4.479  0.00  0.00    -0.380 OA
ATOM     23  H   UNL     1     -37.553  26.162   5.439  0.00  0.00    +0.211 HD
ENDBRANCH   6  22
BRANCH   8  24
ATOM     24  O   UNL     1     -33.594  26.817   1.043  0.00  0.00    -0.384 OA
ATOM     25  H   UNL     1     -33.061  27.396   0.477  0.00  0.00    +0.210 HD
ENDBRANCH   8  24
BRANCH   6  27
ATOM     26  O   UNL     1     -37.005  22.818   3.750  0.00  0.00    -0.290 OA
ATOM     27  C   UNL     1     -37.179  24.003   3.471  0.00  0.00    +0.218 C 
BRANCH  27  28
ATOM     28  C   UNL     1     -38.131  24.450   2.382  0.00  0.00    +0.274 C 
BRANCH  28  29
ATOM     29  O   UNL     1     -39.465  24.412   2.840  0.00  0.00    -0.440 OA
BRANCH  29  31
ATOM     30  O   UNL     1     -40.111  26.625   3.000  0.00  0.00    -0.250 OA
ATOM     31  C   UNL     1     -40.242  25.502   2.533  0.00  0.00    +0.318 C 
ATOM     32  C   UNL     1     -41.290  25.125   1.531  0.00  0.00    +0.121 C 
ENDBRANCH  29  31
ENDBRANCH  28  29
ENDBRANCH  27  28
ENDBRANCH   6  27
TORSDOF 6
ENDMDL
MODEL 5
REMARK VINA RESULT:      -6.5      4.296      7.844
REMARK  Name = 5877
REMARK  6 active torsions:
REMARK  status: ('A' for Active; 'I' for Inactive)
REMARK    1  A    between atoms: C_6  and  O_22
REMARK    2  A    between atoms: C_6  and  C_27
REMARK    3  A    between atoms: C_8  and  O_24
REMARK    4  A    between atoms: C_27  and  C_28
REMARK    5  A    between atoms: C_28  and  O_29
REMARK    6  A    between atoms: O_29  and  C_31
REMARK                            x       y       z     vdW  Elec       q    Type
REMARK                         _______ _______ _______ _____ _____    ______ ____
ROOT
ATOM      1  O   UNL     1     -34.696  19.371   1.664  0.00  0.00    -0.287 OA
ATOM      2  C   UNL     1     -33.451  27.239   3.619  0.00  0.00    +0.031 C 
ATOM      3  C   UNL     1     -33.446  26.013   4.558  0.00  0.00    +0.003 C 
ATOM      4  C   UNL     1     -34.593  25.028   4.287  0.00  0.00    +0.003 C 
ATOM      5  C   UNL     1     -34.468  24.497   2.820  0.00  0.00    +0.034 C 
ATOM      6  C   UNL     1     -32.238  28.013   4.205  0.00  0.00    +0.143 C 
ATOM      7  C   UNL     1     -33.290  26.719   2.176  0.00  0.00    +0.032 C 
ATOM      8  C   UNL     1     -34.350  25.664   1.788  0.00  0.00    +0.111 C 
ATOM      9  C   UNL     1     -33.312  26.631   5.946  0.00  0.00    +0.003 C 
ATOM     10  C   UNL     1     -35.544  23.387   2.493  0.00  0.00    +0.036 C 
ATOM     11  C   UNL     1     -32.384  27.845   5.735  0.00  0.00    +0.034 C 
ATOM     12  C   UNL     1     -34.561  23.873   5.304  0.00  0.00    +0.004 C 
ATOM     13  C   UNL     1     -35.618  22.800   5.010  0.00  0.00    +0.019 C 
ATOM     14  C   UNL     1     -34.734  28.107   3.750  0.00  0.00    +0.003 C 
ATOM     15  C   UNL     1     -35.432  22.299   3.581  0.00  0.00    -0.038 C 
ATOM     16  C   UNL     1     -37.000  23.910   2.471  0.00  0.00    +0.009 C 
ATOM     17  C   UNL     1     -35.287  22.821   1.104  0.00  0.00    -0.020 C 
ATOM     18  C   UNL     1     -35.576  21.736   6.116  0.00  0.00    +0.004 C 
ATOM     19  C   UNL     1     -35.158  21.015   3.290  0.00  0.00    +0.034 C 
ATOM     20  C   UNL     1     -35.013  21.544   0.824  0.00  0.00    +0.038 C 
ATOM     21  C   UNL     1     -34.938  20.549   1.905  0.00  0.00    +0.195 C 
ENDROOT
BRANCH   6  22
ATOM     22  O   UNL     1     -31.006  27.440   3.782  0.00  0.00    -0.380 OA
ATOM     23  H   UNL     1     -30.278  27.814   4.303  0.00  0.00    +0.211 HD
ENDBRANCH   6  22
BRANCH   8  24
ATOM     24  O   UNL     1     -35.604  26.301   1.586  0.00  0.00    -0.384 OA
ATOM     25  H   UNL     1     -36.241  25.656   1.241  0.00  0.00    +0.210 HD
ENDBRANCH   8  24
BRANCH   6  27
ATOM     26  O   UNL     1     -32.032  29.756   2.593  0.00  0.00    -0.290 OA
ATOM     27  C   UNL     1     -32.146  29.448   3.778  0.00  0.00    +0.218 C 
BRANCH  27  28
ATOM     28  C   UNL     1     -32.202  30.481   4.884  0.00  0.00    +0.274 C 
BRANCH  28  29
ATOM     29  O   UNL     1     -31.042  31.285   4.872  0.00  0.00    -0.440 OA
BRANCH  29  31
ATOM     30  O   UNL     1     -29.717  30.000   6.261  0.00  0.00    -0.250 OA
ATOM     31  C   UNL     1     -29.875  30.671   5.250  0.00  0.00    +0.318 C 
ATOM     32  C   UNL     1     -28.800  30.934   4.240  0.00  0.00    +0.121 C 
ENDBRANCH  29  31
ENDBRANCH  28  29
ENDBRANCH  27  28
ENDBRANCH   6  27
TORSDOF 6
ENDMDL
MODEL 6
REMARK VINA RESULT:      -6.5      4.289      6.882
REMARK  Name = 5877
REMARK  6 active torsions:
REMARK  status: ('A' for Active; 'I' for Inactive)
REMARK    1  A    between atoms: C_6  and  O_22
REMARK    2  A    between atoms: C_6  and  C_27
REMARK    3  A    between atoms: C_8  and  O_24
REMARK    4  A    between atoms: C_27  and  C_28
REMARK    5  A    between atoms: C_28  and  O_29
REMARK    6  A    between atoms: O_29  and  C_31
REMARK                            x       y       z     vdW  Elec       q    Type
REMARK                         _______ _______ _______ _____ _____    ______ ____
ROOT
ATOM      1  O   UNL     1     -34.450  19.087   1.604  0.00  0.00    -0.287 OA
ATOM      2  C   UNL     1     -33.537  27.091   3.151  0.00  0.00    +0.031 C 
ATOM      3  C   UNL     1     -33.521  25.919   4.157  0.00  0.00    +0.003 C 
ATOM      4  C   UNL     1     -34.625  24.881   3.907  0.00  0.00    +0.003 C 
ATOM      5  C   UNL     1     -34.433  24.274   2.476  0.00  0.00    +0.034 C 
ATOM      6  C   UNL     1     -32.371  27.939   3.731  0.00  0.00    +0.143 C 
ATOM      7  C   UNL     1     -33.310  26.498   1.746  0.00  0.00    +0.032 C 
ATOM      8  C   UNL     1     -34.321  25.386   1.385  0.00  0.00    +0.111 C 
ATOM      9  C   UNL     1     -33.455  26.617   5.512  0.00  0.00    +0.003 C 
ATOM     10  C   UNL     1     -35.460  23.111   2.179  0.00  0.00    +0.036 C 
ATOM     11  C   UNL     1     -32.562  27.850   5.262  0.00  0.00    +0.034 C 
ATOM     12  C   UNL     1     -34.588  23.785   4.988  0.00  0.00    +0.004 C 
ATOM     13  C   UNL     1     -35.597  22.661   4.722  0.00  0.00    +0.019 C 
ATOM     14  C   UNL     1     -34.852  27.919   3.193  0.00  0.00    +0.003 C 
ATOM     15  C   UNL     1     -35.348  22.089   3.329  0.00  0.00    -0.038 C 
ATOM     16  C   UNL     1     -36.931  23.579   2.082  0.00  0.00    +0.009 C 
ATOM     17  C   UNL     1     -35.138  22.478   0.833  0.00  0.00    -0.020 C 
ATOM     18  C   UNL     1     -35.557  21.661   5.886  0.00  0.00    +0.004 C 
ATOM     19  C   UNL     1     -35.021  20.801   3.120  0.00  0.00    +0.034 C 
ATOM     20  C   UNL     1     -34.812  21.198   0.633  0.00  0.00    +0.038 C 
ATOM     21  C   UNL     1     -34.739  20.268   1.771  0.00  0.00    +0.195 C 
ENDROOT
BRANCH   6  22
ATOM     22  O   UNL     1     -31.106  27.387   3.380  0.00  0.00    -0.380 OA
ATOM     23  H   UNL     1     -30.527  27.382   4.158  0.00  0.00    +0.211 HD
ENDBRANCH   6  22
BRANCH   8  24
ATOM     24  O   UNL     1     -35.589  25.966   1.108  0.00  0.00    -0.384 OA
ATOM     25  H   UNL     1     -35.520  26.931   1.161  0.00  0.00    +0.210 HD
ENDBRANCH   8  24
BRANCH   6  27
ATOM     26  O   UNL     1     -32.003  29.601   2.064  0.00  0.00    -0.290 OA
ATOM     27  C   UNL     1     -32.313  29.350   3.227  0.00  0.00    +0.218 C 
BRANCH  27  28
ATOM     28  C   UNL     1     -32.657  30.433   4.228  0.00  0.00    +0.274 C 
BRANCH  28  29
ATOM     29  O   UNL     1     -34.017  30.794   4.124  0.00  0.00    -0.440 OA
BRANCH  29  31
ATOM     30  O   UNL     1     -33.620  32.484   2.598  0.00  0.00    -0.250 OA
ATOM     31  C   UNL     1     -34.345  31.625   3.081  0.00  0.00    +0.318 C 
ATOM     32  C   UNL     1     -35.735  31.335   2.604  0.00  0.00    +0.121 C 
ENDBRANCH  29  31
ENDBRANCH  28  29
ENDBRANCH  27  28
ENDBRANCH   6  27
TORSDOF 6
ENDMDL
MODEL 7
REMARK VINA RESULT:      -6.4      6.621     10.609
REMARK  Name = 5877
REMARK  6 active torsions:
REMARK  status: ('A' for Active; 'I' for Inactive)
REMARK    1  A    between atoms: C_6  and  O_22
REMARK    2  A    between atoms: C_6  and  C_27
REMARK    3  A    between atoms: C_8  and  O_24
REMARK    4  A    between atoms: C_27  and  C_28
REMARK    5  A    between atoms: C_28  and  O_29
REMARK    6  A    between atoms: O_29  and  C_31
REMARK                            x       y       z     vdW  Elec       q    Type
REMARK                         _______ _______ _______ _____ _____    ______ ____
ROOT
ATOM      1  O   UNL     1     -39.433  36.005   2.220  0.00  0.00    -0.287 OA
ATOM      2  C   UNL     1     -33.459  30.415   2.806  0.00  0.00    +0.031 C 
ATOM      3  C   UNL     1     -33.324  31.954   2.785  0.00  0.00    +0.003 C 
ATOM      4  C   UNL     1     -34.209  32.632   1.729  0.00  0.00    +0.003 C 
ATOM      5  C   UNL     1     -35.708  32.296   2.035  0.00  0.00    +0.034 C 
ATOM      6  C   UNL     1     -32.413  30.083   3.906  0.00  0.00    +0.143 C 
ATOM      7  C   UNL     1     -34.926  30.083   3.144  0.00  0.00    +0.032 C 
ATOM      8  C   UNL     1     -35.937  30.759   2.190  0.00  0.00    +0.111 C 
ATOM      9  C   UNL     1     -31.815  32.176   2.740  0.00  0.00    +0.003 C 
ATOM     10  C   UNL     1     -36.699  33.051   1.063  0.00  0.00    +0.036 C 
ATOM     11  C   UNL     1     -31.237  31.044   3.614  0.00  0.00    +0.034 C 
ATOM     12  C   UNL     1     -33.969  34.153   1.723  0.00  0.00    +0.004 C 
ATOM     13  C   UNL     1     -34.910  34.895   0.766  0.00  0.00    +0.019 C 
ATOM     14  C   UNL     1     -33.037  29.744   1.469  0.00  0.00    +0.003 C 
ATOM     15  C   UNL     1     -36.353  34.554   1.125  0.00  0.00    -0.038 C 
ATOM     16  C   UNL     1     -36.609  32.589  -0.410  0.00  0.00    +0.009 C 
ATOM     17  C   UNL     1     -38.135  32.788   1.493  0.00  0.00    -0.020 C 
ATOM     18  C   UNL     1     -34.545  36.386   0.755  0.00  0.00    +0.004 C 
ATOM     19  C   UNL     1     -37.248  35.484   1.500  0.00  0.00    +0.034 C 
ATOM     20  C   UNL     1     -39.017  33.718   1.867  0.00  0.00    +0.038 C 
ATOM     21  C   UNL     1     -38.632  35.138   1.888  0.00  0.00    +0.195 C 
ENDROOT
BRANCH   6  22
ATOM     22  O   UNL     1     -32.929  30.349   5.206  0.00  0.00    -0.380 OA
ATOM     23  H   UNL     1     -33.896  30.414   5.164  0.00  0.00    +0.211 HD
ENDBRANCH   6  22
BRANCH   8  24
ATOM     24  O   UNL     1     -35.914  30.105   0.929  0.00  0.00    -0.384 OA
ATOM     25  H   UNL     1     -35.022  30.160   0.553  0.00  0.00    +0.210 HD
ENDBRANCH   8  24
BRANCH   6  27
ATOM     26  O   UNL     1     -31.247  28.164   3.109  0.00  0.00    -0.290 OA
ATOM     27  C   UNL     1     -31.996  28.644   3.959  0.00  0.00    +0.218 C 
BRANCH  27  28
ATOM     28  C   UNL     1     -32.547  27.828   5.108  0.00  0.00    +0.274 C 
BRANCH  28  29
ATOM     29  O   UNL     1     -33.853  27.377   4.819  0.00  0.00    -0.440 OA
BRANCH  29  31
ATOM     30  O   UNL     1     -33.314  25.138   4.629  0.00  0.00    -0.250 OA
ATOM     31  C   UNL     1     -34.077  26.032   4.971  0.00  0.00    +0.318 C 
ATOM     32  C   UNL     1     -35.404  25.797   5.625  0.00  0.00    +0.121 C 
ENDBRANCH  29  31
ENDBRANCH  28  29
ENDBRANCH  27  28
ENDBRANCH   6  27
TORSDOF 6
ENDMDL
MODEL 8
REMARK VINA RESULT:      -6.3      4.427      8.049
REMARK  Name = 5877
REMARK  6 active torsions:
REMARK  status: ('A' for Active; 'I' for Inactive)
REMARK    1  A    between atoms: C_6  and  O_22
REMARK    2  A    between atoms: C_6  and  C_27
REMARK    3  A    between atoms: C_8  and  O_24
REMARK    4  A    between atoms: C_27  and  C_28
REMARK    5  A    between atoms: C_28  and  O_29
REMARK    6  A    between atoms: O_29  and  C_31
REMARK                            x       y       z     vdW  Elec       q    Type
REMARK                         _______ _______ _______ _____ _____    ______ ____
ROOT
ATOM      1  O   UNL     1     -31.659  33.382   3.381  0.00  0.00    -0.287 OA
ATOM      2  C   UNL     1     -35.071  25.923   3.301  0.00  0.00    +0.031 C 
ATOM      3  C   UNL     1     -34.407  26.654   4.489  0.00  0.00    +0.003 C 
ATOM      4  C   UNL     1     -33.093  27.357   4.119  0.00  0.00    +0.003 C 
ATOM      5  C   UNL     1     -33.387  28.428   3.015  0.00  0.00    +0.034 C 
ATOM      6  C   UNL     1     -36.291  25.301   4.036  0.00  0.00    +0.143 C 
ATOM      7  C   UNL     1     -35.395  26.983   2.229  0.00  0.00    +0.032 C 
ATOM      8  C   UNL     1     -34.164  27.816   1.806  0.00  0.00    +0.111 C 
ATOM      9  C   UNL     1     -34.397  25.599   5.592  0.00  0.00    +0.003 C 
ATOM     10  C   UNL     1     -32.107  29.282   2.656  0.00  0.00    +0.036 C 
ATOM     11  C   UNL     1     -35.716  24.824   5.389  0.00  0.00    +0.034 C 
ATOM     12  C   UNL     1     -32.458  28.001   5.365  0.00  0.00    +0.004 C 
ATOM     13  C   UNL     1     -31.201  28.814   5.033  0.00  0.00    +0.019 C 
ATOM     14  C   UNL     1     -34.189  24.790   2.706  0.00  0.00    +0.003 C 
ATOM     15  C   UNL     1     -31.549  29.857   3.975  0.00  0.00    -0.038 C 
ATOM     16  C   UNL     1     -30.984  28.474   1.963  0.00  0.00    +0.009 C 
ATOM     17  C   UNL     1     -32.486  30.385   1.679  0.00  0.00    -0.020 C 
ATOM     18  C   UNL     1     -30.584  29.344   6.335  0.00  0.00    +0.004 C 
ATOM     19  C   UNL     1     -31.415  31.179   4.185  0.00  0.00    +0.034 C 
ATOM     20  C   UNL     1     -32.352  31.696   1.896  0.00  0.00    +0.038 C 
ATOM     21  C   UNL     1     -31.797  32.182   3.169  0.00  0.00    +0.195 C 
ENDROOT
BRANCH   6  22
ATOM     22  O   UNL     1     -37.305  26.272   4.269  0.00  0.00    -0.380 OA
ATOM     23  H   UNL     1     -37.333  26.895   3.526  0.00  0.00    +0.211 HD
ENDBRANCH   6  22
BRANCH   8  24
ATOM     24  O   UNL     1     -33.309  27.024   0.992  0.00  0.00    -0.384 OA
ATOM     25  H   UNL     1     -33.842  26.402   0.474  0.00  0.00    +0.210 HD
ENDBRANCH   8  24
BRANCH   6  27
ATOM     26  O   UNL     1     -37.788  24.468   2.380  0.00  0.00    -0.290 OA
ATOM     27  C   UNL     1     -36.987  24.210   3.277  0.00  0.00    +0.218 C 
BRANCH  27  28
ATOM     28  C   UNL     1     -36.648  22.792   3.680  0.00  0.00    +0.274 C 
BRANCH  28  29
ATOM     29  O   UNL     1     -36.558  21.959   2.543  0.00  0.00    -0.440 OA
BRANCH  29  31
ATOM     30  O   UNL     1     -35.086  20.359   3.326  0.00  0.00    -0.250 OA
ATOM     31  C   UNL     1     -35.450  21.153   2.469  0.00  0.00    +0.318 C 
ATOM     32  C   UNL     1     -34.731  21.379   1.174  0.00  0.00    +0.121 C 
ENDBRANCH  29  31
ENDBRANCH  28  29
ENDBRANCH  27  28
ENDBRANCH   6  27
TORSDOF 6
ENDMDL
MODEL 9
REMARK VINA RESULT:      -6.3      3.556      6.417
REMARK  Name = 5877
REMARK  6 active torsions:
REMARK  status: ('A' for Active; 'I' for Inactive)
REMARK    1  A    between atoms: C_6  and  O_22
REMARK    2  A    between atoms: C_6  and  C_27
REMARK    3  A    between atoms: C_8  and  O_24
REMARK    4  A    between atoms: C_27  and  C_28
REMARK    5  A    between atoms: C_28  and  O_29
REMARK    6  A    between atoms: O_29  and  C_31
REMARK                            x       y       z     vdW  Elec       q    Type
REMARK                         _______ _______ _______ _____ _____    ______ ____
ROOT
ATOM      1  O   UNL     1     -33.582  17.073  -3.385  0.00  0.00    -0.287 OA
ATOM      2  C   UNL     1     -36.008  22.829   1.931  0.00  0.00    +0.031 C 
ATOM      3  C   UNL     1     -34.917  22.937   0.843  0.00  0.00    +0.003 C 
ATOM      4  C   UNL     1     -34.001  21.706   0.769  0.00  0.00    +0.003 C 
ATOM      5  C   UNL     1     -34.872  20.448   0.437  0.00  0.00    +0.034 C 
ATOM      6  C   UNL     1     -36.673  24.224   1.763  0.00  0.00    +0.143 C 
ATOM      7  C   UNL     1     -36.889  21.612   1.584  0.00  0.00    +0.032 C 
ATOM      8  C   UNL     1     -36.082  20.305   1.415  0.00  0.00    +0.111 C 
ATOM      9  C   UNL     1     -34.296  24.307   1.100  0.00  0.00    +0.003 C 
ATOM     10  C   UNL     1     -33.993  19.152   0.227  0.00  0.00    +0.036 C 
ATOM     11  C   UNL     1     -35.484  25.187   1.542  0.00  0.00    +0.034 C 
ATOM     12  C   UNL     1     -32.901  21.918  -0.287  0.00  0.00    +0.004 C 
ATOM     13  C   UNL     1     -32.026  20.673  -0.484  0.00  0.00    +0.019 C 
ATOM     14  C   UNL     1     -35.431  22.699   3.369  0.00  0.00    +0.003 C 
ATOM     15  C   UNL     1     -32.920  19.487  -0.831  0.00  0.00    -0.038 C 
ATOM     16  C   UNL     1     -33.279  18.661   1.508  0.00  0.00    +0.009 C 
ATOM     17  C   UNL     1     -34.881  18.000  -0.220  0.00  0.00    -0.020 C 
ATOM     18  C   UNL     1     -30.906  20.997  -1.482  0.00  0.00    +0.004 C 
ATOM     19  C   UNL     1     -32.808  18.805  -1.984  0.00  0.00    +0.034 C 
ATOM     20  C   UNL     1     -34.765  17.329  -1.369  0.00  0.00    +0.038 C 
ATOM     21  C   UNL     1     -33.709  17.685  -2.329  0.00  0.00    +0.195 C 
ENDROOT
BRANCH   6  22
ATOM     22  O   UNL     1     -37.526  24.256   0.624  0.00  0.00    -0.380 OA
ATOM     23  H   UNL     1     -38.064  25.062   0.644  0.00  0.00    +0.211 HD
ENDBRANCH   6  22
BRANCH   8  24
ATOM     24  O   UNL     1     -35.661  19.837   2.689  0.00  0.00    -0.384 OA
ATOM     25  H   UNL     1     -36.406  19.871   3.308  0.00  0.00    +0.210 HD
ENDBRANCH   8  24
BRANCH   6  27
ATOM     26  O   UNL     1     -38.503  23.935   3.262  0.00  0.00    -0.290 OA
ATOM     27  C   UNL     1     -37.558  24.635   2.902  0.00  0.00    +0.218 C 
BRANCH  27  28
ATOM     28  C   UNL     1     -37.221  25.950   3.572  0.00  0.00    +0.274 C 
BRANCH  28  29
ATOM     29  O   UNL     1     -36.558  25.729   4.798  0.00  0.00    -0.440 OA
BRANCH  29  31
ATOM     30  O   UNL     1     -34.925  27.321   4.425  0.00  0.00    -0.250 OA
ATOM     31  C   UNL     1     -35.297  26.261   4.910  0.00  0.00    +0.318 C 
ATOM     32  C   UNL     1     -34.422  25.354   5.721  0.00  0.00    +0.121 C 
ENDBRANCH  29  31
ENDBRANCH  28  29
ENDBRANCH  27  28
ENDBRANCH   6  27
TORSDOF 6
ENDMDL
