MODEL 1
REMARK VINA RESULT:      -6.8      0.000      0.000
REMARK  Name = 52943495
REMARK  16 active torsions:
REMARK  status: ('A' for Active; 'I' for Inactive)
REMARK    1  A    between atoms: CA_1  and  C_4
REMARK    2  A    between atoms: CA_1  and  N_19
REMARK    3  A    between atoms: CA_1  and  CB_34
REMARK    4  A    between atoms: N_3  and  CA_6
REMARK    5  A    between atoms: CA_6  and  C_8
REMARK    6  A    between atoms: CA_6  and  CB_11
REMARK    7  A    between atoms: C_8  and  O_9
REMARK    8  A    between atoms: CB_11  and  CG_12
REMARK    9  A    between atoms: C_20  and  CA_22
REMARK   10  A    between atoms: CA_22  and  N_23
REMARK   11  A    between atoms: CA_22  and  CB_27
REMARK   12  A    between atoms: CB_27  and  CG_28
REMARK   13  A    between atoms: CB_34  and  CG_35
REMARK   14  A    between atoms: CG_35  and  CD_36
REMARK   15  A    between atoms: CD_36  and  CE_37
REMARK   16  A    between atoms: CE_37  and  NZ_38
REMARK                            x       y       z     vdW  Elec       q    Type
REMARK                         _______ _______ _______ _____ _____    ______ ____
ROOT
ATOM      1  CA  LYS A   2     -35.861  23.453   3.125  0.00  0.00    +0.148 C 
ENDROOT
BRANCH   1   4
ATOM      2  O   LYS A   2     -37.830  24.469   4.109  0.00  0.00    -0.273 OA
ATOM      3  N   PHE A   3     -38.073  23.194   2.185  0.00  0.00    -0.295 N 
ATOM      4  C   LYS A   2     -37.346  23.787   3.208  0.00  0.00    +0.241 C 
ATOM      5  H   PHE A   3     -37.593  22.665   1.508  0.00  0.00    +0.150 HD
BRANCH   3   6
ATOM      6  CA  PHE A   3     -39.508  23.322   2.076  0.00  0.00    +0.176 C 
BRANCH   6   8
ATOM      7  OXT PHE A   3     -40.914  22.191   0.465  0.00  0.00    -0.248 OA
ATOM      8  C   PHE A   3     -40.117  22.107   1.394  0.00  0.00    +0.332 C 
BRANCH   8   9
ATOM      9  O   PHE A   3     -39.708  20.913   1.887  0.00  0.00    -0.479 OA
ATOM     10  H   PHE A   3     -38.794  20.718   1.942  0.00  0.00    +0.295 HD
ENDBRANCH   8   9
ENDBRANCH   6   8
BRANCH   6  11
ATOM     11  CB  PHE A   3     -39.893  24.597   1.314  0.00  0.00    +0.057 C 
BRANCH  11  12
ATOM     12  CG  PHE A   3     -41.018  25.359   1.974  0.00  0.00    -0.020 C 
ATOM     13  CD1 PHE A   3     -42.290  25.359   1.402  0.00  0.00    -0.004 C 
ATOM     14  CD2 PHE A   3     -40.784  26.065   3.154  0.00  0.00    -0.004 C 
ATOM     15  CE1 PHE A   3     -43.328  26.064   2.011  0.00  0.00    -0.000 C 
ATOM     16  CE2 PHE A   3     -41.822  26.769   3.762  0.00  0.00    -0.000 C 
ATOM     17  CZ  PHE A   3     -43.095  26.769   3.190  0.00  0.00    -0.000 C 
ENDBRANCH  11  12
ENDBRANCH   6  11
ENDBRANCH   3   6
ENDBRANCH   1   4
BRANCH   1  19
ATOM     18  O   PHE A   1     -35.213  20.856   4.140  0.00  0.00    -0.277 OA
ATOM     19  N   LYS A   2     -35.736  22.241   2.354  0.00  0.00    -0.300 N 
ATOM     20  C   PHE A   1     -35.417  21.023   2.937  0.00  0.00    +0.202 C 
ATOM     21  H   LYS A   2     -35.881  22.279   1.381  0.00  0.00    +0.150 HD
BRANCH  20  22
ATOM     22  CA  PHE A   1     -35.368  19.881   1.927  0.00  0.00    +0.017 C 
BRANCH  22  23
ATOM     23  N   PHE A   1     -36.754  19.579   1.565  0.00  0.00    +0.388 N 
ATOM     24  H1  PHE A   1     -37.023  18.681   1.968  0.00  0.00    -0.089 HD
ATOM     25  H2  PHE A   1     -36.838  19.534   0.549  0.00  0.00    -0.089 HD
ATOM     26  H3  PHE A   1     -37.366  20.310   1.925  0.00  0.00    -0.089 HD
ENDBRANCH  22  23
BRANCH  22  27
ATOM     27  CB  PHE A   1     -34.580  20.295   0.676  0.00  0.00    +0.013 C 
BRANCH  27  28
ATOM     28  CG  PHE A   1     -33.197  19.690   0.627  0.00  0.00    -0.024 C 
ATOM     29  CD1 PHE A   1     -32.947  18.472   1.258  0.00  0.00    -0.004 C 
ATOM     30  CD2 PHE A   1     -32.170  20.350  -0.048  0.00  0.00    -0.004 C 
ATOM     31  CE1 PHE A   1     -31.669  17.913   1.214  0.00  0.00    -0.000 C 
ATOM     32  CE2 PHE A   1     -30.893  19.791  -0.093  0.00  0.00    -0.000 C 
ATOM     33  CZ  PHE A   1     -30.642  18.573   0.538  0.00  0.00    -0.000 C 
ENDBRANCH  27  28
ENDBRANCH  22  27
ENDBRANCH  20  22
ENDBRANCH   1  19
BRANCH   1  34
ATOM     34  CB  LYS A   2     -35.092  24.624   2.502  0.00  0.00    +0.029 C 
BRANCH  34  35
ATOM     35  CG  LYS A   2     -34.139  25.297   3.495  0.00  0.00    +0.000 C 
BRANCH  35  36
ATOM     36  CD  LYS A   2     -34.401  24.819   4.926  0.00  0.00    -0.024 C 
BRANCH  36  37
ATOM     37  CE  LYS A   2     -34.801  25.981   5.833  0.00  0.00    -0.086 C 
BRANCH  37  38
ATOM     38  NZ  LYS A   2     -36.165  26.405   5.541  0.00  0.00    +0.380 N 
ATOM     39  HZ1 LYS A   2     -36.767  25.585   5.467  0.00  0.00    -0.089 HD
ATOM     40  HZ2 LYS A   2     -36.180  26.919   4.661  0.00  0.00    -0.089 HD
ATOM     41  HZ3 LYS A   2     -36.502  27.006   6.292  0.00  0.00    -0.089 HD
ENDBRANCH  37  38
ENDBRANCH  36  37
ENDBRANCH  35  36
ENDBRANCH  34  35
ENDBRANCH   1  34
TORSDOF 16
ENDMDL
MODEL 2
REMARK VINA RESULT:      -6.2      2.557      8.477
REMARK  Name = 52943495
REMARK  16 active torsions:
REMARK  status: ('A' for Active; 'I' for Inactive)
REMARK    1  A    between atoms: CA_1  and  C_4
REMARK    2  A    between atoms: CA_1  and  N_19
REMARK    3  A    between atoms: CA_1  and  CB_34
REMARK    4  A    between atoms: N_3  and  CA_6
REMARK    5  A    between atoms: CA_6  and  C_8
REMARK    6  A    between atoms: CA_6  and  CB_11
REMARK    7  A    between atoms: C_8  and  O_9
REMARK    8  A    between atoms: CB_11  and  CG_12
REMARK    9  A    between atoms: C_20  and  CA_22
REMARK   10  A    between atoms: CA_22  and  N_23
REMARK   11  A    between atoms: CA_22  and  CB_27
REMARK   12  A    between atoms: CB_27  and  CG_28
REMARK   13  A    between atoms: CB_34  and  CG_35
REMARK   14  A    between atoms: CG_35  and  CD_36
REMARK   15  A    between atoms: CD_36  and  CE_37
REMARK   16  A    between atoms: CE_37  and  NZ_38
REMARK                            x       y       z     vdW  Elec       q    Type
REMARK                         _______ _______ _______ _____ _____    ______ ____
ROOT
ATOM      1  CA  LYS A   2     -36.899  23.007   2.529  0.00  0.00    +0.148 C 
ENDROOT
BRANCH   1   4
ATOM      2  O   LYS A   2     -34.752  22.891   1.408  0.00  0.00    -0.273 OA
ATOM      3  N   PHE A   3     -36.051  20.972   1.536  0.00  0.00    -0.295 N 
ATOM      4  C   LYS A   2     -35.768  22.309   1.780  0.00  0.00    +0.241 C 
ATOM      5  H   PHE A   3     -36.894  20.596   1.878  0.00  0.00    +0.150 HD
BRANCH   3   6
ATOM      6  CA  PHE A   3     -35.155  20.110   0.800  0.00  0.00    +0.176 C 
BRANCH   6   8
ATOM      7  OXT PHE A   3     -35.715  18.751  -1.121  0.00  0.00    -0.248 OA
ATOM      8  C   PHE A   3     -35.923  19.029   0.055  0.00  0.00    +0.332 C 
BRANCH   8   9
ATOM      9  O   PHE A   3     -36.860  18.385   0.793  0.00  0.00    -0.479 OA
ATOM     10  H   PHE A   3     -36.660  18.112   1.667  0.00  0.00    +0.295 HD
ENDBRANCH   8   9
ENDBRANCH   6   8
BRANCH   6  11
ATOM     11  CB  PHE A   3     -34.116  19.469   1.729  0.00  0.00    +0.057 C 
BRANCH  11  12
ATOM     12  CG  PHE A   3     -32.771  19.282   1.068  0.00  0.00    -0.020 C 
ATOM     13  CD1 PHE A   3     -32.037  18.119   1.298  0.00  0.00    -0.004 C 
ATOM     14  CD2 PHE A   3     -32.264  20.273   0.228  0.00  0.00    -0.004 C 
ATOM     15  CE1 PHE A   3     -30.794  17.947   0.688  0.00  0.00    -0.000 C 
ATOM     16  CE2 PHE A   3     -31.022  20.101  -0.382  0.00  0.00    -0.000 C 
ATOM     17  CZ  PHE A   3     -30.286  18.938  -0.151  0.00  0.00    -0.000 C 
ENDBRANCH  11  12
ENDBRANCH   6  11
ENDBRANCH   3   6
ENDBRANCH   1   4
BRANCH   1  19
ATOM     18  O   PHE A   1     -36.312  23.484   5.289  0.00  0.00    -0.277 OA
ATOM     19  N   LYS A   2     -36.357  24.219   3.090  0.00  0.00    -0.300 N 
ATOM     20  C   PHE A   1     -36.105  24.358   4.448  0.00  0.00    +0.202 C 
ATOM     21  H   LYS A   2     -36.161  24.975   2.490  0.00  0.00    +0.150 HD
BRANCH  20  22
ATOM     22  CA  PHE A   1     -35.509  25.717   4.800  0.00  0.00    +0.017 C 
BRANCH  22  23
ATOM     23  N   PHE A   1     -36.553  26.467   5.500  0.00  0.00    +0.388 N 
ATOM     24  H1  PHE A   1     -36.278  26.608   6.472  0.00  0.00    -0.089 HD
ATOM     25  H2  PHE A   1     -37.427  25.941   5.468  0.00  0.00    -0.089 HD
ATOM     26  H3  PHE A   1     -36.684  27.371   5.048  0.00  0.00    -0.089 HD
ENDBRANCH  22  23
BRANCH  22  27
ATOM     27  CB  PHE A   1     -34.283  25.554   5.710  0.00  0.00    +0.013 C 
BRANCH  27  28
ATOM     28  CG  PHE A   1     -33.361  26.750   5.673  0.00  0.00    -0.024 C 
ATOM     29  CD1 PHE A   1     -32.776  27.216   6.850  0.00  0.00    -0.004 C 
ATOM     30  CD2 PHE A   1     -33.098  27.390   4.462  0.00  0.00    -0.004 C 
ATOM     31  CE1 PHE A   1     -31.926  28.322   6.814  0.00  0.00    -0.000 C 
ATOM     32  CE2 PHE A   1     -32.248  28.495   4.426  0.00  0.00    -0.000 C 
ATOM     33  CZ  PHE A   1     -31.661  28.961   5.602  0.00  0.00    -0.000 C 
ENDBRANCH  27  28
ENDBRANCH  22  27
ENDBRANCH  20  22
ENDBRANCH   1  19
BRANCH   1  34
ATOM     34  CB  LYS A   2     -38.072  23.275   1.578  0.00  0.00    +0.029 C 
BRANCH  34  35
ATOM     35  CG  LYS A   2     -39.425  22.907   2.195  0.00  0.00    +0.000 C 
BRANCH  35  36
ATOM     36  CD  LYS A   2     -39.903  21.537   1.707  0.00  0.00    -0.024 C 
BRANCH  36  37
ATOM     37  CE  LYS A   2     -39.661  21.368   0.208  0.00  0.00    -0.086 C 
BRANCH  37  38
ATOM     38  NZ  LYS A   2     -39.105  20.048  -0.069  0.00  0.00    +0.380 N 
ATOM     39  HZ1 LYS A   2     -39.695  19.335   0.360  0.00  0.00    -0.089 HD
ATOM     40  HZ2 LYS A   2     -38.164  19.989   0.316  0.00  0.00    -0.089 HD
ATOM     41  HZ3 LYS A   2     -39.071  19.899  -1.077  0.00  0.00    -0.089 HD
ENDBRANCH  37  38
ENDBRANCH  36  37
ENDBRANCH  35  36
ENDBRANCH  34  35
ENDBRANCH   1  34
TORSDOF 16
ENDMDL
MODEL 3
REMARK VINA RESULT:      -6.2      2.063      3.626
REMARK  Name = 52943495
REMARK  16 active torsions:
REMARK  status: ('A' for Active; 'I' for Inactive)
REMARK    1  A    between atoms: CA_1  and  C_4
REMARK    2  A    between atoms: CA_1  and  N_19
REMARK    3  A    between atoms: CA_1  and  CB_34
REMARK    4  A    between atoms: N_3  and  CA_6
REMARK    5  A    between atoms: CA_6  and  C_8
REMARK    6  A    between atoms: CA_6  and  CB_11
REMARK    7  A    between atoms: C_8  and  O_9
REMARK    8  A    between atoms: CB_11  and  CG_12
REMARK    9  A    between atoms: C_20  and  CA_22
REMARK   10  A    between atoms: CA_22  and  N_23
REMARK   11  A    between atoms: CA_22  and  CB_27
REMARK   12  A    between atoms: CB_27  and  CG_28
REMARK   13  A    between atoms: CB_34  and  CG_35
REMARK   14  A    between atoms: CG_35  and  CD_36
REMARK   15  A    between atoms: CD_36  and  CE_37
REMARK   16  A    between atoms: CE_37  and  NZ_38
REMARK                            x       y       z     vdW  Elec       q    Type
REMARK                         _______ _______ _______ _____ _____    ______ ____
ROOT
ATOM      1  CA  LYS A   2     -35.510  23.731   4.772  0.00  0.00    +0.148 C 
ENDROOT
BRANCH   1   4
ATOM      2  O   LYS A   2     -36.696  25.771   5.332  0.00  0.00    -0.273 OA
ATOM      3  N   PHE A   3     -37.259  24.651   3.378  0.00  0.00    -0.295 N 
ATOM      4  C   LYS A   2     -36.528  24.843   4.543  0.00  0.00    +0.241 C 
ATOM      5  H   PHE A   3     -37.048  23.875   2.810  0.00  0.00    +0.150 HD
BRANCH   3   6
ATOM      6  CA  PHE A   3     -38.317  25.544   2.968  0.00  0.00    +0.176 C 
BRANCH   6   8
ATOM      7  OXT PHE A   3     -40.008  23.859   2.575  0.00  0.00    -0.248 OA
ATOM      8  C   PHE A   3     -39.682  24.895   3.145  0.00  0.00    +0.332 C 
BRANCH   8   9
ATOM      9  O   PHE A   3     -40.517  25.548   3.989  0.00  0.00    -0.479 OA
ATOM     10  H   PHE A   3     -41.160  26.138   3.648  0.00  0.00    +0.295 HD
ENDBRANCH   8   9
ENDBRANCH   6   8
BRANCH   6  11
ATOM     11  CB  PHE A   3     -38.134  25.987   1.511  0.00  0.00    +0.057 C 
BRANCH  11  12
ATOM     12  CG  PHE A   3     -36.749  26.518   1.227  0.00  0.00    -0.020 C 
ATOM     13  CD1 PHE A   3     -35.885  25.805   0.397  0.00  0.00    -0.004 C 
ATOM     14  CD2 PHE A   3     -36.335  27.723   1.796  0.00  0.00    -0.004 C 
ATOM     15  CE1 PHE A   3     -34.606  26.295   0.136  0.00  0.00    -0.000 C 
ATOM     16  CE2 PHE A   3     -35.056  28.213   1.534  0.00  0.00    -0.000 C 
ATOM     17  CZ  PHE A   3     -34.191  27.499   0.704  0.00  0.00    -0.000 C 
ENDBRANCH  11  12
ENDBRANCH   6  11
ENDBRANCH   3   6
ENDBRANCH   1   4
BRANCH   1  19
ATOM     18  O   PHE A   1     -35.136  20.900   4.964  0.00  0.00    -0.277 OA
ATOM     19  N   LYS A   2     -35.672  22.774   3.707  0.00  0.00    -0.300 N 
ATOM     20  C   PHE A   1     -35.468  21.414   3.896  0.00  0.00    +0.202 C 
ATOM     21  H   LYS A   2     -35.936  23.096   2.814  0.00  0.00    +0.150 HD
BRANCH  20  22
ATOM     22  CA  PHE A   1     -35.726  20.599   2.633  0.00  0.00    +0.017 C 
BRANCH  22  23
ATOM     23  N   PHE A   1     -37.163  20.675   2.368  0.00  0.00    +0.388 N 
ATOM     24  H1  PHE A   1     -37.450  19.870   1.811  0.00  0.00    -0.089 HD
ATOM     25  H2  PHE A   1     -37.368  21.534   1.856  0.00  0.00    -0.089 HD
ATOM     26  H3  PHE A   1     -37.672  20.677   3.251  0.00  0.00    -0.089 HD
ENDBRANCH  22  23
BRANCH  22  27
ATOM     27  CB  PHE A   1     -34.943  21.175   1.444  0.00  0.00    +0.013 C 
BRANCH  27  28
ATOM     28  CG  PHE A   1     -33.733  20.347   1.082  0.00  0.00    -0.024 C 
ATOM     29  CD1 PHE A   1     -33.591  19.058   1.595  0.00  0.00    -0.004 C 
ATOM     30  CD2 PHE A   1     -32.756  20.873   0.236  0.00  0.00    -0.004 C 
ATOM     31  CE1 PHE A   1     -32.473  18.294   1.260  0.00  0.00    -0.000 C 
ATOM     32  CE2 PHE A   1     -31.638  20.109  -0.099  0.00  0.00    -0.000 C 
ATOM     33  CZ  PHE A   1     -31.497  18.819   0.413  0.00  0.00    -0.000 C 
ENDBRANCH  27  28
ENDBRANCH  22  27
ENDBRANCH  20  22
ENDBRANCH   1  19
BRANCH   1  34
ATOM     34  CB  LYS A   2     -34.093  24.317   4.822  0.00  0.00    +0.029 C 
BRANCH  34  35
ATOM     35  CG  LYS A   2     -33.912  25.499   3.863  0.00  0.00    +0.000 C 
BRANCH  35  36
ATOM     36  CD  LYS A   2     -33.436  26.749   4.607  0.00  0.00    -0.024 C 
BRANCH  36  37
ATOM     37  CE  LYS A   2     -33.480  26.543   6.120  0.00  0.00    -0.086 C 
BRANCH  37  38
ATOM     38  NZ  LYS A   2     -32.572  27.471   6.784  0.00  0.00    +0.380 N 
ATOM     39  HZ1 LYS A   2     -31.640  27.059   6.830  0.00  0.00    -0.089 HD
ATOM     40  HZ2 LYS A   2     -32.908  27.660   7.727  0.00  0.00    -0.089 HD
ATOM     41  HZ3 LYS A   2     -32.531  28.343   6.256  0.00  0.00    -0.089 HD
ENDBRANCH  37  38
ENDBRANCH  36  37
ENDBRANCH  35  36
ENDBRANCH  34  35
ENDBRANCH   1  34
TORSDOF 16
ENDMDL
MODEL 4
REMARK VINA RESULT:      -6.2      1.776      8.818
REMARK  Name = 52943495
REMARK  16 active torsions:
REMARK  status: ('A' for Active; 'I' for Inactive)
REMARK    1  A    between atoms: CA_1  and  C_4
REMARK    2  A    between atoms: CA_1  and  N_19
REMARK    3  A    between atoms: CA_1  and  CB_34
REMARK    4  A    between atoms: N_3  and  CA_6
REMARK    5  A    between atoms: CA_6  and  C_8
REMARK    6  A    between atoms: CA_6  and  CB_11
REMARK    7  A    between atoms: C_8  and  O_9
REMARK    8  A    between atoms: CB_11  and  CG_12
REMARK    9  A    between atoms: C_20  and  CA_22
REMARK   10  A    between atoms: CA_22  and  N_23
REMARK   11  A    between atoms: CA_22  and  CB_27
REMARK   12  A    between atoms: CB_27  and  CG_28
REMARK   13  A    between atoms: CB_34  and  CG_35
REMARK   14  A    between atoms: CG_35  and  CD_36
REMARK   15  A    between atoms: CD_36  and  CE_37
REMARK   16  A    between atoms: CE_37  and  NZ_38
REMARK                            x       y       z     vdW  Elec       q    Type
REMARK                         _______ _______ _______ _____ _____    ______ ____
ROOT
ATOM      1  CA  LYS A   2     -36.083  23.328   3.261  0.00  0.00    +0.148 C 
ENDROOT
BRANCH   1   4
ATOM      2  O   LYS A   2     -35.645  23.176   0.881  0.00  0.00    -0.273 OA
ATOM      3  N   PHE A   3     -35.353  21.285   2.195  0.00  0.00    -0.295 N 
ATOM      4  C   LYS A   2     -35.662  22.621   1.978  0.00  0.00    +0.241 C 
ATOM      5  H   PHE A   3     -35.395  20.932   3.113  0.00  0.00    +0.150 HD
BRANCH   3   6
ATOM      6  CA  PHE A   3     -34.973  20.391   1.125  0.00  0.00    +0.176 C 
BRANCH   6   8
ATOM      7  OXT PHE A   3     -36.574  20.086  -0.662  0.00  0.00    -0.248 OA
ATOM      8  C   PHE A   3     -36.197  19.776   0.463  0.00  0.00    +0.332 C 
BRANCH   8   9
ATOM      9  O   PHE A   3     -36.843  18.850   1.211  0.00  0.00    -0.479 OA
ATOM     10  H   PHE A   3     -37.442  18.255   0.804  0.00  0.00    +0.295 HD
ENDBRANCH   8   9
ENDBRANCH   6   8
BRANCH   6  11
ATOM     11  CB  PHE A   3     -34.042  19.283   1.634  0.00  0.00    +0.057 C 
BRANCH  11  12
ATOM     12  CG  PHE A   3     -32.692  19.291   0.957  0.00  0.00    -0.020 C 
ATOM     13  CD1 PHE A   3     -32.316  20.375   0.164  0.00  0.00    -0.004 C 
ATOM     14  CD2 PHE A   3     -31.822  18.214   1.125  0.00  0.00    -0.004 C 
ATOM     15  CE1 PHE A   3     -31.070  20.382  -0.462  0.00  0.00    -0.000 C 
ATOM     16  CE2 PHE A   3     -30.576  18.222   0.500  0.00  0.00    -0.000 C 
ATOM     17  CZ  PHE A   3     -30.200  19.306  -0.295  0.00  0.00    -0.000 C 
ENDBRANCH  11  12
ENDBRANCH   6  11
ENDBRANCH   3   6
ENDBRANCH   1   4
BRANCH   1  19
ATOM     18  O   PHE A   1     -37.396  25.746   2.474  0.00  0.00    -0.277 OA
ATOM     19  N   LYS A   2     -37.506  23.541   3.186  0.00  0.00    -0.300 N 
ATOM     20  C   PHE A   1     -38.053  24.755   2.791  0.00  0.00    +0.202 C 
ATOM     21  H   LYS A   2     -38.112  22.802   3.424  0.00  0.00    +0.150 HD
BRANCH  20  22
ATOM     22  CA  PHE A   1     -39.578  24.733   2.763  0.00  0.00    +0.017 C 
BRANCH  22  23
ATOM     23  N   PHE A   1     -40.029  24.959   4.137  0.00  0.00    +0.388 N 
ATOM     24  H1  PHE A   1     -41.015  24.711   4.217  0.00  0.00    -0.089 HD
ATOM     25  H2  PHE A   1     -39.904  25.943   4.377  0.00  0.00    -0.089 HD
ATOM     26  H3  PHE A   1     -39.480  24.382   4.774  0.00  0.00    -0.089 HD
ENDBRANCH  22  23
BRANCH  22  27
ATOM     27  CB  PHE A   1     -40.121  25.838   1.846  0.00  0.00    +0.013 C 
BRANCH  27  28
ATOM     28  CG  PHE A   1     -41.631  25.884   1.813  0.00  0.00    -0.024 C 
ATOM     29  CD1 PHE A   1     -42.313  26.878   2.514  0.00  0.00    -0.004 C 
ATOM     30  CD2 PHE A   1     -42.341  24.930   1.084  0.00  0.00    -0.004 C 
ATOM     31  CE1 PHE A   1     -43.707  26.919   2.484  0.00  0.00    -0.000 C 
ATOM     32  CE2 PHE A   1     -43.735  24.972   1.054  0.00  0.00    -0.000 C 
ATOM     33  CZ  PHE A   1     -44.419  25.966   1.753  0.00  0.00    -0.000 C 
ENDBRANCH  27  28
ENDBRANCH  22  27
ENDBRANCH  20  22
ENDBRANCH   1  19
BRANCH   1  34
ATOM     34  CB  LYS A   2     -35.681  22.489   4.481  0.00  0.00    +0.029 C 
BRANCH  34  35
ATOM     35  CG  LYS A   2     -35.080  23.338   5.605  0.00  0.00    +0.000 C 
BRANCH  35  36
ATOM     36  CD  LYS A   2     -34.614  24.700   5.084  0.00  0.00    -0.024 C 
BRANCH  36  37
ATOM     37  CE  LYS A   2     -35.189  25.840   5.924  0.00  0.00    -0.086 C 
BRANCH  37  38
ATOM     38  NZ  LYS A   2     -36.297  26.476   5.221  0.00  0.00    +0.380 N 
ATOM     39  HZ1 LYS A   2     -37.174  26.241   5.687  0.00  0.00    -0.089 HD
ATOM     40  HZ2 LYS A   2     -36.324  26.144   4.258  0.00  0.00    -0.089 HD
ATOM     41  HZ3 LYS A   2     -36.170  27.487   5.230  0.00  0.00    -0.089 HD
ENDBRANCH  37  38
ENDBRANCH  36  37
ENDBRANCH  35  36
ENDBRANCH  34  35
ENDBRANCH   1  34
TORSDOF 16
ENDMDL
MODEL 5
REMARK VINA RESULT:      -6.1      1.123      2.275
REMARK  Name = 52943495
REMARK  16 active torsions:
REMARK  status: ('A' for Active; 'I' for Inactive)
REMARK    1  A    between atoms: CA_1  and  C_4
REMARK    2  A    between atoms: CA_1  and  N_19
REMARK    3  A    between atoms: CA_1  and  CB_34
REMARK    4  A    between atoms: N_3  and  CA_6
REMARK    5  A    between atoms: CA_6  and  C_8
REMARK    6  A    between atoms: CA_6  and  CB_11
REMARK    7  A    between atoms: C_8  and  O_9
REMARK    8  A    between atoms: CB_11  and  CG_12
REMARK    9  A    between atoms: C_20  and  CA_22
REMARK   10  A    between atoms: CA_22  and  N_23
REMARK   11  A    between atoms: CA_22  and  CB_27
REMARK   12  A    between atoms: CB_27  and  CG_28
REMARK   13  A    between atoms: CB_34  and  CG_35
REMARK   14  A    between atoms: CG_35  and  CD_36
REMARK   15  A    between atoms: CD_36  and  CE_37
REMARK   16  A    between atoms: CE_37  and  NZ_38
REMARK                            x       y       z     vdW  Elec       q    Type
REMARK                         _______ _______ _______ _____ _____    ______ ____
ROOT
ATOM      1  CA  LYS A   2     -35.711  23.577   3.469  0.00  0.00    +0.148 C 
ENDROOT
BRANCH   1   4
ATOM      2  O   LYS A   2     -37.723  24.658   4.283  0.00  0.00    -0.273 OA
ATOM      3  N   PHE A   3     -37.888  23.192   2.492  0.00  0.00    -0.295 N 
ATOM      4  C   LYS A   2     -37.202  23.896   3.472  0.00  0.00    +0.241 C 
ATOM      5  H   PHE A   3     -37.380  22.605   1.887  0.00  0.00    +0.150 HD
BRANCH   3   6
ATOM      6  CA  PHE A   3     -39.320  23.286   2.325  0.00  0.00    +0.176 C 
BRANCH   6   8
ATOM      7  OXT PHE A   3     -40.699  22.008   0.803  0.00  0.00    -0.248 OA
ATOM      8  C   PHE A   3     -39.888  22.010   1.724  0.00  0.00    +0.332 C 
BRANCH   8   9
ATOM      9  O   PHE A   3     -39.426  20.864   2.281  0.00  0.00    -0.479 OA
ATOM     10  H   PHE A   3     -39.933  20.424   2.935  0.00  0.00    +0.295 HD
ENDBRANCH   8   9
ENDBRANCH   6   8
BRANCH   6  11
ATOM     11  CB  PHE A   3     -39.697  24.489   1.450  0.00  0.00    +0.057 C 
BRANCH  11  12
ATOM     12  CG  PHE A   3     -40.856  25.281   2.006  0.00  0.00    -0.020 C 
ATOM     13  CD1 PHE A   3     -40.688  26.047   3.160  0.00  0.00    -0.004 C 
ATOM     14  CD2 PHE A   3     -42.095  25.247   1.365  0.00  0.00    -0.004 C 
ATOM     15  CE1 PHE A   3     -41.759  26.778   3.673  0.00  0.00    -0.000 C 
ATOM     16  CE2 PHE A   3     -43.165  25.978   1.879  0.00  0.00    -0.000 C 
ATOM     17  CZ  PHE A   3     -42.997  26.744   3.034  0.00  0.00    -0.000 C 
ENDBRANCH  11  12
ENDBRANCH   6  11
ENDBRANCH   3   6
ENDBRANCH   1   4
BRANCH   1  19
ATOM     18  O   PHE A   1     -35.283  20.913   4.424  0.00  0.00    -0.277 OA
ATOM     19  N   LYS A   2     -35.525  22.400   2.660  0.00  0.00    -0.300 N 
ATOM     20  C   PHE A   1     -35.323  21.144   3.215  0.00  0.00    +0.202 C 
ATOM     21  H   LYS A   2     -35.540  22.489   1.679  0.00  0.00    +0.150 HD
BRANCH  20  22
ATOM     22  CA  PHE A   1     -35.179  20.050   2.162  0.00  0.00    +0.017 C 
BRANCH  22  23
ATOM     23  N   PHE A   1     -36.534  19.657   1.774  0.00  0.00    +0.388 N 
ATOM     24  H1  PHE A   1     -36.821  18.843   2.318  0.00  0.00    -0.089 HD
ATOM     25  H2  PHE A   1     -36.548  19.424   0.781  0.00  0.00    -0.089 HD
ATOM     26  H3  PHE A   1     -37.176  20.429   1.952  0.00  0.00    -0.089 HD
ENDBRANCH  22  23
BRANCH  22  27
ATOM     27  CB  PHE A   1     -34.415  20.573   0.936  0.00  0.00    +0.013 C 
BRANCH  27  28
ATOM     28  CG  PHE A   1     -33.090  19.878   0.731  0.00  0.00    -0.024 C 
ATOM     29  CD1 PHE A   1     -32.098  20.481  -0.042  0.00  0.00    -0.004 C 
ATOM     30  CD2 PHE A   1     -32.859  18.631   1.313  0.00  0.00    -0.004 C 
ATOM     31  CE1 PHE A   1     -30.875  19.838  -0.232  0.00  0.00    -0.000 C 
ATOM     32  CE2 PHE A   1     -31.635  17.989   1.124  0.00  0.00    -0.000 C 
ATOM     33  CZ  PHE A   1     -30.643  18.592   0.352  0.00  0.00    -0.000 C 
ENDBRANCH  27  28
ENDBRANCH  22  27
ENDBRANCH  20  22
ENDBRANCH   1  19
BRANCH   1  34
ATOM     34  CB  LYS A   2     -34.917  24.780   2.945  0.00  0.00    +0.029 C 
BRANCH  34  35
ATOM     35  CG  LYS A   2     -34.386  24.560   1.525  0.00  0.00    +0.000 C 
BRANCH  35  36
ATOM     36  CD  LYS A   2     -35.281  25.240   0.486  0.00  0.00    -0.024 C 
BRANCH  36  37
ATOM     37  CE  LYS A   2     -35.906  24.217  -0.462  0.00  0.00    -0.086 C 
BRANCH  37  38
ATOM     38  NZ  LYS A   2     -37.118  24.760  -1.064  0.00  0.00    +0.380 N 
ATOM     39  HZ1 LYS A   2     -37.659  24.001  -1.480  0.00  0.00    -0.089 HD
ATOM     40  HZ2 LYS A   2     -36.867  25.434  -1.785  0.00  0.00    -0.089 HD
ATOM     41  HZ3 LYS A   2     -37.677  25.220  -0.346  0.00  0.00    -0.089 HD
ENDBRANCH  37  38
ENDBRANCH  36  37
ENDBRANCH  35  36
ENDBRANCH  34  35
ENDBRANCH   1  34
TORSDOF 16
ENDMDL
MODEL 6
REMARK VINA RESULT:      -6.1      5.655      9.681
REMARK  Name = 52943495
REMARK  16 active torsions:
REMARK  status: ('A' for Active; 'I' for Inactive)
REMARK    1  A    between atoms: CA_1  and  C_4
REMARK    2  A    between atoms: CA_1  and  N_19
REMARK    3  A    between atoms: CA_1  and  CB_34
REMARK    4  A    between atoms: N_3  and  CA_6
REMARK    5  A    between atoms: CA_6  and  C_8
REMARK    6  A    between atoms: CA_6  and  CB_11
REMARK    7  A    between atoms: C_8  and  O_9
REMARK    8  A    between atoms: CB_11  and  CG_12
REMARK    9  A    between atoms: C_20  and  CA_22
REMARK   10  A    between atoms: CA_22  and  N_23
REMARK   11  A    between atoms: CA_22  and  CB_27
REMARK   12  A    between atoms: CB_27  and  CG_28
REMARK   13  A    between atoms: CB_34  and  CG_35
REMARK   14  A    between atoms: CG_35  and  CD_36
REMARK   15  A    between atoms: CD_36  and  CE_37
REMARK   16  A    between atoms: CE_37  and  NZ_38
REMARK                            x       y       z     vdW  Elec       q    Type
REMARK                         _______ _______ _______ _____ _____    ______ ____
ROOT
ATOM      1  CA  LYS A   2     -32.568  27.945   4.532  0.00  0.00    +0.148 C 
ENDROOT
BRANCH   1   4
ATOM      2  O   LYS A   2     -32.900  25.613   3.959  0.00  0.00    -0.273 OA
ATOM      3  N   PHE A   3     -34.747  27.015   4.049  0.00  0.00    -0.295 N 
ATOM      4  C   LYS A   2     -33.396  26.718   4.166  0.00  0.00    +0.241 C 
ATOM      5  H   PHE A   3     -35.048  27.934   4.237  0.00  0.00    +0.150 HD
BRANCH   3   6
ATOM      6  CA  PHE A   3     -35.729  26.029   3.663  0.00  0.00    +0.176 C 
BRANCH   6   8
ATOM      7  OXT PHE A   3     -36.696  27.328   1.866  0.00  0.00    -0.248 OA
ATOM      8  C   PHE A   3     -36.870  26.666   2.884  0.00  0.00    +0.332 C 
BRANCH   8   9
ATOM      9  O   PHE A   3     -38.104  26.445   3.399  0.00  0.00    -0.479 OA
ATOM     10  H   PHE A   3     -38.199  26.209   4.301  0.00  0.00    +0.295 HD
ENDBRANCH   8   9
ENDBRANCH   6   8
BRANCH   6  11
ATOM     11  CB  PHE A   3     -36.282  25.289   4.888  0.00  0.00    +0.057 C 
BRANCH  11  12
ATOM     12  CG  PHE A   3     -35.862  23.839   4.938  0.00  0.00    -0.020 C 
ATOM     13  CD1 PHE A   3     -35.946  23.048   3.793  0.00  0.00    -0.004 C 
ATOM     14  CD2 PHE A   3     -35.392  23.290   6.132  0.00  0.00    -0.004 C 
ATOM     15  CE1 PHE A   3     -35.560  21.709   3.840  0.00  0.00    -0.000 C 
ATOM     16  CE2 PHE A   3     -35.006  21.952   6.178  0.00  0.00    -0.000 C 
ATOM     17  CZ  PHE A   3     -35.090  21.160   5.032  0.00  0.00    -0.000 C 
ENDBRANCH  11  12
ENDBRANCH   6  11
ENDBRANCH   3   6
ENDBRANCH   1   4
BRANCH   1  19
ATOM     18  O   PHE A   1     -32.018  29.541   2.221  0.00  0.00    -0.277 OA
ATOM     19  N   LYS A   2     -33.306  29.105   4.100  0.00  0.00    -0.300 N 
ATOM     20  C   PHE A   1     -32.962  29.819   2.960  0.00  0.00    +0.202 C 
ATOM     21  H   LYS A   2     -34.079  29.403   4.632  0.00  0.00    +0.150 HD
BRANCH  20  22
ATOM     22  CA  PHE A   1     -33.904  30.988   2.691  0.00  0.00    +0.017 C 
BRANCH  22  23
ATOM     23  N   PHE A   1     -34.950  30.931   3.713  0.00  0.00    +0.388 N 
ATOM     24  H1  PHE A   1     -35.311  29.979   3.777  0.00  0.00    -0.089 HD
ATOM     25  H2  PHE A   1     -35.708  31.565   3.458  0.00  0.00    -0.089 HD
ATOM     26  H3  PHE A   1     -34.562  31.210   4.613  0.00  0.00    -0.089 HD
ENDBRANCH  22  23
BRANCH  22  27
ATOM     27  CB  PHE A   1     -33.152  32.324   2.786  0.00  0.00    +0.013 C 
BRANCH  27  28
ATOM     28  CG  PHE A   1     -33.805  33.423   1.981  0.00  0.00    -0.024 C 
ATOM     29  CD1 PHE A   1     -33.433  34.751   2.183  0.00  0.00    -0.004 C 
ATOM     30  CD2 PHE A   1     -34.781  33.108   1.036  0.00  0.00    -0.004 C 
ATOM     31  CE1 PHE A   1     -34.036  35.765   1.439  0.00  0.00    -0.000 C 
ATOM     32  CE2 PHE A   1     -35.385  34.122   0.292  0.00  0.00    -0.000 C 
ATOM     33  CZ  PHE A   1     -35.012  35.451   0.493  0.00  0.00    -0.000 C 
ENDBRANCH  27  28
ENDBRANCH  22  27
ENDBRANCH  20  22
ENDBRANCH   1  19
BRANCH   1  34
ATOM     34  CB  LYS A   2     -32.287  27.958   6.040  0.00  0.00    +0.029 C 
BRANCH  34  35
ATOM     35  CG  LYS A   2     -31.703  29.292   6.517  0.00  0.00    +0.000 C 
BRANCH  35  36
ATOM     36  CD  LYS A   2     -30.285  29.501   5.979  0.00  0.00    -0.024 C 
BRANCH  36  37
ATOM     37  CE  LYS A   2     -29.243  29.330   7.083  0.00  0.00    -0.086 C 
BRANCH  37  38
ATOM     38  NZ  LYS A   2     -28.873  27.925   7.216  0.00  0.00    +0.380 N 
ATOM     39  HZ1 LYS A   2     -28.981  27.637   8.188  0.00  0.00    -0.089 HD
ATOM     40  HZ2 LYS A   2     -27.904  27.801   6.929  0.00  0.00    -0.089 HD
ATOM     41  HZ3 LYS A   2     -29.479  27.357   6.625  0.00  0.00    -0.089 HD
ENDBRANCH  37  38
ENDBRANCH  36  37
ENDBRANCH  35  36
ENDBRANCH  34  35
ENDBRANCH   1  34
TORSDOF 16
ENDMDL
MODEL 7
REMARK VINA RESULT:      -6.1      2.321      8.304
REMARK  Name = 52943495
REMARK  16 active torsions:
REMARK  status: ('A' for Active; 'I' for Inactive)
REMARK    1  A    between atoms: CA_1  and  C_4
REMARK    2  A    between atoms: CA_1  and  N_19
REMARK    3  A    between atoms: CA_1  and  CB_34
REMARK    4  A    between atoms: N_3  and  CA_6
REMARK    5  A    between atoms: CA_6  and  C_8
REMARK    6  A    between atoms: CA_6  and  CB_11
REMARK    7  A    between atoms: C_8  and  O_9
REMARK    8  A    between atoms: CB_11  and  CG_12
REMARK    9  A    between atoms: C_20  and  CA_22
REMARK   10  A    between atoms: CA_22  and  N_23
REMARK   11  A    between atoms: CA_22  and  CB_27
REMARK   12  A    between atoms: CB_27  and  CG_28
REMARK   13  A    between atoms: CB_34  and  CG_35
REMARK   14  A    between atoms: CG_35  and  CD_36
REMARK   15  A    between atoms: CD_36  and  CE_37
REMARK   16  A    between atoms: CE_37  and  NZ_38
REMARK                            x       y       z     vdW  Elec       q    Type
REMARK                         _______ _______ _______ _____ _____    ______ ____
ROOT
ATOM      1  CA  LYS A   2     -36.884  22.927   3.032  0.00  0.00    +0.148 C 
ENDROOT
BRANCH   1   4
ATOM      2  O   LYS A   2     -34.819  22.885   1.761  0.00  0.00    -0.273 OA
ATOM      3  N   PHE A   3     -36.098  20.952   1.878  0.00  0.00    -0.295 N 
ATOM      4  C   LYS A   2     -35.805  22.277   2.172  0.00  0.00    +0.241 C 
ATOM      5  H   PHE A   3     -36.914  20.553   2.257  0.00  0.00    +0.150 HD
BRANCH   3   6
ATOM      6  CA  PHE A   3     -35.252  20.137   1.037  0.00  0.00    +0.176 C 
BRANCH   6   8
ATOM      7  OXT PHE A   3     -35.860  18.878  -0.937  0.00  0.00    -0.248 OA
ATOM      8  C   PHE A   3     -36.073  19.131   0.244  0.00  0.00    +0.332 C 
BRANCH   8   9
ATOM      9  O   PHE A   3     -37.062  18.526   0.945  0.00  0.00    -0.479 OA
ATOM     10  H   PHE A   3     -36.851  17.971   1.670  0.00  0.00    +0.295 HD
ENDBRANCH   8   9
ENDBRANCH   6   8
BRANCH   6  11
ATOM     11  CB  PHE A   3     -34.188  19.406   1.866  0.00  0.00    +0.057 C 
BRANCH  11  12
ATOM     12  CG  PHE A   3     -32.885  19.228   1.125  0.00  0.00    -0.020 C 
ATOM     13  CD1 PHE A   3     -32.400  20.250   0.310  0.00  0.00    -0.004 C 
ATOM     14  CD2 PHE A   3     -32.166  18.039   1.255  0.00  0.00    -0.004 C 
ATOM     15  CE1 PHE A   3     -31.197  20.085  -0.375  0.00  0.00    -0.000 C 
ATOM     16  CE2 PHE A   3     -30.963  17.874   0.570  0.00  0.00    -0.000 C 
ATOM     17  CZ  PHE A   3     -30.478  18.897  -0.246  0.00  0.00    -0.000 C 
ENDBRANCH  11  12
ENDBRANCH   6  11
ENDBRANCH   3   6
ENDBRANCH   1   4
BRANCH   1  19
ATOM     18  O   PHE A   1     -35.937  23.515   5.668  0.00  0.00    -0.277 OA
ATOM     19  N   LYS A   2     -36.363  24.190   3.490  0.00  0.00    -0.300 N 
ATOM     20  C   PHE A   1     -35.926  24.381   4.794  0.00  0.00    +0.202 C 
ATOM     21  H   LYS A   2     -36.318  24.944   2.858  0.00  0.00    +0.150 HD
BRANCH  20  22
ATOM     22  CA  PHE A   1     -35.395  25.790   5.036  0.00  0.00    +0.017 C 
BRANCH  22  23
ATOM     23  N   PHE A   1     -36.492  26.560   5.625  0.00  0.00    +0.388 N 
ATOM     24  H1  PHE A   1     -36.357  27.551   5.427  0.00  0.00    -0.089 HD
ATOM     25  H2  PHE A   1     -36.505  26.413   6.635  0.00  0.00    -0.089 HD
ATOM     26  H3  PHE A   1     -37.377  26.250   5.225  0.00  0.00    -0.089 HD
ENDBRANCH  22  23
BRANCH  22  27
ATOM     27  CB  PHE A   1     -34.199  25.763   6.000  0.00  0.00    +0.013 C 
BRANCH  27  28
ATOM     28  CG  PHE A   1     -33.262  26.931   5.806  0.00  0.00    -0.024 C 
ATOM     29  CD1 PHE A   1     -33.096  27.488   4.538  0.00  0.00    -0.004 C 
ATOM     30  CD2 PHE A   1     -32.563  27.452   6.894  0.00  0.00    -0.004 C 
ATOM     31  CE1 PHE A   1     -32.230  28.567   4.360  0.00  0.00    -0.000 C 
ATOM     32  CE2 PHE A   1     -31.697  28.531   6.716  0.00  0.00    -0.000 C 
ATOM     33  CZ  PHE A   1     -31.531  29.089   5.449  0.00  0.00    -0.000 C 
ENDBRANCH  27  28
ENDBRANCH  22  27
ENDBRANCH  20  22
ENDBRANCH   1  19
BRANCH   1  34
ATOM     34  CB  LYS A   2     -38.177  23.085   2.223  0.00  0.00    +0.029 C 
BRANCH  34  35
ATOM     35  CG  LYS A   2     -38.847  24.444   2.446  0.00  0.00    +0.000 C 
BRANCH  35  36
ATOM     36  CD  LYS A   2     -40.240  24.486   1.812  0.00  0.00    -0.024 C 
BRANCH  36  37
ATOM     37  CE  LYS A   2     -41.094  25.594   2.425  0.00  0.00    -0.086 C 
BRANCH  37  38
ATOM     38  NZ  LYS A   2     -40.505  26.052   3.678  0.00  0.00    +0.380 N 
ATOM     39  HZ1 LYS A   2     -41.097  26.775   4.087  0.00  0.00    -0.089 HD
ATOM     40  HZ2 LYS A   2     -39.577  26.434   3.497  0.00  0.00    -0.089 HD
ATOM     41  HZ3 LYS A   2     -40.431  25.268   4.326  0.00  0.00    -0.089 HD
ENDBRANCH  37  38
ENDBRANCH  36  37
ENDBRANCH  35  36
ENDBRANCH  34  35
ENDBRANCH   1  34
TORSDOF 16
ENDMDL
MODEL 8
REMARK VINA RESULT:      -6.1      2.021      7.671
REMARK  Name = 52943495
REMARK  16 active torsions:
REMARK  status: ('A' for Active; 'I' for Inactive)
REMARK    1  A    between atoms: CA_1  and  C_4
REMARK    2  A    between atoms: CA_1  and  N_19
REMARK    3  A    between atoms: CA_1  and  CB_34
REMARK    4  A    between atoms: N_3  and  CA_6
REMARK    5  A    between atoms: CA_6  and  C_8
REMARK    6  A    between atoms: CA_6  and  CB_11
REMARK    7  A    between atoms: C_8  and  O_9
REMARK    8  A    between atoms: CB_11  and  CG_12
REMARK    9  A    between atoms: C_20  and  CA_22
REMARK   10  A    between atoms: CA_22  and  N_23
REMARK   11  A    between atoms: CA_22  and  CB_27
REMARK   12  A    between atoms: CB_27  and  CG_28
REMARK   13  A    between atoms: CB_34  and  CG_35
REMARK   14  A    between atoms: CG_35  and  CD_36
REMARK   15  A    between atoms: CD_36  and  CE_37
REMARK   16  A    between atoms: CE_37  and  NZ_38
REMARK                            x       y       z     vdW  Elec       q    Type
REMARK                         _______ _______ _______ _____ _____    ______ ____
ROOT
ATOM      1  CA  LYS A   2     -35.963  23.267   3.405  0.00  0.00    +0.148 C 
ENDROOT
BRANCH   1   4
ATOM      2  O   LYS A   2     -35.077  23.256   1.147  0.00  0.00    -0.273 OA
ATOM      3  N   PHE A   3     -35.445  21.228   2.213  0.00  0.00    -0.295 N 
ATOM      4  C   LYS A   2     -35.431  22.614   2.133  0.00  0.00    +0.241 C 
ATOM      5  H   PHE A   3     -35.746  20.804   3.049  0.00  0.00    +0.150 HD
BRANCH   3   6
ATOM      6  CA  PHE A   3     -35.035  20.382   1.116  0.00  0.00    +0.176 C 
BRANCH   6   8
ATOM      7  OXT PHE A   3     -36.600  20.153  -0.715  0.00  0.00    -0.248 OA
ATOM      8  C   PHE A   3     -36.239  19.789   0.400  0.00  0.00    +0.332 C 
BRANCH   8   9
ATOM      9  O   PHE A   3     -36.887  18.817   1.087  0.00  0.00    -0.479 OA
ATOM     10  H   PHE A   3     -36.435  18.032   1.326  0.00  0.00    +0.295 HD
ENDBRANCH   8   9
ENDBRANCH   6   8
BRANCH   6  11
ATOM     11  CB  PHE A   3     -34.108  19.259   1.599  0.00  0.00    +0.057 C 
BRANCH  11  12
ATOM     12  CG  PHE A   3     -32.750  19.292   0.940  0.00  0.00    -0.020 C 
ATOM     13  CD1 PHE A   3     -31.870  18.222   1.103  0.00  0.00    -0.004 C 
ATOM     14  CD2 PHE A   3     -32.375  20.393   0.170  0.00  0.00    -0.004 C 
ATOM     15  CE1 PHE A   3     -30.615  18.253   0.495  0.00  0.00    -0.000 C 
ATOM     16  CE2 PHE A   3     -31.121  20.423  -0.438  0.00  0.00    -0.000 C 
ATOM     17  CZ  PHE A   3     -30.240  19.353  -0.275  0.00  0.00    -0.000 C 
ENDBRANCH  11  12
ENDBRANCH   6  11
ENDBRANCH   3   6
ENDBRANCH   1   4
BRANCH   1  19
ATOM     18  O   PHE A   1     -37.591  25.534   2.771  0.00  0.00    -0.277 OA
ATOM     19  N   LYS A   2     -37.401  23.285   3.308  0.00  0.00    -0.300 N 
ATOM     20  C   PHE A   1     -38.106  24.439   2.994  0.00  0.00    +0.202 C 
ATOM     21  H   LYS A   2     -37.900  22.452   3.472  0.00  0.00    +0.150 HD
BRANCH  20  22
ATOM     22  CA  PHE A   1     -39.613  24.207   2.924  0.00  0.00    +0.017 C 
BRANCH  22  23
ATOM     23  N   PHE A   1     -40.217  25.044   3.962  0.00  0.00    +0.388 N 
ATOM     24  H1  PHE A   1     -39.942  24.697   4.881  0.00  0.00    -0.089 HD
ATOM     25  H2  PHE A   1     -41.233  25.010   3.875  0.00  0.00    -0.089 HD
ATOM     26  H3  PHE A   1     -39.898  26.005   3.851  0.00  0.00    -0.089 HD
ENDBRANCH  22  23
BRANCH  22  27
ATOM     27  CB  PHE A   1     -40.160  24.605   1.546  0.00  0.00    +0.013 C 
BRANCH  27  28
ATOM     28  CG  PHE A   1     -40.145  23.464   0.556  0.00  0.00    -0.024 C 
ATOM     29  CD1 PHE A   1     -39.955  22.156   1.003  0.00  0.00    -0.004 C 
ATOM     30  CD2 PHE A   1     -40.320  23.718  -0.804  0.00  0.00    -0.004 C 
ATOM     31  CE1 PHE A   1     -39.940  21.103   0.089  0.00  0.00    -0.000 C 
ATOM     32  CE2 PHE A   1     -40.305  22.664  -1.718  0.00  0.00    -0.000 C 
ATOM     33  CZ  PHE A   1     -40.116  21.357  -1.272  0.00  0.00    -0.000 C 
ENDBRANCH  27  28
ENDBRANCH  22  27
ENDBRANCH  20  22
ENDBRANCH   1  19
BRANCH   1  34
ATOM     34  CB  LYS A   2     -35.469  22.498   4.636  0.00  0.00    +0.029 C 
BRANCH  34  35
ATOM     35  CG  LYS A   2     -34.748  23.401   5.642  0.00  0.00    +0.000 C 
BRANCH  35  36
ATOM     36  CD  LYS A   2     -34.459  24.781   5.042  0.00  0.00    -0.024 C 
BRANCH  36  37
ATOM     37  CE  LYS A   2     -35.043  25.894   5.910  0.00  0.00    -0.086 C 
BRANCH  37  38
ATOM     38  NZ  LYS A   2     -36.243  26.443   5.289  0.00  0.00    +0.380 N 
ATOM     39  HZ1 LYS A   2     -36.994  26.482   5.978  0.00  0.00    -0.089 HD
ATOM     40  HZ2 LYS A   2     -36.525  25.847   4.511  0.00  0.00    -0.089 HD
ATOM     41  HZ3 LYS A   2     -36.049  27.383   4.945  0.00  0.00    -0.089 HD
ENDBRANCH  37  38
ENDBRANCH  36  37
ENDBRANCH  35  36
ENDBRANCH  34  35
ENDBRANCH   1  34
TORSDOF 16
ENDMDL
MODEL 9
REMARK VINA RESULT:      -6.1      1.720      2.507
REMARK  Name = 52943495
REMARK  16 active torsions:
REMARK  status: ('A' for Active; 'I' for Inactive)
REMARK    1  A    between atoms: CA_1  and  C_4
REMARK    2  A    between atoms: CA_1  and  N_19
REMARK    3  A    between atoms: CA_1  and  CB_34
REMARK    4  A    between atoms: N_3  and  CA_6
REMARK    5  A    between atoms: CA_6  and  C_8
REMARK    6  A    between atoms: CA_6  and  CB_11
REMARK    7  A    between atoms: C_8  and  O_9
REMARK    8  A    between atoms: CB_11  and  CG_12
REMARK    9  A    between atoms: C_20  and  CA_22
REMARK   10  A    between atoms: CA_22  and  N_23
REMARK   11  A    between atoms: CA_22  and  CB_27
REMARK   12  A    between atoms: CB_27  and  CG_28
REMARK   13  A    between atoms: CB_34  and  CG_35
REMARK   14  A    between atoms: CG_35  and  CD_36
REMARK   15  A    between atoms: CD_36  and  CE_37
REMARK   16  A    between atoms: CE_37  and  NZ_38
REMARK                            x       y       z     vdW  Elec       q    Type
REMARK                         _______ _______ _______ _____ _____    ______ ____
ROOT
ATOM      1  CA  LYS A   2     -35.187  23.330   2.953  0.00  0.00    +0.148 C 
ENDROOT
BRANCH   1   4
ATOM      2  O   LYS A   2     -37.101  23.703   4.395  0.00  0.00    -0.273 OA
ATOM      3  N   PHE A   3     -37.466  23.246   2.149  0.00  0.00    -0.295 N 
ATOM      4  C   LYS A   2     -36.673  23.467   3.267  0.00  0.00    +0.241 C 
ATOM      5  H   PHE A   3     -37.027  23.064   1.286  0.00  0.00    +0.150 HD
BRANCH   3   6
ATOM      6  CA  PHE A   3     -38.909  23.271   2.202  0.00  0.00    +0.176 C 
BRANCH   6   8
ATOM      7  OXT PHE A   3     -40.567  21.756   1.306  0.00  0.00    -0.248 OA
ATOM      8  C   PHE A   3     -39.494  21.905   1.881  0.00  0.00    +0.332 C 
BRANCH   8   9
ATOM      9  O   PHE A   3     -38.736  20.854   2.275  0.00  0.00    -0.479 OA
ATOM     10  H   PHE A   3     -38.189  20.929   3.032  0.00  0.00    +0.295 HD
ENDBRANCH   8   9
ENDBRANCH   6   8
BRANCH   6  11
ATOM     11  CB  PHE A   3     -39.479  24.323   1.242  0.00  0.00    +0.057 C 
BRANCH  11  12
ATOM     12  CG  PHE A   3     -38.458  25.353   0.822  0.00  0.00    -0.020 C 
ATOM     13  CD1 PHE A   3     -38.133  26.403   1.681  0.00  0.00    -0.004 C 
ATOM     14  CD2 PHE A   3     -37.839  25.255  -0.424  0.00  0.00    -0.004 C 
ATOM     15  CE1 PHE A   3     -37.190  27.355   1.293  0.00  0.00    -0.000 C 
ATOM     16  CE2 PHE A   3     -36.897  26.206  -0.811  0.00  0.00    -0.000 C 
ATOM     17  CZ  PHE A   3     -36.572  27.257   0.047  0.00  0.00    -0.000 C 
ENDBRANCH  11  12
ENDBRANCH   6  11
ENDBRANCH   3   6
ENDBRANCH   1   4
BRANCH   1  19
ATOM     18  O   PHE A   1     -35.234  20.635   3.917  0.00  0.00    -0.277 OA
ATOM     19  N   LYS A   2     -35.024  22.137   2.161  0.00  0.00    -0.300 N 
ATOM     20  C   PHE A   1     -35.061  20.867   2.720  0.00  0.00    +0.202 C 
ATOM     21  H   LYS A   2     -34.879  22.226   1.191  0.00  0.00    +0.150 HD
BRANCH  20  22
ATOM     22  CA  PHE A   1     -34.892  19.762   1.682  0.00  0.00    +0.017 C 
BRANCH  22  23
ATOM     23  N   PHE A   1     -36.237  19.383   1.246  0.00  0.00    +0.388 N 
ATOM     24  H1  PHE A   1     -36.570  20.051   0.551  0.00  0.00    -0.089 HD
ATOM     25  H2  PHE A   1     -36.867  19.385   2.049  0.00  0.00    -0.089 HD
ATOM     26  H3  PHE A   1     -36.211  18.450   0.837  0.00  0.00    -0.089 HD
ENDBRANCH  22  23
BRANCH  22  27
ATOM     27  CB  PHE A   1     -34.075  20.263   0.482  0.00  0.00    +0.013 C 
BRANCH  27  28
ATOM     28  CG  PHE A   1     -32.688  19.668   0.428  0.00  0.00    -0.024 C 
ATOM     29  CD1 PHE A   1     -32.424  18.454   1.061  0.00  0.00    -0.004 C 
ATOM     30  CD2 PHE A   1     -31.669  20.335  -0.253  0.00  0.00    -0.004 C 
ATOM     31  CE1 PHE A   1     -31.143  17.905   1.011  0.00  0.00    -0.000 C 
ATOM     32  CE2 PHE A   1     -30.388  19.787  -0.303  0.00  0.00    -0.000 C 
ATOM     33  CZ  PHE A   1     -30.124  18.572   0.329  0.00  0.00    -0.000 C 
ENDBRANCH  27  28
ENDBRANCH  22  27
ENDBRANCH  20  22
ENDBRANCH   1  19
BRANCH   1  34
ATOM     34  CB  LYS A   2     -34.685  24.586   2.230  0.00  0.00    +0.029 C 
BRANCH  34  35
ATOM     35  CG  LYS A   2     -33.618  25.339   3.032  0.00  0.00    +0.000 C 
BRANCH  35  36
ATOM     36  CD  LYS A   2     -34.127  25.696   4.432  0.00  0.00    -0.024 C 
BRANCH  36  37
ATOM     37  CE  LYS A   2     -35.178  26.803   4.373  0.00  0.00    -0.086 C 
BRANCH  37  38
ATOM     38  NZ  LYS A   2     -36.303  26.478   5.242  0.00  0.00    +0.380 N 
ATOM     39  HZ1 LYS A   2     -36.081  26.751   6.200  0.00  0.00    -0.089 HD
ATOM     40  HZ2 LYS A   2     -36.482  25.476   5.206  0.00  0.00    -0.089 HD
ATOM     41  HZ3 LYS A   2     -37.131  26.984   4.930  0.00  0.00    -0.089 HD
ENDBRANCH  37  38
ENDBRANCH  36  37
ENDBRANCH  35  36
ENDBRANCH  34  35
ENDBRANCH   1  34
TORSDOF 16
ENDMDL
