MODEL 1
REMARK VINA RESULT:      -6.1      0.000      0.000
REMARK  Name = 191168
REMARK  9 active torsions:
REMARK  status: ('A' for Active; 'I' for Inactive)
REMARK    1  A    between atoms: CA_5  and  N_11
REMARK    2  A    between atoms: CA_7  and  C_24
REMARK    3  A    between atoms: C_8  and  C_27
REMARK    4  A    between atoms: C_12  and  C_14
REMARK    5  A    between atoms: C_14  and  S_15
REMARK    6  A    between atoms: S_15  and  C_17
REMARK    7  A    between atoms: C_24  and  O_25
REMARK    8  A    between atoms: C_27  and  O_28
REMARK    9  A    between atoms: O_28  and  C_30
REMARK                            x       y       z     vdW  Elec       q    Type
REMARK                         _______ _______ _______ _____ _____    ______ ____
ROOT
ATOM      1  S   UNL     1     -35.475  23.950   4.673  0.00  0.00    -0.114 S 
ATOM      2  O   UNL     1     -37.909  26.559   1.694  0.00  0.00    -0.273 OA
ATOM      3  N   UNL     1     -36.415  26.118   3.465  0.00  0.00    -0.242 N 
ATOM      4  C   UNL     1     -36.806  25.157   4.480  0.00  0.00    +0.155 C 
ATOM      5  CA  UNL     1     -37.956  24.763   3.527  0.00  0.00    +0.178 C 
ATOM      6  C   UNL     1     -37.511  25.992   2.685  0.00  0.00    +0.251 C 
ATOM      7  CA  UNL     1     -35.252  26.816   3.495  0.00  0.00    +0.127 C 
ATOM      8  C   UNL     1     -34.234  26.461   4.315  0.00  0.00    +0.030 C 
ATOM      9  C   UNL     1     -34.257  25.208   5.188  0.00  0.00    +0.086 C 
ENDROOT
BRANCH   5  11
ATOM     10  O   UNL     1     -40.136  23.244   2.394  0.00  0.00    -0.274 OA
ATOM     11  N   UNL     1     -37.865  23.494   2.805  0.00  0.00    -0.296 N 
ATOM     12  C   UNL     1     -38.981  22.835   2.293  0.00  0.00    +0.234 C 
ATOM     13  H   UNL     1     -36.977  23.089   2.674  0.00  0.00    +0.150 HD
BRANCH  12  14
ATOM     14  C   UNL     1     -38.646  21.554   1.569  0.00  0.00    +0.147 C 
BRANCH  14  15
ATOM     15  S   UNL     1     -37.528  21.928   0.198  0.00  0.00    -0.104 S 
BRANCH  15  17
ATOM     16  N   UNL     1     -34.057  19.166   1.073  0.00  0.00    -0.301 N 
ATOM     17  C   UNL     1     -36.153  20.833   0.544  0.00  0.00    +0.024 C 
ATOM     18  C   UNL     1     -35.674  19.980  -0.445  0.00  0.00    +0.001 C 
ATOM     19  C   UNL     1     -35.562  20.835   1.804  0.00  0.00    +0.022 C 
ATOM     20  C   UNL     1     -34.608  19.144  -0.148  0.00  0.00    +0.118 C 
ATOM     21  C   UNL     1     -34.499  19.977   2.044  0.00  0.00    +0.062 C 
ATOM     22  C   UNL     1     -32.937  18.274   1.357  0.00  0.00    +0.113 C 
ENDBRANCH  15  17
ENDBRANCH  14  15
ENDBRANCH  12  14
ENDBRANCH   5  11
BRANCH   7  24
ATOM     23  OXT UNL     1     -34.764  27.821   1.396  0.00  0.00    -0.244 OA
ATOM     24  C   UNL     1     -35.122  27.937   2.551  0.00  0.00    +0.352 C 
BRANCH  24  25
ATOM     25  O   UNL     1     -35.458  29.085   3.171  0.00  0.00    -0.476 OA
ATOM     26  H   UNL     1     -36.170  29.098   3.780  0.00  0.00    +0.295 HD
ENDBRANCH  24  25
ENDBRANCH   7  24
BRANCH   8  27
ATOM     27  C   UNL     1     -32.944  27.232   4.464  0.00  0.00    +0.233 C 
BRANCH  27  28
ATOM     28  O   UNL     1     -32.901  27.826   5.745  0.00  0.00    -0.444 OA
BRANCH  28  30
ATOM     29  O   UNL     1     -30.649  27.702   6.245  0.00  0.00    -0.250 OA
ATOM     30  C   UNL     1     -31.689  28.336   6.134  0.00  0.00    +0.318 C 
ATOM     31  C   UNL     1     -31.809  29.805   6.410  0.00  0.00    +0.121 C 
ENDBRANCH  28  30
ENDBRANCH  27  28
ENDBRANCH   8  27
TORSDOF 9
ENDMDL
MODEL 2
REMARK VINA RESULT:      -6.0      3.338      8.737
REMARK  Name = 191168
REMARK  9 active torsions:
REMARK  status: ('A' for Active; 'I' for Inactive)
REMARK    1  A    between atoms: CA_5  and  N_11
REMARK    2  A    between atoms: CA_7  and  C_24
REMARK    3  A    between atoms: C_8  and  C_27
REMARK    4  A    between atoms: C_12  and  C_14
REMARK    5  A    between atoms: C_14  and  S_15
REMARK    6  A    between atoms: S_15  and  C_17
REMARK    7  A    between atoms: C_24  and  O_25
REMARK    8  A    between atoms: C_27  and  O_28
REMARK    9  A    between atoms: O_28  and  C_30
REMARK                            x       y       z     vdW  Elec       q    Type
REMARK                         _______ _______ _______ _____ _____    ______ ____
ROOT
ATOM      1  S   UNL     1     -36.090  24.796   2.394  0.00  0.00    -0.114 S 
ATOM      2  O   UNL     1     -35.115  21.202   5.176  0.00  0.00    -0.273 OA
ATOM      3  N   UNL     1     -36.142  22.332   3.379  0.00  0.00    -0.242 N 
ATOM      4  C   UNL     1     -36.730  23.636   3.623  0.00  0.00    +0.155 C 
ATOM      5  CA  UNL     1     -35.997  23.605   4.983  0.00  0.00    +0.178 C 
ATOM      6  C   UNL     1     -35.659  22.130   4.624  0.00  0.00    +0.251 C 
ATOM      7  CA  UNL     1     -36.185  21.698   2.179  0.00  0.00    +0.127 C 
ATOM      8  C   UNL     1     -36.522  22.354   1.043  0.00  0.00    +0.030 C 
ATOM      9  C   UNL     1     -36.778  23.859   0.987  0.00  0.00    +0.086 C 
ENDROOT
BRANCH   5  11
ATOM     10  O   UNL     1     -35.941  26.359   5.850  0.00  0.00    -0.274 OA
ATOM     11  N   UNL     1     -34.816  24.449   5.162  0.00  0.00    -0.296 N 
ATOM     12  C   UNL     1     -34.892  25.773   5.587  0.00  0.00    +0.234 C 
ATOM     13  H   UNL     1     -33.929  24.063   4.976  0.00  0.00    +0.150 HD
BRANCH  12  14
ATOM     14  C   UNL     1     -33.546  26.444   5.720  0.00  0.00    +0.147 C 
BRANCH  14  15
ATOM     15  S   UNL     1     -33.184  27.343   4.194  0.00  0.00    -0.104 S 
BRANCH  15  17
ATOM     16  N   UNL     1     -29.633  29.851   5.438  0.00  0.00    -0.301 N 
ATOM     17  C   UNL     1     -31.777  28.336   4.686  0.00  0.00    +0.024 C 
ATOM     18  C   UNL     1     -30.795  28.665   3.756  0.00  0.00    +0.001 C 
ATOM     19  C   UNL     1     -31.663  28.782   6.000  0.00  0.00    +0.022 C 
ATOM     20  C   UNL     1     -29.717  29.436   4.167  0.00  0.00    +0.118 C 
ATOM     21  C   UNL     1     -30.564  29.549   6.353  0.00  0.00    +0.062 C 
ATOM     22  C   UNL     1     -28.486  30.660   5.840  0.00  0.00    +0.113 C 
ENDBRANCH  15  17
ENDBRANCH  14  15
ENDBRANCH  12  14
ENDBRANCH   5  11
BRANCH   7  24
ATOM     23  OXT UNL     1     -34.659  19.891   1.933  0.00  0.00    -0.244 OA
ATOM     24  C   UNL     1     -35.787  20.281   2.159  0.00  0.00    +0.352 C 
BRANCH  24  25
ATOM     25  O   UNL     1     -36.860  19.512   2.425  0.00  0.00    -0.476 OA
ATOM     26  H   UNL     1     -36.777  18.579   2.437  0.00  0.00    +0.295 HD
ENDBRANCH  24  25
ENDBRANCH   7  24
BRANCH   8  27
ATOM     27  C   UNL     1     -36.671  21.703  -0.311  0.00  0.00    +0.233 C 
BRANCH  27  28
ATOM     28  O   UNL     1     -38.030  21.729  -0.695  0.00  0.00    -0.444 OA
BRANCH  28  30
ATOM     29  O   UNL     1     -38.668  19.592  -0.093  0.00  0.00    -0.250 OA
ATOM     30  C   UNL     1     -38.845  20.803  -0.097  0.00  0.00    +0.318 C 
ATOM     31  C   UNL     1     -40.006  21.483   0.563  0.00  0.00    +0.121 C 
ENDBRANCH  28  30
ENDBRANCH  27  28
ENDBRANCH   8  27
TORSDOF 9
ENDMDL
MODEL 3
REMARK VINA RESULT:      -6.0      2.950      5.616
REMARK  Name = 191168
REMARK  9 active torsions:
REMARK  status: ('A' for Active; 'I' for Inactive)
REMARK    1  A    between atoms: CA_5  and  N_11
REMARK    2  A    between atoms: CA_7  and  C_24
REMARK    3  A    between atoms: C_8  and  C_27
REMARK    4  A    between atoms: C_12  and  C_14
REMARK    5  A    between atoms: C_14  and  S_15
REMARK    6  A    between atoms: S_15  and  C_17
REMARK    7  A    between atoms: C_24  and  O_25
REMARK    8  A    between atoms: C_27  and  O_28
REMARK    9  A    between atoms: O_28  and  C_30
REMARK                            x       y       z     vdW  Elec       q    Type
REMARK                         _______ _______ _______ _____ _____    ______ ____
ROOT
ATOM      1  S   UNL     1     -36.074  24.585   1.375  0.00  0.00    -0.114 S 
ATOM      2  O   UNL     1     -36.005  23.156   5.798  0.00  0.00    -0.273 OA
ATOM      3  N   UNL     1     -35.218  24.255   3.865  0.00  0.00    -0.242 N 
ATOM      4  C   UNL     1     -35.249  23.545   2.600  0.00  0.00    +0.155 C 
ATOM      5  CA  UNL     1     -36.132  22.500   3.319  0.00  0.00    +0.178 C 
ATOM      6  C   UNL     1     -35.787  23.287   4.616  0.00  0.00    +0.251 C 
ATOM      7  CA  UNL     1     -34.720  25.509   4.014  0.00  0.00    +0.127 C 
ATOM      8  C   UNL     1     -34.481  26.307   2.946  0.00  0.00    +0.030 C 
ATOM      9  C   UNL     1     -34.839  25.920   1.512  0.00  0.00    +0.086 C 
ENDROOT
BRANCH   5  11
ATOM     10  O   UNL     1     -37.467  20.797   1.407  0.00  0.00    -0.274 OA
ATOM     11  N   UNL     1     -37.563  22.465   3.018  0.00  0.00    -0.296 N 
ATOM     12  C   UNL     1     -38.114  21.603   2.073  0.00  0.00    +0.234 C 
ATOM     13  H   UNL     1     -38.161  23.077   3.505  0.00  0.00    +0.150 HD
BRANCH  12  14
ATOM     14  C   UNL     1     -39.613  21.727   1.943  0.00  0.00    +0.147 C 
BRANCH  14  15
ATOM     15  S   UNL     1     -39.993  22.844   0.573  0.00  0.00    -0.104 S 
BRANCH  15  17
ATOM     16  N   UNL     1     -41.818  26.365   2.745  0.00  0.00    -0.301 N 
ATOM     17  C   UNL     1     -40.716  24.239   1.434  0.00  0.00    +0.024 C 
ATOM     18  C   UNL     1     -40.055  24.807   2.519  0.00  0.00    +0.001 C 
ATOM     19  C   UNL     1     -41.940  24.756   1.018  0.00  0.00    +0.022 C 
ATOM     20  C   UNL     1     -40.640  25.887   3.166  0.00  0.00    +0.118 C 
ATOM     21  C   UNL     1     -42.475  25.836   1.703  0.00  0.00    +0.062 C 
ATOM     22  C   UNL     1     -42.408  27.501   3.446  0.00  0.00    +0.113 C 
ENDBRANCH  15  17
ENDBRANCH  14  15
ENDBRANCH  12  14
ENDBRANCH   5  11
BRANCH   7  24
ATOM     23  OXT UNL     1     -33.424  26.078   5.925  0.00  0.00    -0.244 OA
ATOM     24  C   UNL     1     -34.512  25.985   5.391  0.00  0.00    +0.352 C 
BRANCH  24  25
ATOM     25  O   UNL     1     -35.701  26.291   5.943  0.00  0.00    -0.476 OA
ATOM     26  H   UNL     1     -35.741  26.617   6.820  0.00  0.00    +0.295 HD
ENDBRANCH  24  25
ENDBRANCH   7  24
BRANCH   8  27
ATOM     27  C   UNL     1     -33.854  27.679   3.024  0.00  0.00    +0.233 C 
BRANCH  27  28
ATOM     28  O   UNL     1     -34.821  28.610   3.462  0.00  0.00    -0.444 OA
BRANCH  28  30
ATOM     29  O   UNL     1     -35.786  29.430   1.530  0.00  0.00    -0.250 OA
ATOM     30  C   UNL     1     -35.162  29.594   2.568  0.00  0.00    +0.318 C 
ATOM     31  C   UNL     1     -34.656  30.923   3.043  0.00  0.00    +0.121 C 
ENDBRANCH  28  30
ENDBRANCH  27  28
ENDBRANCH   8  27
TORSDOF 9
ENDMDL
MODEL 4
REMARK VINA RESULT:      -6.0      2.356      3.610
REMARK  Name = 191168
REMARK  9 active torsions:
REMARK  status: ('A' for Active; 'I' for Inactive)
REMARK    1  A    between atoms: CA_5  and  N_11
REMARK    2  A    between atoms: CA_7  and  C_24
REMARK    3  A    between atoms: C_8  and  C_27
REMARK    4  A    between atoms: C_12  and  C_14
REMARK    5  A    between atoms: C_14  and  S_15
REMARK    6  A    between atoms: S_15  and  C_17
REMARK    7  A    between atoms: C_24  and  O_25
REMARK    8  A    between atoms: C_27  and  O_28
REMARK    9  A    between atoms: O_28  and  C_30
REMARK                            x       y       z     vdW  Elec       q    Type
REMARK                         _______ _______ _______ _____ _____    ______ ____
ROOT
ATOM      1  S   UNL     1     -35.504  22.282   3.480  0.00  0.00    -0.114 S 
ATOM      2  O   UNL     1     -38.557  24.154   0.516  0.00  0.00    -0.273 OA
ATOM      3  N   UNL     1     -37.518  23.769   2.598  0.00  0.00    -0.242 N 
ATOM      4  C   UNL     1     -37.240  22.400   2.993  0.00  0.00    +0.155 C 
ATOM      5  CA  UNL     1     -37.571  22.014   1.534  0.00  0.00    +0.178 C 
ATOM      6  C   UNL     1     -38.035  23.491   1.382  0.00  0.00    +0.251 C 
ATOM      7  CA  UNL     1     -37.254  24.848   3.378  0.00  0.00    +0.127 C 
ATOM      8  C   UNL     1     -36.445  24.756   4.461  0.00  0.00    +0.030 C 
ATOM      9  C   UNL     1     -35.687  23.485   4.839  0.00  0.00    +0.086 C 
ENDROOT
BRANCH   5  11
ATOM     10  O   UNL     1     -36.825  19.355   0.687  0.00  0.00    -0.274 OA
ATOM     11  N   UNL     1     -36.474  21.649   0.639  0.00  0.00    -0.296 N 
ATOM     12  C   UNL     1     -36.192  20.331   0.288  0.00  0.00    +0.234 C 
ATOM     13  H   UNL     1     -35.911  22.367   0.268  0.00  0.00    +0.150 HD
BRANCH  12  14
ATOM     14  C   UNL     1     -35.027  20.194  -0.663  0.00  0.00    +0.147 C 
BRANCH  14  15
ATOM     15  S   UNL     1     -33.671  21.241  -0.084  0.00  0.00    -0.104 S 
BRANCH  15  17
ATOM     16  N   UNL     1     -30.408  18.193   0.630  0.00  0.00    -0.301 N 
ATOM     17  C   UNL     1     -32.379  20.034   0.199  0.00  0.00    +0.024 C 
ATOM     18  C   UNL     1     -32.629  18.916   0.990  0.00  0.00    +0.001 C 
ATOM     19  C   UNL     1     -31.121  20.211  -0.372  0.00  0.00    +0.022 C 
ATOM     20  C   UNL     1     -31.609  17.998   1.192  0.00  0.00    +0.118 C 
ATOM     21  C   UNL     1     -30.140  19.260  -0.135  0.00  0.00    +0.062 C 
ATOM     22  C   UNL     1     -29.355  17.210   0.861  0.00  0.00    +0.113 C 
ENDBRANCH  15  17
ENDBRANCH  14  15
ENDBRANCH  12  14
ENDBRANCH   5  11
BRANCH   7  24
ATOM     23  OXT UNL     1     -39.013  26.412   3.045  0.00  0.00    -0.244 OA
ATOM     24  C   UNL     1     -37.834  26.133   2.958  0.00  0.00    +0.352 C 
BRANCH  24  25
ATOM     25  O   UNL     1     -36.859  26.926   2.474  0.00  0.00    -0.476 OA
ATOM     26  H   UNL     1     -36.755  27.029   1.549  0.00  0.00    +0.295 HD
ENDBRANCH  24  25
ENDBRANCH   7  24
BRANCH   8  27
ATOM     27  C   UNL     1     -36.168  25.888   5.422  0.00  0.00    +0.233 C 
BRANCH  27  28
ATOM     28  O   UNL     1     -35.201  26.752   4.861  0.00  0.00    -0.444 OA
BRANCH  28  30
ATOM     29  O   UNL     1     -33.171  25.926   4.128  0.00  0.00    -0.250 OA
ATOM     30  C   UNL     1     -33.892  26.372   5.011  0.00  0.00    +0.318 C 
ATOM     31  C   UNL     1     -33.451  26.579   6.429  0.00  0.00    +0.121 C 
ENDBRANCH  28  30
ENDBRANCH  27  28
ENDBRANCH   8  27
TORSDOF 9
ENDMDL
MODEL 5
REMARK VINA RESULT:      -5.8      2.917      5.317
REMARK  Name = 191168
REMARK  9 active torsions:
REMARK  status: ('A' for Active; 'I' for Inactive)
REMARK    1  A    between atoms: CA_5  and  N_11
REMARK    2  A    between atoms: CA_7  and  C_24
REMARK    3  A    between atoms: C_8  and  C_27
REMARK    4  A    between atoms: C_12  and  C_14
REMARK    5  A    between atoms: C_14  and  S_15
REMARK    6  A    between atoms: S_15  and  C_17
REMARK    7  A    between atoms: C_24  and  O_25
REMARK    8  A    between atoms: C_27  and  O_28
REMARK    9  A    between atoms: O_28  and  C_30
REMARK                            x       y       z     vdW  Elec       q    Type
REMARK                         _______ _______ _______ _____ _____    ______ ____
ROOT
ATOM      1  S   UNL     1     -35.939  24.462   1.390  0.00  0.00    -0.114 S 
ATOM      2  O   UNL     1     -36.011  23.180   5.858  0.00  0.00    -0.273 OA
ATOM      3  N   UNL     1     -35.157  24.207   3.914  0.00  0.00    -0.242 N 
ATOM      4  C   UNL     1     -35.161  23.455   2.673  0.00  0.00    +0.155 C 
ATOM      5  CA  UNL     1     -36.074  22.444   3.400  0.00  0.00    +0.178 C 
ATOM      6  C   UNL     1     -35.759  23.271   4.679  0.00  0.00    +0.251 C 
ATOM      7  CA  UNL     1     -34.651  25.461   4.036  0.00  0.00    +0.127 C 
ATOM      8  C   UNL     1     -34.373  26.220   2.949  0.00  0.00    +0.030 C 
ATOM      9  C   UNL     1     -34.694  25.790   1.519  0.00  0.00    +0.086 C 
ENDROOT
BRANCH   5  11
ATOM     10  O   UNL     1     -37.368  20.711   1.485  0.00  0.00    -0.274 OA
ATOM     11  N   UNL     1     -37.496  22.412   3.059  0.00  0.00    -0.296 N 
ATOM     12  C   UNL     1     -38.028  21.535   2.117  0.00  0.00    +0.234 C 
ATOM     13  H   UNL     1     -38.104  23.038   3.516  0.00  0.00    +0.150 HD
BRANCH  12  14
ATOM     14  C   UNL     1     -39.521  21.667   1.942  0.00  0.00    +0.147 C 
BRANCH  14  15
ATOM     15  S   UNL     1     -39.854  22.800   0.572  0.00  0.00    -0.104 S 
BRANCH  15  17
ATOM     16  N   UNL     1     -41.780  26.284   2.715  0.00  0.00    -0.301 N 
ATOM     17  C   UNL     1     -40.617  24.180   1.421  0.00  0.00    +0.024 C 
ATOM     18  C   UNL     1     -39.998  24.742   2.534  0.00  0.00    +0.001 C 
ATOM     19  C   UNL     1     -41.830  24.693   0.969  0.00  0.00    +0.022 C 
ATOM     20  C   UNL     1     -40.613  25.810   3.172  0.00  0.00    +0.118 C 
ATOM     21  C   UNL     1     -42.397  25.761   1.647  0.00  0.00    +0.062 C 
ATOM     22  C   UNL     1     -42.403  27.408   3.408  0.00  0.00    +0.113 C 
ENDBRANCH  15  17
ENDBRANCH  14  15
ENDBRANCH  12  14
ENDBRANCH   5  11
BRANCH   7  24
ATOM     23  OXT UNL     1     -33.404  26.086   5.961  0.00  0.00    -0.244 OA
ATOM     24  C   UNL     1     -34.477  25.980   5.401  0.00  0.00    +0.352 C 
BRANCH  24  25
ATOM     25  O   UNL     1     -35.679  26.310   5.911  0.00  0.00    -0.476 OA
ATOM     26  H   UNL     1     -36.116  27.085   5.619  0.00  0.00    +0.295 HD
ENDBRANCH  24  25
ENDBRANCH   7  24
BRANCH   8  27
ATOM     27  C   UNL     1     -33.734  27.588   3.000  0.00  0.00    +0.233 C 
BRANCH  27  28
ATOM     28  O   UNL     1     -32.330  27.450   2.939  0.00  0.00    -0.444 OA
BRANCH  28  30
ATOM     29  O   UNL     1     -30.733  27.743   4.582  0.00  0.00    -0.250 OA
ATOM     30  C   UNL     1     -31.611  28.180   3.850  0.00  0.00    +0.318 C 
ATOM     31  C   UNL     1     -32.053  29.612   3.833  0.00  0.00    +0.121 C 
ENDBRANCH  28  30
ENDBRANCH  27  28
ENDBRANCH   8  27
TORSDOF 9
ENDMDL
MODEL 6
REMARK VINA RESULT:      -5.7      5.538      9.090
REMARK  Name = 191168
REMARK  9 active torsions:
REMARK  status: ('A' for Active; 'I' for Inactive)
REMARK    1  A    between atoms: CA_5  and  N_11
REMARK    2  A    between atoms: CA_7  and  C_24
REMARK    3  A    between atoms: C_8  and  C_27
REMARK    4  A    between atoms: C_12  and  C_14
REMARK    5  A    between atoms: C_14  and  S_15
REMARK    6  A    between atoms: S_15  and  C_17
REMARK    7  A    between atoms: C_24  and  O_25
REMARK    8  A    between atoms: C_27  and  O_28
REMARK    9  A    between atoms: O_28  and  C_30
REMARK                            x       y       z     vdW  Elec       q    Type
REMARK                         _______ _______ _______ _____ _____    ______ ____
ROOT
ATOM      1  S   UNL     1     -39.271  25.875   2.704  0.00  0.00    -0.114 S 
ATOM      2  O   UNL     1     -41.626  22.763   0.178  0.00  0.00    -0.273 OA
ATOM      3  N   UNL     1     -39.731  23.762   1.164  0.00  0.00    -0.242 N 
ATOM      4  C   UNL     1     -39.568  25.200   1.055  0.00  0.00    +0.155 C 
ATOM      5  CA  UNL     1     -41.028  25.231   0.553  0.00  0.00    +0.178 C 
ATOM      6  C   UNL     1     -40.920  23.679   0.529  0.00  0.00    +0.251 C 
ATOM      7  CA  UNL     1     -38.832  22.944   1.769  0.00  0.00    +0.127 C 
ATOM      8  C   UNL     1     -37.856  23.435   2.570  0.00  0.00    +0.030 C 
ATOM      9  C   UNL     1     -37.741  24.911   2.946  0.00  0.00    +0.086 C 
ENDROOT
BRANCH   5  11
ATOM     10  O   UNL     1     -42.528  27.685   0.285  0.00  0.00    -0.274 OA
ATOM     11  N   UNL     1     -42.068  25.731   1.451  0.00  0.00    -0.296 N 
ATOM     12  C   UNL     1     -42.738  26.933   1.236  0.00  0.00    +0.234 C 
ATOM     13  H   UNL     1     -42.305  25.194   2.243  0.00  0.00    +0.150 HD
BRANCH  12  14
ATOM     14  C   UNL     1     -43.783  27.239   2.281  0.00  0.00    +0.147 C 
BRANCH  14  15
ATOM     15  S   UNL     1     -43.454  28.874   2.981  0.00  0.00    -0.104 S 
BRANCH  15  17
ATOM     16  N   UNL     1     -45.406  28.532   7.045  0.00  0.00    -0.301 N 
ATOM     17  C   UNL     1     -44.227  28.739   4.591  0.00  0.00    +0.024 C 
ATOM     18  C   UNL     1     -43.995  29.710   5.560  0.00  0.00    +0.001 C 
ATOM     19  C   UNL     1     -45.063  27.662   4.875  0.00  0.00    +0.022 C 
ATOM     20  C   UNL     1     -44.607  29.579   6.798  0.00  0.00    +0.118 C 
ATOM     21  C   UNL     1     -45.647  27.583   6.130  0.00  0.00    +0.062 C 
ATOM     22  C   UNL     1     -46.037  28.422   8.357  0.00  0.00    +0.113 C 
ENDBRANCH  15  17
ENDBRANCH  14  15
ENDBRANCH  12  14
ENDBRANCH   5  11
BRANCH   7  24
ATOM     23  OXT UNL     1     -38.299  20.820   0.842  0.00  0.00    -0.244 OA
ATOM     24  C   UNL     1     -39.003  21.497   1.565  0.00  0.00    +0.352 C 
BRANCH  24  25
ATOM     25  O   UNL     1     -40.047  21.063   2.296  0.00  0.00    -0.476 OA
ATOM     26  H   UNL     1     -39.954  20.311   2.846  0.00  0.00    +0.295 HD
ENDBRANCH  24  25
ENDBRANCH   7  24
BRANCH   8  27
ATOM     27  C   UNL     1     -36.772  22.601   3.210  0.00  0.00    +0.233 C 
BRANCH  27  28
ATOM     28  O   UNL     1     -36.698  22.908   4.587  0.00  0.00    -0.444 OA
BRANCH  28  30
ATOM     29  O   UNL     1     -34.547  23.747   4.675  0.00  0.00    -0.250 OA
ATOM     30  C   UNL     1     -35.437  23.030   5.112  0.00  0.00    +0.318 C 
ATOM     31  C   UNL     1     -35.289  22.149   6.316  0.00  0.00    +0.121 C 
ENDBRANCH  28  30
ENDBRANCH  27  28
ENDBRANCH   8  27
TORSDOF 9
ENDMDL
MODEL 7
REMARK VINA RESULT:      -5.7      3.907      8.049
REMARK  Name = 191168
REMARK  9 active torsions:
REMARK  status: ('A' for Active; 'I' for Inactive)
REMARK    1  A    between atoms: CA_5  and  N_11
REMARK    2  A    between atoms: CA_7  and  C_24
REMARK    3  A    between atoms: C_8  and  C_27
REMARK    4  A    between atoms: C_12  and  C_14
REMARK    5  A    between atoms: C_14  and  S_15
REMARK    6  A    between atoms: S_15  and  C_17
REMARK    7  A    between atoms: C_24  and  O_25
REMARK    8  A    between atoms: C_27  and  O_28
REMARK    9  A    between atoms: O_28  and  C_30
REMARK                            x       y       z     vdW  Elec       q    Type
REMARK                         _______ _______ _______ _____ _____    ______ ____
ROOT
ATOM      1  S   UNL     1     -33.650  27.280   3.849  0.00  0.00    -0.114 S 
ATOM      2  O   UNL     1     -37.307  28.224   1.140  0.00  0.00    -0.273 OA
ATOM      3  N   UNL     1     -35.805  26.871   2.354  0.00  0.00    -0.242 N 
ATOM      4  C   UNL     1     -34.381  27.108   2.206  0.00  0.00    +0.155 C 
ATOM      5  CA  UNL     1     -34.772  28.420   1.489  0.00  0.00    +0.178 C 
ATOM      6  C   UNL     1     -36.226  27.872   1.551  0.00  0.00    +0.251 C 
ATOM      7  CA  UNL     1     -36.329  25.883   3.124  0.00  0.00    +0.127 C 
ATOM      8  C   UNL     1     -35.579  25.226   4.040  0.00  0.00    +0.030 C 
ATOM      9  C   UNL     1     -34.132  25.596   4.362  0.00  0.00    +0.086 C 
ENDROOT
BRANCH   5  11
ATOM     10  O   UNL     1     -33.047  30.609   0.730  0.00  0.00    -0.274 OA
ATOM     11  N   UNL     1     -34.592  29.687   2.197  0.00  0.00    -0.296 N 
ATOM     12  C   UNL     1     -33.732  30.687   1.749  0.00  0.00    +0.234 C 
ATOM     13  H   UNL     1     -35.102  29.839   3.026  0.00  0.00    +0.150 HD
BRANCH  12  14
ATOM     14  C   UNL     1     -33.721  31.914   2.628  0.00  0.00    +0.147 C 
BRANCH  14  15
ATOM     15  S   UNL     1     -32.016  32.485   2.820  0.00  0.00    -0.104 S 
BRANCH  15  17
ATOM     16  N   UNL     1     -30.271  29.266   5.473  0.00  0.00    -0.301 N 
ATOM     17  C   UNL     1     -31.325  31.209   3.870  0.00  0.00    +0.024 C 
ATOM     18  C   UNL     1     -30.229  30.468   3.438  0.00  0.00    +0.001 C 
ATOM     19  C   UNL     1     -31.882  30.959   5.121  0.00  0.00    +0.022 C 
ATOM     20  C   UNL     1     -29.716  29.486   4.274  0.00  0.00    +0.118 C 
ATOM     21  C   UNL     1     -31.326  29.965   5.913  0.00  0.00    +0.062 C 
ATOM     22  C   UNL     1     -29.709  28.226   6.329  0.00  0.00    +0.113 C 
ENDBRANCH  15  17
ENDBRANCH  14  15
ENDBRANCH  12  14
ENDBRANCH   5  11
BRANCH   7  24
ATOM     23  OXT UNL     1     -38.213  24.724   2.252  0.00  0.00    -0.244 OA
ATOM     24  C   UNL     1     -37.764  25.602   2.962  0.00  0.00    +0.352 C 
BRANCH  24  25
ATOM     25  O   UNL     1     -38.476  26.463   3.714  0.00  0.00    -0.476 OA
ATOM     26  H   UNL     1     -38.998  27.124   3.303  0.00  0.00    +0.295 HD
ENDBRANCH  24  25
ENDBRANCH   7  24
BRANCH   8  27
ATOM     27  C   UNL     1     -36.066  24.065   4.873  0.00  0.00    +0.233 C 
BRANCH  27  28
ATOM     28  O   UNL     1     -35.807  22.857   4.188  0.00  0.00    -0.444 OA
BRANCH  28  30
ATOM     29  O   UNL     1     -35.088  20.691   4.546  0.00  0.00    -0.250 OA
ATOM     30  C   UNL     1     -35.384  21.804   4.958  0.00  0.00    +0.318 C 
ATOM     31  C   UNL     1     -35.333  22.205   6.402  0.00  0.00    +0.121 C 
ENDBRANCH  28  30
ENDBRANCH  27  28
ENDBRANCH   8  27
TORSDOF 9
ENDMDL
MODEL 8
REMARK VINA RESULT:      -5.7      1.648      2.136
REMARK  Name = 191168
REMARK  9 active torsions:
REMARK  status: ('A' for Active; 'I' for Inactive)
REMARK    1  A    between atoms: CA_5  and  N_11
REMARK    2  A    between atoms: CA_7  and  C_24
REMARK    3  A    between atoms: C_8  and  C_27
REMARK    4  A    between atoms: C_12  and  C_14
REMARK    5  A    between atoms: C_14  and  S_15
REMARK    6  A    between atoms: S_15  and  C_17
REMARK    7  A    between atoms: C_24  and  O_25
REMARK    8  A    between atoms: C_27  and  O_28
REMARK    9  A    between atoms: O_28  and  C_30
REMARK                            x       y       z     vdW  Elec       q    Type
REMARK                         _______ _______ _______ _____ _____    ______ ____
ROOT
ATOM      1  S   UNL     1     -35.469  24.117   5.058  0.00  0.00    -0.114 S 
ATOM      2  O   UNL     1     -37.777  26.474   1.783  0.00  0.00    -0.273 OA
ATOM      3  N   UNL     1     -36.342  26.177   3.631  0.00  0.00    -0.242 N 
ATOM      4  C   UNL     1     -36.775  25.317   4.716  0.00  0.00    +0.155 C 
ATOM      5  CA  UNL     1     -37.904  24.852   3.769  0.00  0.00    +0.178 C 
ATOM      6  C   UNL     1     -37.415  25.994   2.832  0.00  0.00    +0.251 C 
ATOM      7  CA  UNL     1     -35.169  26.861   3.633  0.00  0.00    +0.127 C 
ATOM      8  C   UNL     1     -34.181  26.570   4.512  0.00  0.00    +0.030 C 
ATOM      9  C   UNL     1     -34.248  25.402   5.494  0.00  0.00    +0.086 C 
ENDROOT
BRANCH   5  11
ATOM     10  O   UNL     1     -39.918  23.507   2.195  0.00  0.00    -0.274 OA
ATOM     11  N   UNL     1     -37.810  23.522   3.167  0.00  0.00    -0.296 N 
ATOM     12  C   UNL     1     -38.842  22.957   2.421  0.00  0.00    +0.234 C 
ATOM     13  H   UNL     1     -36.982  23.005   3.295  0.00  0.00    +0.150 HD
BRANCH  12  14
ATOM     14  C   UNL     1     -38.516  21.585   1.881  0.00  0.00    +0.147 C 
BRANCH  14  15
ATOM     15  S   UNL     1     -38.100  21.727   0.127  0.00  0.00    -0.104 S 
BRANCH  15  17
ATOM     16  N   UNL     1     -34.182  23.976   0.300  0.00  0.00    -0.301 N 
ATOM     17  C   UNL     1     -36.548  22.617   0.196  0.00  0.00    +0.024 C 
ATOM     18  C   UNL     1     -35.409  21.996   0.699  0.00  0.00    +0.001 C 
ATOM     19  C   UNL     1     -36.478  23.933  -0.255  0.00  0.00    +0.022 C 
ATOM     20  C   UNL     1     -34.220  22.712   0.740  0.00  0.00    +0.118 C 
ATOM     21  C   UNL     1     -35.263  24.598  -0.190  0.00  0.00    +0.062 C 
ATOM     22  C   UNL     1     -32.917  24.703   0.355  0.00  0.00    +0.113 C 
ENDBRANCH  15  17
ENDBRANCH  14  15
ENDBRANCH  12  14
ENDBRANCH   5  11
BRANCH   7  24
ATOM     23  OXT UNL     1     -34.534  27.679   1.492  0.00  0.00    -0.244 OA
ATOM     24  C   UNL     1     -34.996  27.891   2.596  0.00  0.00    +0.352 C 
BRANCH  24  25
ATOM     25  O   UNL     1     -35.425  29.077   3.068  0.00  0.00    -0.476 OA
ATOM     26  H   UNL     1     -34.997  29.472   3.801  0.00  0.00    +0.295 HD
ENDBRANCH  24  25
ENDBRANCH   7  24
BRANCH   8  27
ATOM     27  C   UNL     1     -32.885  27.336   4.630  0.00  0.00    +0.233 C 
BRANCH  27  28
ATOM     28  O   UNL     1     -32.793  27.901   5.921  0.00  0.00    -0.444 OA
BRANCH  28  30
ATOM     29  O   UNL     1     -30.510  27.699   6.213  0.00  0.00    -0.250 OA
ATOM     30  C   UNL     1     -31.550  28.337   6.302  0.00  0.00    +0.318 C 
ATOM     31  C   UNL     1     -31.635  29.728   6.856  0.00  0.00    +0.121 C 
ENDBRANCH  28  30
ENDBRANCH  27  28
ENDBRANCH   8  27
TORSDOF 9
ENDMDL
MODEL 9
REMARK VINA RESULT:      -5.4      3.879      8.875
REMARK  Name = 191168
REMARK  9 active torsions:
REMARK  status: ('A' for Active; 'I' for Inactive)
REMARK    1  A    between atoms: CA_5  and  N_11
REMARK    2  A    between atoms: CA_7  and  C_24
REMARK    3  A    between atoms: C_8  and  C_27
REMARK    4  A    between atoms: C_12  and  C_14
REMARK    5  A    between atoms: C_14  and  S_15
REMARK    6  A    between atoms: S_15  and  C_17
REMARK    7  A    between atoms: C_24  and  O_25
REMARK    8  A    between atoms: C_27  and  O_28
REMARK    9  A    between atoms: O_28  and  C_30
REMARK                            x       y       z     vdW  Elec       q    Type
REMARK                         _______ _______ _______ _____ _____    ______ ____
ROOT
ATOM      1  S   UNL     1     -33.785  24.499   0.972  0.00  0.00    -0.114 S 
ATOM      2  O   UNL     1     -36.244  23.522   4.795  0.00  0.00    -0.273 OA
ATOM      3  N   UNL     1     -35.573  23.322   2.543  0.00  0.00    -0.242 N 
ATOM      4  C   UNL     1     -35.413  24.531   1.755  0.00  0.00    +0.155 C 
ATOM      5  CA  UNL     1     -35.517  25.300   3.091  0.00  0.00    +0.178 C 
ATOM      6  C   UNL     1     -35.895  23.923   3.709  0.00  0.00    +0.251 C 
ATOM      7  CA  UNL     1     -35.399  22.071   2.047  0.00  0.00    +0.127 C 
ATOM      8  C   UNL     1     -34.781  21.859   0.861  0.00  0.00    +0.030 C 
ATOM      9  C   UNL     1     -34.143  22.974   0.035  0.00  0.00    +0.086 C 
ENDROOT
BRANCH   5  11
ATOM     10  O   UNL     1     -34.937  28.107   3.449  0.00  0.00    -0.274 OA
ATOM     11  N   UNL     1     -34.303  25.883   3.660  0.00  0.00    -0.296 N 
ATOM     12  C   UNL     1     -34.115  27.258   3.791  0.00  0.00    +0.234 C 
ATOM     13  H   UNL     1     -33.587  25.279   3.964  0.00  0.00    +0.150 HD
BRANCH  12  14
ATOM     14  C   UNL     1     -32.796  27.630   4.423  0.00  0.00    +0.147 C 
BRANCH  14  15
ATOM     15  S   UNL     1     -32.416  29.351   4.017  0.00  0.00    -0.104 S 
BRANCH  15  17
ATOM     16  N   UNL     1     -28.687  30.062   6.474  0.00  0.00    -0.301 N 
ATOM     17  C   UNL     1     -30.939  29.633   4.990  0.00  0.00    +0.024 C 
ATOM     18  C   UNL     1     -30.069  30.667   4.655  0.00  0.00    +0.001 C 
ATOM     19  C   UNL     1     -30.658  28.819   6.084  0.00  0.00    +0.022 C 
ATOM     20  C   UNL     1     -28.933  30.861   5.427  0.00  0.00    +0.118 C 
ATOM     21  C   UNL     1     -29.507  29.060   6.819  0.00  0.00    +0.062 C 
ATOM     22  C   UNL     1     -27.484  30.291   7.268  0.00  0.00    +0.113 C 
ENDBRANCH  15  17
ENDBRANCH  14  15
ENDBRANCH  12  14
ENDBRANCH   5  11
BRANCH   7  24
ATOM     23  OXT UNL     1     -35.176  20.417   3.741  0.00  0.00    -0.244 OA
ATOM     24  C   UNL     1     -35.855  20.952   2.887  0.00  0.00    +0.352 C 
BRANCH  24  25
ATOM     25  O   UNL     1     -37.119  20.629   2.554  0.00  0.00    -0.476 OA
ATOM     26  H   UNL     1     -37.686  21.277   2.184  0.00  0.00    +0.295 HD
ENDBRANCH  24  25
ENDBRANCH   7  24
BRANCH   8  27
ATOM     27  C   UNL     1     -34.622  20.507   0.206  0.00  0.00    +0.233 C 
BRANCH  27  28
ATOM     28  O   UNL     1     -33.252  20.260  -0.030  0.00  0.00    -0.444 OA
BRANCH  28  30
ATOM     29  O   UNL     1     -33.208  18.704   1.676  0.00  0.00    -0.250 OA
ATOM     30  C   UNL     1     -32.662  19.312   0.765  0.00  0.00    +0.318 C 
ATOM     31  C   UNL     1     -31.231  19.115   0.364  0.00  0.00    +0.121 C 
ENDBRANCH  28  30
ENDBRANCH  27  28
ENDBRANCH   8  27
TORSDOF 9
ENDMDL
