MODEL 1
REMARK VINA RESULT:      -5.9      0.000      0.000
REMARK  Name = 195614
REMARK  4 active torsions:
REMARK  status: ('A' for Active; 'I' for Inactive)
REMARK    1  A    between atoms: N_2  and  C1*_17
REMARK    2  A    between atoms: C3*_19  and  O3*_21
REMARK    3  A    between atoms: C4*_20  and  C5*_23
REMARK    4  A    between atoms: C5*_23  and  O5*_24
REMARK                            x       y       z     vdW  Elec       q    Type
REMARK                         _______ _______ _______ _____ _____    ______ ____
ROOT
ATOM      1  O   UNL     1     -37.067  29.311   0.939  0.00  0.00    -0.268 OA
ATOM      2  N   UNL     1     -35.736  25.386   2.809  0.00  0.00    -0.209 NA
ATOM      3  N   UNL     1     -34.310  27.351   3.200  0.00  0.00    -0.253 N 
ATOM      4  N   UNL     1     -35.140  29.331   2.144  0.00  0.00    -0.211 N 
ATOM      5  N   UNL     1     -37.320  26.361   1.554  0.00  0.00    -0.249 NA
ATOM      6  N   UNL     1     -33.227  29.556   3.280  0.00  0.00    -0.380 NA
ATOM      7  C   UNL     1     -35.387  26.696   2.690  0.00  0.00    +0.186 C 
ATOM      8  C   UNL     1     -36.370  27.268   1.917  0.00  0.00    +0.143 C 
ATOM      9  C   UNL     1     -36.910  25.234   2.107  0.00  0.00    +0.204 C 
ATOM     10  C   UNL     1     -34.163  28.695   2.928  0.00  0.00    +0.248 C 
ATOM     11  C   UNL     1     -36.269  28.673   1.610  0.00  0.00    +0.272 C 
ATOM     12  C   UNL     1     -33.307  26.685   4.015  0.00  0.00    +0.117 C 
ATOM     13  C   UNL     1     -34.773  30.644   2.021  0.00  0.00    +0.156 C 
ATOM     14  C   UNL     1     -33.598  30.755   2.726  0.00  0.00    +0.111 C 
ATOM     15  C   UNL     1     -32.768  31.954   2.921  0.00  0.00    +0.063 C 
ENDROOT
BRANCH   2  17
ATOM     16  O4* UNL     1     -35.573  24.187   4.855  0.00  0.00    -0.338 OA
ATOM     17  C1* UNL     1     -35.060  24.295   3.517  0.00  0.00    +0.182 C 
ATOM     18  C2* UNL     1     -35.214  22.934   2.842  0.00  0.00    +0.079 C 
ATOM     19  C3* UNL     1     -36.215  22.214   3.719  0.00  0.00    +0.144 C 
ATOM     20  C4* UNL     1     -35.995  22.831   5.090  0.00  0.00    +0.173 C 
BRANCH  19  21
ATOM     21  O3* UNL     1     -37.537  22.513   3.283  0.00  0.00    -0.382 OA
ATOM     22  H3* UNL     1     -37.975  23.076   3.942  0.00  0.00    +0.210 HD
ENDBRANCH  19  21
BRANCH  20  23
ATOM     23  C5* UNL     1     -34.906  22.128   5.891  0.00  0.00    +0.169 C 
BRANCH  23  24
ATOM     24  O5* UNL     1     -35.161  20.733   5.884  0.00  0.00    -0.379 OA
ATOM     25  H5* UNL     1     -34.343  20.254   6.093  0.00  0.00    +0.211 HD
ENDBRANCH  23  24
ENDBRANCH  20  23
ENDBRANCH   2  17
TORSDOF 4
ENDMDL
MODEL 2
REMARK VINA RESULT:      -5.9      2.874      4.251
REMARK  Name = 195614
REMARK  4 active torsions:
REMARK  status: ('A' for Active; 'I' for Inactive)
REMARK    1  A    between atoms: N_2  and  C1*_17
REMARK    2  A    between atoms: C3*_19  and  O3*_21
REMARK    3  A    between atoms: C4*_20  and  C5*_23
REMARK    4  A    between atoms: C5*_23  and  O5*_24
REMARK                            x       y       z     vdW  Elec       q    Type
REMARK                         _______ _______ _______ _____ _____    ______ ____
ROOT
ATOM      1  O   UNL     1     -30.779  30.012   6.344  0.00  0.00    -0.268 OA
ATOM      2  N   UNL     1     -33.300  26.511   4.909  0.00  0.00    -0.209 NA
ATOM      3  N   UNL     1     -32.097  27.800   3.194  0.00  0.00    -0.253 N 
ATOM      4  N   UNL     1     -30.827  29.610   4.108  0.00  0.00    -0.211 N 
ATOM      5  N   UNL     1     -32.636  27.655   6.721  0.00  0.00    -0.249 NA
ATOM      6  N   UNL     1     -30.749  29.383   1.884  0.00  0.00    -0.380 NA
ATOM      7  C   UNL     1     -32.480  27.502   4.465  0.00  0.00    +0.186 C 
ATOM      8  C   UNL     1     -32.090  28.187   5.592  0.00  0.00    +0.143 C 
ATOM      9  C   UNL     1     -33.361  26.645   6.277  0.00  0.00    +0.204 C 
ATOM     10  C   UNL     1     -31.257  28.875   2.991  0.00  0.00    +0.248 C 
ATOM     11  C   UNL     1     -31.206  29.316   5.435  0.00  0.00    +0.272 C 
ATOM     12  C   UNL     1     -32.544  27.030   2.045  0.00  0.00    +0.117 C 
ATOM     13  C   UNL     1     -30.013  30.610   3.648  0.00  0.00    +0.156 C 
ATOM     14  C   UNL     1     -29.982  30.448   2.284  0.00  0.00    +0.111 C 
ATOM     15  C   UNL     1     -29.256  31.256   1.292  0.00  0.00    +0.063 C 
ENDROOT
BRANCH   2  17
ATOM     16  O4* UNL     1     -34.303  24.359   5.015  0.00  0.00    -0.338 OA
ATOM     17  C1* UNL     1     -34.012  25.475   4.157  0.00  0.00    +0.182 C 
ATOM     18  C2* UNL     1     -35.325  25.952   3.542  0.00  0.00    +0.079 C 
ATOM     19  C3* UNL     1     -36.381  25.329   4.430  0.00  0.00    +0.144 C 
ATOM     20  C4* UNL     1     -35.711  24.065   4.945  0.00  0.00    +0.173 C 
BRANCH  19  21
ATOM     21  O3* UNL     1     -36.651  26.191   5.531  0.00  0.00    -0.382 OA
ATOM     22  H3* UNL     1     -36.440  25.732   6.360  0.00  0.00    +0.210 HD
ENDBRANCH  19  21
BRANCH  20  23
ATOM     23  C5* UNL     1     -35.900  22.872   4.017  0.00  0.00    +0.169 C 
BRANCH  23  24
ATOM     24  O5* UNL     1     -37.277  22.752   3.698  0.00  0.00    -0.379 OA
ATOM     25  H5* UNL     1     -37.752  22.376   4.456  0.00  0.00    +0.211 HD
ENDBRANCH  23  24
ENDBRANCH  20  23
ENDBRANCH   2  17
TORSDOF 4
ENDMDL
MODEL 3
REMARK VINA RESULT:      -5.9      3.288      6.395
REMARK  Name = 195614
REMARK  4 active torsions:
REMARK  status: ('A' for Active; 'I' for Inactive)
REMARK    1  A    between atoms: N_2  and  C1*_17
REMARK    2  A    between atoms: C3*_19  and  O3*_21
REMARK    3  A    between atoms: C4*_20  and  C5*_23
REMARK    4  A    between atoms: C5*_23  and  O5*_24
REMARK                            x       y       z     vdW  Elec       q    Type
REMARK                         _______ _______ _______ _____ _____    ______ ____
ROOT
ATOM      1  O   UNL     1     -36.911  24.436   4.839  0.00  0.00    -0.268 OA
ATOM      2  N   UNL     1     -33.560  27.498   4.594  0.00  0.00    -0.209 NA
ATOM      3  N   UNL     1     -35.327  27.637   2.890  0.00  0.00    -0.253 N 
ATOM      4  N   UNL     1     -37.008  25.953   3.151  0.00  0.00    -0.211 N 
ATOM      5  N   UNL     1     -34.339  25.740   5.749  0.00  0.00    -0.249 NA
ATOM      6  N   UNL     1     -37.280  27.350   1.425  0.00  0.00    -0.380 NA
ATOM      7  C   UNL     1     -34.713  27.111   3.984  0.00  0.00    +0.186 C 
ATOM      8  C   UNL     1     -35.167  26.034   4.708  0.00  0.00    +0.143 C 
ATOM      9  C   UNL     1     -33.378  26.640   5.655  0.00  0.00    +0.204 C 
ATOM     10  C   UNL     1     -36.497  27.056   2.446  0.00  0.00    +0.248 C 
ATOM     11  C   UNL     1     -36.391  25.396   4.291  0.00  0.00    +0.272 C 
ATOM     12  C   UNL     1     -34.794  28.781   2.171  0.00  0.00    +0.117 C 
ATOM     13  C   UNL     1     -38.160  25.567   2.521  0.00  0.00    +0.156 C 
ATOM     14  C   UNL     1     -38.304  26.438   1.468  0.00  0.00    +0.111 C 
ATOM     15  C   UNL     1     -39.376  26.474   0.461  0.00  0.00    +0.063 C 
ENDROOT
BRANCH   2  17
ATOM     16  O4* UNL     1     -32.773  29.654   5.212  0.00  0.00    -0.338 OA
ATOM     17  C1* UNL     1     -32.639  28.588   4.258  0.00  0.00    +0.182 C 
ATOM     18  C2* UNL     1     -31.172  28.167   4.223  0.00  0.00    +0.079 C 
ATOM     19  C3* UNL     1     -30.605  28.751   5.498  0.00  0.00    +0.144 C 
ATOM     20  C4* UNL     1     -31.475  29.972   5.748  0.00  0.00    +0.173 C 
BRANCH  19  21
ATOM     21  O3* UNL     1     -30.783  27.829   6.568  0.00  0.00    -0.382 OA
ATOM     22  H3* UNL     1     -30.453  28.222   7.393  0.00  0.00    +0.210 HD
ENDBRANCH  19  21
BRANCH  20  23
ATOM     23  C5* UNL     1     -30.963  31.221   5.042  0.00  0.00    +0.169 C 
BRANCH  23  24
ATOM     24  O5* UNL     1     -29.554  31.284   5.184  0.00  0.00    -0.379 OA
ATOM     25  H5* UNL     1     -29.241  30.493   5.653  0.00  0.00    +0.211 HD
ENDBRANCH  23  24
ENDBRANCH  20  23
ENDBRANCH   2  17
TORSDOF 4
ENDMDL
MODEL 4
REMARK VINA RESULT:      -5.9      2.843      3.858
REMARK  Name = 195614
REMARK  4 active torsions:
REMARK  status: ('A' for Active; 'I' for Inactive)
REMARK    1  A    between atoms: N_2  and  C1*_17
REMARK    2  A    between atoms: C3*_19  and  O3*_21
REMARK    3  A    between atoms: C4*_20  and  C5*_23
REMARK    4  A    between atoms: C5*_23  and  O5*_24
REMARK                            x       y       z     vdW  Elec       q    Type
REMARK                         _______ _______ _______ _____ _____    ______ ____
ROOT
ATOM      1  O   UNL     1     -34.215  26.401   6.244  0.00  0.00    -0.268 OA
ATOM      2  N   UNL     1     -35.198  23.138   3.235  0.00  0.00    -0.209 NA
ATOM      3  N   UNL     1     -33.863  25.038   2.427  0.00  0.00    -0.253 N 
ATOM      4  N   UNL     1     -33.441  26.671   4.124  0.00  0.00    -0.211 N 
ATOM      5  N   UNL     1     -35.455  23.786   5.367  0.00  0.00    -0.249 NA
ATOM      6  N   UNL     1     -32.599  27.121   2.102  0.00  0.00    -0.380 NA
ATOM      7  C   UNL     1     -34.549  24.327   3.361  0.00  0.00    +0.186 C 
ATOM      8  C   UNL     1     -34.724  24.702   4.673  0.00  0.00    +0.143 C 
ATOM      9  C   UNL     1     -35.727  22.853   4.473  0.00  0.00    +0.204 C 
ATOM     10  C   UNL     1     -33.295  26.240   2.795  0.00  0.00    +0.248 C 
ATOM     11  C   UNL     1     -34.142  25.946   5.112  0.00  0.00    +0.272 C 
ATOM     12  C   UNL     1     -33.714  24.581   1.055  0.00  0.00    +0.117 C 
ATOM     13  C   UNL     1     -32.795  27.872   4.236  0.00  0.00    +0.156 C 
ATOM     14  C   UNL     1     -32.288  28.125   2.984  0.00  0.00    +0.111 C 
ATOM     15  C   UNL     1     -31.504  29.288   2.541  0.00  0.00    +0.063 C 
ENDROOT
BRANCH   2  17
ATOM     16  O4* UNL     1     -35.437  20.899   2.474  0.00  0.00    -0.338 OA
ATOM     17  C1* UNL     1     -35.353  22.272   2.062  0.00  0.00    +0.182 C 
ATOM     18  C2* UNL     1     -36.587  22.589   1.222  0.00  0.00    +0.079 C 
ATOM     19  C3* UNL     1     -37.542  21.464   1.555  0.00  0.00    +0.144 C 
ATOM     20  C4* UNL     1     -36.620  20.307   1.907  0.00  0.00    +0.173 C 
BRANCH  19  21
ATOM     21  O3* UNL     1     -38.308  21.810   2.704  0.00  0.00    -0.382 OA
ATOM     22  H3* UNL     1     -38.474  21.014   3.235  0.00  0.00    +0.210 HD
ENDBRANCH  19  21
BRANCH  20  23
ATOM     23  C5* UNL     1     -36.205  19.488   0.691  0.00  0.00    +0.169 C 
BRANCH  23  24
ATOM     24  O5* UNL     1     -36.959  18.287   0.668  0.00  0.00    -0.379 OA
ATOM     25  H5* UNL     1     -36.814  17.799   1.494  0.00  0.00    +0.211 HD
ENDBRANCH  23  24
ENDBRANCH  20  23
ENDBRANCH   2  17
TORSDOF 4
ENDMDL
MODEL 5
REMARK VINA RESULT:      -5.8      2.812      3.635
REMARK  Name = 195614
REMARK  4 active torsions:
REMARK  status: ('A' for Active; 'I' for Inactive)
REMARK    1  A    between atoms: N_2  and  C1*_17
REMARK    2  A    between atoms: C3*_19  and  O3*_21
REMARK    3  A    between atoms: C4*_20  and  C5*_23
REMARK    4  A    between atoms: C5*_23  and  O5*_24
REMARK                            x       y       z     vdW  Elec       q    Type
REMARK                         _______ _______ _______ _____ _____    ______ ____
ROOT
ATOM      1  O   UNL     1     -32.331  28.408   6.279  0.00  0.00    -0.268 OA
ATOM      2  N   UNL     1     -34.639  25.227   3.995  0.00  0.00    -0.209 NA
ATOM      3  N   UNL     1     -32.923  26.472   2.750  0.00  0.00    -0.253 N 
ATOM      4  N   UNL     1     -31.807  28.113   4.088  0.00  0.00    -0.211 N 
ATOM      5  N   UNL     1     -34.400  26.222   5.992  0.00  0.00    -0.249 NA
ATOM      6  N   UNL     1     -31.152  27.980   1.953  0.00  0.00    -0.380 NA
ATOM      7  C   UNL     1     -33.655  26.156   3.852  0.00  0.00    +0.186 C 
ATOM      8  C   UNL     1     -33.530  26.750   5.085  0.00  0.00    +0.143 C 
ATOM      9  C   UNL     1     -35.056  25.305   5.305  0.00  0.00    +0.204 C 
ATOM     10  C   UNL     1     -31.978  27.473   2.849  0.00  0.00    +0.248 C 
ATOM     11  C   UNL     1     -32.551  27.797   5.245  0.00  0.00    +0.272 C 
ATOM     12  C   UNL     1     -33.103  25.800   1.475  0.00  0.00    +0.117 C 
ATOM     13  C   UNL     1     -30.824  29.052   3.928  0.00  0.00    +0.156 C 
ATOM     14  C   UNL     1     -30.440  28.950   2.613  0.00  0.00    +0.111 C 
ATOM     15  C   UNL     1     -29.413  29.730   1.905  0.00  0.00    +0.063 C 
ENDROOT
BRANCH   2  17
ATOM     16  O4* UNL     1     -35.535  23.052   3.651  0.00  0.00    -0.338 OA
ATOM     17  C1* UNL     1     -35.202  24.296   3.013  0.00  0.00    +0.182 C 
ATOM     18  C2* UNL     1     -36.456  24.819   2.317  0.00  0.00    +0.079 C 
ATOM     19  C3* UNL     1     -37.575  24.031   2.961  0.00  0.00    +0.144 C 
ATOM     20  C4* UNL     1     -36.907  22.726   3.361  0.00  0.00    +0.173 C 
BRANCH  19  21
ATOM     21  O3* UNL     1     -38.019  24.702   4.136  0.00  0.00    -0.382 OA
ATOM     22  H3* UNL     1     -37.433  24.478   4.877  0.00  0.00    +0.210 HD
ENDBRANCH  19  21
BRANCH  20  23
ATOM     23  C5* UNL     1     -36.922  21.685   2.248  0.00  0.00    +0.169 C 
BRANCH  23  24
ATOM     24  O5* UNL     1     -38.158  20.992   2.286  0.00  0.00    -0.379 OA
ATOM     25  H5* UNL     1     -38.316  20.662   3.184  0.00  0.00    +0.211 HD
ENDBRANCH  23  24
ENDBRANCH  20  23
ENDBRANCH   2  17
TORSDOF 4
ENDMDL
MODEL 6
REMARK VINA RESULT:      -5.8      3.525      7.025
REMARK  Name = 195614
REMARK  4 active torsions:
REMARK  status: ('A' for Active; 'I' for Inactive)
REMARK    1  A    between atoms: N_2  and  C1*_17
REMARK    2  A    between atoms: C3*_19  and  O3*_21
REMARK    3  A    between atoms: C4*_20  and  C5*_23
REMARK    4  A    between atoms: C5*_23  and  O5*_24
REMARK                            x       y       z     vdW  Elec       q    Type
REMARK                         _______ _______ _______ _____ _____    ______ ____
ROOT
ATOM      1  O   UNL     1     -40.333  21.919   1.488  0.00  0.00    -0.268 OA
ATOM      2  N   UNL     1     -36.705  24.042   3.220  0.00  0.00    -0.209 NA
ATOM      3  N   UNL     1     -36.278  22.195   1.653  0.00  0.00    -0.253 N 
ATOM      4  N   UNL     1     -38.285  21.178   0.841  0.00  0.00    -0.211 N 
ATOM      5  N   UNL     1     -38.948  23.986   3.207  0.00  0.00    -0.249 NA
ATOM      6  N   UNL     1     -36.369  20.302   0.089  0.00  0.00    -0.380 NA
ATOM      7  C   UNL     1     -37.065  23.037   2.376  0.00  0.00    +0.186 C 
ATOM      8  C   UNL     1     -38.439  23.023   2.387  0.00  0.00    +0.143 C 
ATOM      9  C   UNL     1     -37.877  24.584   3.696  0.00  0.00    +0.204 C 
ATOM     10  C   UNL     1     -36.881  21.235   0.867  0.00  0.00    +0.248 C 
ATOM     11  C   UNL     1     -39.121  22.044   1.576  0.00  0.00    +0.272 C 
ATOM     12  C   UNL     1     -34.826  22.267   1.684  0.00  0.00    +0.117 C 
ATOM     13  C   UNL     1     -38.634  20.157  -0.002  0.00  0.00    +0.156 C 
ATOM     14  C   UNL     1     -37.443  19.638  -0.449  0.00  0.00    +0.111 C 
ATOM     15  C   UNL     1     -37.235  18.518  -1.380  0.00  0.00    +0.063 C 
ENDROOT
BRANCH   2  17
ATOM     16  O4* UNL     1     -35.132  25.814   3.041  0.00  0.00    -0.338 OA
ATOM     17  C1* UNL     1     -35.372  24.514   3.604  0.00  0.00    +0.182 C 
ATOM     18  C2* UNL     1     -35.162  24.608   5.113  0.00  0.00    +0.079 C 
ATOM     19  C3* UNL     1     -35.220  26.094   5.389  0.00  0.00    +0.144 C 
ATOM     20  C4* UNL     1     -34.733  26.716   4.090  0.00  0.00    +0.173 C 
BRANCH  19  21
ATOM     21  O3* UNL     1     -36.570  26.487   5.612  0.00  0.00    -0.382 OA
ATOM     22  H3* UNL     1     -37.133  25.698   5.663  0.00  0.00    +0.210 HD
ENDBRANCH  19  21
BRANCH  20  23
ATOM     23  C5* UNL     1     -33.218  26.866   4.035  0.00  0.00    +0.169 C 
BRANCH  23  24
ATOM     24  O5* UNL     1     -32.774  27.484   5.231  0.00  0.00    -0.379 OA
ATOM     25  H5* UNL     1     -32.823  28.448   5.134  0.00  0.00    +0.211 HD
ENDBRANCH  23  24
ENDBRANCH  20  23
ENDBRANCH   2  17
TORSDOF 4
ENDMDL
MODEL 7
REMARK VINA RESULT:      -5.7      2.693      4.937
REMARK  Name = 195614
REMARK  4 active torsions:
REMARK  status: ('A' for Active; 'I' for Inactive)
REMARK    1  A    between atoms: N_2  and  C1*_17
REMARK    2  A    between atoms: C3*_19  and  O3*_21
REMARK    3  A    between atoms: C4*_20  and  C5*_23
REMARK    4  A    between atoms: C5*_23  and  O5*_24
REMARK                            x       y       z     vdW  Elec       q    Type
REMARK                         _______ _______ _______ _____ _____    ______ ____
ROOT
ATOM      1  O   UNL     1     -37.575  28.309  -0.417  0.00  0.00    -0.268 OA
ATOM      2  N   UNL     1     -36.628  25.825   3.271  0.00  0.00    -0.209 NA
ATOM      3  N   UNL     1     -38.920  25.692   2.392  0.00  0.00    -0.253 N 
ATOM      4  N   UNL     1     -39.259  27.062   0.459  0.00  0.00    -0.211 N 
ATOM      5  N   UNL     1     -35.773  27.263   1.775  0.00  0.00    -0.249 NA
ATOM      6  N   UNL     1     -41.042  25.913   1.171  0.00  0.00    -0.380 NA
ATOM      7  C   UNL     1     -37.633  26.130   2.406  0.00  0.00    +0.186 C 
ATOM      8  C   UNL     1     -37.085  27.012   1.504  0.00  0.00    +0.143 C 
ATOM      9  C   UNL     1     -35.526  26.533   2.847  0.00  0.00    +0.204 C 
ATOM     10  C   UNL     1     -39.768  26.160   1.409  0.00  0.00    +0.248 C 
ATOM     11  C   UNL     1     -37.926  27.525   0.451  0.00  0.00    +0.272 C 
ATOM     12  C   UNL     1     -39.435  24.754   3.376  0.00  0.00    +0.117 C 
ATOM     13  C   UNL     1     -40.282  27.370  -0.397  0.00  0.00    +0.156 C 
ATOM     14  C   UNL     1     -41.361  26.654   0.061  0.00  0.00    +0.111 C 
ATOM     15  C   UNL     1     -42.725  26.616  -0.492  0.00  0.00    +0.063 C 
ENDROOT
BRANCH   2  17
ATOM     16  O4* UNL     1     -36.154  23.636   4.066  0.00  0.00    -0.338 OA
ATOM     17  C1* UNL     1     -36.630  24.939   4.438  0.00  0.00    +0.182 C 
ATOM     18  C2* UNL     1     -35.770  25.442   5.595  0.00  0.00    +0.079 C 
ATOM     19  C3* UNL     1     -34.549  24.549   5.545  0.00  0.00    +0.144 C 
ATOM     20  C4* UNL     1     -35.079  23.257   4.945  0.00  0.00    +0.173 C 
BRANCH  19  21
ATOM     21  O3* UNL     1     -33.583  25.108   4.661  0.00  0.00    -0.382 OA
ATOM     22  H3* UNL     1     -33.298  24.432   4.024  0.00  0.00    +0.210 HD
ENDBRANCH  19  21
BRANCH  20  23
ATOM     23  C5* UNL     1     -35.638  22.301   5.992  0.00  0.00    +0.169 C 
BRANCH  23  24
ATOM     24  O5* UNL     1     -35.308  20.972   5.622  0.00  0.00    -0.379 OA
ATOM     25  H5* UNL     1     -35.203  20.432   6.421  0.00  0.00    +0.211 HD
ENDBRANCH  23  24
ENDBRANCH  20  23
ENDBRANCH   2  17
TORSDOF 4
ENDMDL
MODEL 8
REMARK VINA RESULT:      -5.6      4.473      8.244
REMARK  Name = 195614
REMARK  4 active torsions:
REMARK  status: ('A' for Active; 'I' for Inactive)
REMARK    1  A    between atoms: N_2  and  C1*_17
REMARK    2  A    between atoms: C3*_19  and  O3*_21
REMARK    3  A    between atoms: C4*_20  and  C5*_23
REMARK    4  A    between atoms: C5*_23  and  O5*_24
REMARK                            x       y       z     vdW  Elec       q    Type
REMARK                         _______ _______ _______ _____ _____    ______ ____
ROOT
ATOM      1  O   UNL     1     -36.033  18.173  -0.046  0.00  0.00    -0.268 OA
ATOM      2  N   UNL     1     -36.491  21.829   2.618  0.00  0.00    -0.209 NA
ATOM      3  N   UNL     1     -38.375  21.283   1.136  0.00  0.00    -0.253 N 
ATOM      4  N   UNL     1     -37.975  19.342  -0.206  0.00  0.00    -0.211 N 
ATOM      5  N   UNL     1     -35.114  20.151   2.049  0.00  0.00    -0.249 NA
ATOM      6  N   UNL     1     -39.945  20.356  -0.513  0.00  0.00    -0.380 NA
ATOM      7  C   UNL     1     -37.140  21.095   1.674  0.00  0.00    +0.186 C 
ATOM      8  C   UNL     1     -36.276  20.078   1.342  0.00  0.00    +0.143 C 
ATOM      9  C   UNL     1     -35.272  21.218   2.811  0.00  0.00    +0.204 C 
ATOM     10  C   UNL     1     -38.817  20.402   0.170  0.00  0.00    +0.248 C 
ATOM     11  C   UNL     1     -36.694  19.124   0.344  0.00  0.00    +0.272 C 
ATOM     12  C   UNL     1     -39.241  22.380   1.535  0.00  0.00    +0.117 C 
ATOM     13  C   UNL     1     -38.634  18.619  -1.163  0.00  0.00    +0.156 C 
ATOM     14  C   UNL     1     -39.837  19.261  -1.333  0.00  0.00    +0.111 C 
ATOM     15  C   UNL     1     -40.934  18.905  -2.246  0.00  0.00    +0.063 C 
ENDROOT
BRANCH   2  17
ATOM     16  O4* UNL     1     -36.221  23.139   4.583  0.00  0.00    -0.338 OA
ATOM     17  C1* UNL     1     -36.922  23.033   3.333  0.00  0.00    +0.182 C 
ATOM     18  C2* UNL     1     -36.695  24.326   2.554  0.00  0.00    +0.079 C 
ATOM     19  C3* UNL     1     -35.502  24.952   3.243  0.00  0.00    +0.144 C 
ATOM     20  C4* UNL     1     -35.606  24.438   4.670  0.00  0.00    +0.173 C 
BRANCH  19  21
ATOM     21  O3* UNL     1     -34.300  24.459   2.660  0.00  0.00    -0.382 OA
ATOM     22  H3* UNL     1     -34.136  23.554   2.971  0.00  0.00    +0.210 HD
ENDBRANCH  19  21
BRANCH  20  23
ATOM     23  C5* UNL     1     -36.478  25.317   5.556  0.00  0.00    +0.169 C 
BRANCH  23  24
ATOM     24  O5* UNL     1     -36.337  26.667   5.144  0.00  0.00    -0.379 OA
ATOM     25  H5* UNL     1     -35.988  26.693   4.239  0.00  0.00    +0.211 HD
ENDBRANCH  23  24
ENDBRANCH  20  23
ENDBRANCH   2  17
TORSDOF 4
ENDMDL
MODEL 9
REMARK VINA RESULT:      -5.5      3.106      6.342
REMARK  Name = 195614
REMARK  4 active torsions:
REMARK  status: ('A' for Active; 'I' for Inactive)
REMARK    1  A    between atoms: N_2  and  C1*_17
REMARK    2  A    between atoms: C3*_19  and  O3*_21
REMARK    3  A    between atoms: C4*_20  and  C5*_23
REMARK    4  A    between atoms: C5*_23  and  O5*_24
REMARK                            x       y       z     vdW  Elec       q    Type
REMARK                         _______ _______ _______ _____ _____    ______ ____
ROOT
ATOM      1  O   UNL     1     -34.507  27.005   4.251  0.00  0.00    -0.268 OA
ATOM      2  N   UNL     1     -37.906  26.290   1.317  0.00  0.00    -0.209 NA
ATOM      3  N   UNL     1     -37.394  24.478   2.898  0.00  0.00    -0.253 N 
ATOM      4  N   UNL     1     -35.578  25.005   4.365  0.00  0.00    -0.211 N 
ATOM      5  N   UNL     1     -36.352  27.767   1.979  0.00  0.00    -0.249 NA
ATOM      6  N   UNL     1     -36.498  22.983   4.632  0.00  0.00    -0.380 NA
ATOM      7  C   UNL     1     -37.224  25.706   2.339  0.00  0.00    +0.186 C 
ATOM      8  C   UNL     1     -36.280  26.629   2.724  0.00  0.00    +0.143 C 
ATOM      9  C   UNL     1     -37.343  27.533   1.138  0.00  0.00    +0.204 C 
ATOM     10  C   UNL     1     -36.560  24.099   3.930  0.00  0.00    +0.248 C 
ATOM     11  C   UNL     1     -35.388  26.286   3.804  0.00  0.00    +0.272 C 
ATOM     12  C   UNL     1     -38.417  23.550   2.444  0.00  0.00    +0.117 C 
ATOM     13  C   UNL     1     -34.892  24.402   5.385  0.00  0.00    +0.156 C 
ATOM     14  C   UNL     1     -35.476  23.166   5.528  0.00  0.00    +0.111 C 
ATOM     15  C   UNL     1     -35.125  22.104   6.484  0.00  0.00    +0.063 C 
ENDROOT
BRANCH   2  17
ATOM     16  O4* UNL     1     -40.215  25.728   1.309  0.00  0.00    -0.338 OA
ATOM     17  C1* UNL     1     -39.019  25.774   0.515  0.00  0.00    +0.182 C 
ATOM     18  C2* UNL     1     -39.313  26.601  -0.734  0.00  0.00    +0.079 C 
ATOM     19  C3* UNL     1     -40.577  27.351  -0.374  0.00  0.00    +0.144 C 
ATOM     20  C4* UNL     1     -41.266  26.430   0.620  0.00  0.00    +0.173 C 
BRANCH  19  21
ATOM     21  O3* UNL     1     -40.240  28.570   0.282  0.00  0.00    -0.382 OA
ATOM     22  H3* UNL     1     -41.043  29.100   0.412  0.00  0.00    +0.210 HD
ENDBRANCH  19  21
BRANCH  20  23
ATOM     23  C5* UNL     1     -42.165  25.399  -0.051  0.00  0.00    +0.169 C 
BRANCH  23  24
ATOM     24  O5* UNL     1     -42.270  24.264   0.793  0.00  0.00    -0.379 OA
ATOM     25  H5* UNL     1     -41.426  24.123   1.250  0.00  0.00    +0.211 HD
ENDBRANCH  23  24
ENDBRANCH  20  23
ENDBRANCH   2  17
TORSDOF 4
ENDMDL
