MODEL 1
REMARK VINA RESULT:      -7.2      0.000      0.000
REMARK  Name = 54677470
REMARK  2 active torsions:
REMARK  status: ('A' for Active; 'I' for Inactive)
REMARK    1  A    between atoms: C_7  and  C_18
REMARK    2  A    between atoms: C_8  and  O_24
REMARK                            x       y       z     vdW  Elec       q    Type
REMARK                         _______ _______ _______ _____ _____    ______ ____
ROOT
ATOM      1  S   UNL     1     -36.478  23.123   2.088  0.00  0.00    +0.077 S 
ATOM      2  O   UNL     1     -37.928  23.161   2.130  0.00  0.00    -0.150 OA
ATOM      3  O   UNL     1     -35.777  22.175   1.246  0.00  0.00    -0.150 OA
ATOM      4  N   UNL     1     -35.856  24.710   1.805  0.00  0.00    -0.181 N 
ATOM      5  C   UNL     1     -35.948  22.876   3.746  0.00  0.00    +0.128 C 
ATOM      6  C   UNL     1     -35.903  23.995   4.584  0.00  0.00    +0.054 C 
ATOM      7  C   UNL     1     -36.285  25.675   2.786  0.00  0.00    +0.156 C 
ATOM      8  C   UNL     1     -36.303  25.337   4.091  0.00  0.00    +0.154 C 
ATOM      9  C   UNL     1     -35.575  21.601   4.170  0.00  0.00    +0.020 C 
ATOM     10  C   UNL     1     -34.418  24.807   1.420  0.00  0.00    +0.139 C 
ATOM     11  C   UNL     1     -35.476  23.794   5.904  0.00  0.00    +0.004 C 
ATOM     12  C   UNL     1     -35.151  21.428   5.483  0.00  0.00    +0.001 C 
ATOM     13  C   UNL     1     -35.102  22.520   6.349  0.00  0.00    +0.000 C 
ENDROOT
BRANCH   7  18
ATOM     14  S   UNL     1     -34.208  30.181   2.666  0.00  0.00    -0.056 S 
ATOM     15  O   UNL     1     -37.664  27.170   1.648  0.00  0.00    -0.268 OA
ATOM     16  N   UNL     1     -35.617  27.930   2.529  0.00  0.00    -0.259 N 
ATOM     17  N   UNL     1     -36.507  29.971   1.503  0.00  0.00    -0.223 NA
ATOM     18  C   UNL     1     -36.610  27.002   2.254  0.00  0.00    +0.269 C 
ATOM     19  C   UNL     1     -35.594  29.299   2.170  0.00  0.00    +0.166 C 
ATOM     20  C   UNL     1     -34.867  31.584   1.932  0.00  0.00    +0.029 C 
ATOM     21  C   UNL     1     -36.089  31.280   1.368  0.00  0.00    +0.103 C 
ATOM     22  C   UNL     1     -34.134  32.865   1.968  0.00  0.00    +0.040 C 
ATOM     23  H   UNL     1     -34.838  27.599   3.033  0.00  0.00    +0.157 HD
ENDBRANCH   7  18
BRANCH   8  24
ATOM     24  O   UNL     1     -36.679  26.202   5.101  0.00  0.00    -0.504 OA
ATOM     25  H   UNL     1     -37.568  26.495   5.161  0.00  0.00    +0.292 HD
ENDBRANCH   8  24
TORSDOF 2
ENDMDL
MODEL 2
REMARK VINA RESULT:      -6.6      3.022      4.012
REMARK  Name = 54677470
REMARK  2 active torsions:
REMARK  status: ('A' for Active; 'I' for Inactive)
REMARK    1  A    between atoms: C_7  and  C_18
REMARK    2  A    between atoms: C_8  and  O_24
REMARK                            x       y       z     vdW  Elec       q    Type
REMARK                         _______ _______ _______ _____ _____    ______ ____
ROOT
ATOM      1  S   UNL     1     -35.551  22.307   2.990  0.00  0.00    +0.077 S 
ATOM      2  O   UNL     1     -34.814  22.879   1.879  0.00  0.00    -0.150 OA
ATOM      3  O   UNL     1     -35.465  20.894   3.300  0.00  0.00    -0.150 OA
ATOM      4  N   UNL     1     -35.259  23.227   4.424  0.00  0.00    -0.181 N 
ATOM      5  C   UNL     1     -37.241  22.702   2.711  0.00  0.00    +0.128 C 
ATOM      6  C   UNL     1     -37.674  23.983   3.071  0.00  0.00    +0.054 C 
ATOM      7  C   UNL     1     -35.597  24.621   4.287  0.00  0.00    +0.156 C 
ATOM      8  C   UNL     1     -36.734  24.972   3.653  0.00  0.00    +0.154 C 
ATOM      9  C   UNL     1     -38.095  21.743   2.167  0.00  0.00    +0.020 C 
ATOM     10  C   UNL     1     -35.677  22.605   5.714  0.00  0.00    +0.139 C 
ATOM     11  C   UNL     1     -39.023  24.291   2.850  0.00  0.00    +0.004 C 
ATOM     12  C   UNL     1     -39.430  22.072   1.961  0.00  0.00    +0.001 C 
ATOM     13  C   UNL     1     -39.895  23.343   2.300  0.00  0.00    +0.000 C 
ENDROOT
BRANCH   7  18
ATOM     14  S   UNL     1     -32.358  28.113   2.894  0.00  0.00    -0.056 S 
ATOM     15  O   UNL     1     -34.577  25.569   6.157  0.00  0.00    -0.268 OA
ATOM     16  N   UNL     1     -33.985  26.330   4.009  0.00  0.00    -0.259 N 
ATOM     17  N   UNL     1     -32.567  27.725   5.440  0.00  0.00    -0.223 NA
ATOM     18  C   UNL     1     -34.668  25.554   4.933  0.00  0.00    +0.269 C 
ATOM     19  C   UNL     1     -33.017  27.329   4.271  0.00  0.00    +0.166 C 
ATOM     20  C   UNL     1     -31.385  29.068   3.933  0.00  0.00    +0.029 C 
ATOM     21  C   UNL     1     -31.631  28.722   5.245  0.00  0.00    +0.103 C 
ATOM     22  C   UNL     1     -30.463  30.080   3.379  0.00  0.00    +0.040 C 
ATOM     23  H   UNL     1     -34.199  26.168   3.061  0.00  0.00    +0.157 HD
ENDBRANCH   7  18
BRANCH   8  24
ATOM     24  O   UNL     1     -37.148  26.281   3.494  0.00  0.00    -0.504 OA
ATOM     25  H   UNL     1     -37.225  26.842   4.241  0.00  0.00    +0.292 HD
ENDBRANCH   8  24
TORSDOF 2
ENDMDL
MODEL 3
REMARK VINA RESULT:      -6.5      1.675      1.986
REMARK  Name = 54677470
REMARK  2 active torsions:
REMARK  status: ('A' for Active; 'I' for Inactive)
REMARK    1  A    between atoms: C_7  and  C_18
REMARK    2  A    between atoms: C_8  and  O_24
REMARK                            x       y       z     vdW  Elec       q    Type
REMARK                         _______ _______ _______ _____ _____    ______ ____
ROOT
ATOM      1  S   UNL     1     -35.914  23.940   1.998  0.00  0.00    +0.077 S 
ATOM      2  O   UNL     1     -37.332  24.232   1.900  0.00  0.00    -0.150 OA
ATOM      3  O   UNL     1     -35.272  23.024   1.078  0.00  0.00    -0.150 OA
ATOM      4  N   UNL     1     -35.015  25.415   2.060  0.00  0.00    -0.181 N 
ATOM      5  C   UNL     1     -35.648  23.348   3.631  0.00  0.00    +0.128 C 
ATOM      6  C   UNL     1     -35.532  24.298   4.652  0.00  0.00    +0.054 C 
ATOM      7  C   UNL     1     -35.405  26.277   3.147  0.00  0.00    +0.156 C 
ATOM      8  C   UNL     1     -35.645  25.749   4.364  0.00  0.00    +0.154 C 
ATOM      9  C   UNL     1     -35.541  21.977   3.861  0.00  0.00    +0.020 C 
ATOM     10  C   UNL     1     -33.542  25.310   1.843  0.00  0.00    +0.139 C 
ATOM     11  C   UNL     1     -35.316  23.821   5.953  0.00  0.00    +0.004 C 
ATOM     12  C   UNL     1     -35.323  21.530   5.160  0.00  0.00    +0.001 C 
ATOM     13  C   UNL     1     -35.211  22.448   6.204  0.00  0.00    +0.000 C 
ENDROOT
BRANCH   7  18
ATOM     14  S   UNL     1     -37.612  29.224  -0.181  0.00  0.00    -0.056 S 
ATOM     15  O   UNL     1     -34.784  28.497   3.495  0.00  0.00    -0.268 OA
ATOM     16  N   UNL     1     -36.266  27.974   1.742  0.00  0.00    -0.259 N 
ATOM     17  N   UNL     1     -36.069  30.408   1.520  0.00  0.00    -0.223 NA
ATOM     18  C   UNL     1     -35.442  27.707   2.824  0.00  0.00    +0.269 C 
ATOM     19  C   UNL     1     -36.539  29.235   1.158  0.00  0.00    +0.166 C 
ATOM     20  C   UNL     1     -37.447  30.926  -0.298  0.00  0.00    +0.029 C 
ATOM     21  C   UNL     1     -36.589  31.376   0.684  0.00  0.00    +0.103 C 
ATOM     22  C   UNL     1     -38.170  31.681  -1.340  0.00  0.00    +0.040 C 
ATOM     23  H   UNL     1     -36.714  27.198   1.332  0.00  0.00    +0.157 HD
ENDBRANCH   7  18
BRANCH   8  24
ATOM     24  O   UNL     1     -36.003  26.501   5.466  0.00  0.00    -0.504 OA
ATOM     25  H   UNL     1     -36.035  27.436   5.406  0.00  0.00    +0.292 HD
ENDBRANCH   8  24
TORSDOF 2
ENDMDL
MODEL 4
REMARK VINA RESULT:      -6.4      4.621      8.595
REMARK  Name = 54677470
REMARK  2 active torsions:
REMARK  status: ('A' for Active; 'I' for Inactive)
REMARK    1  A    between atoms: C_7  and  C_18
REMARK    2  A    between atoms: C_8  and  O_24
REMARK                            x       y       z     vdW  Elec       q    Type
REMARK                         _______ _______ _______ _____ _____    ______ ____
ROOT
ATOM      1  S   UNL     1     -36.693  23.719   2.247  0.00  0.00    +0.077 S 
ATOM      2  O   UNL     1     -35.550  24.084   1.430  0.00  0.00    -0.150 OA
ATOM      3  O   UNL     1     -37.675  24.706   2.647  0.00  0.00    -0.150 OA
ATOM      4  N   UNL     1     -37.499  22.357   1.553  0.00  0.00    -0.181 N 
ATOM      5  C   UNL     1     -36.038  22.981   3.701  0.00  0.00    +0.128 C 
ATOM      6  C   UNL     1     -35.651  21.638   3.627  0.00  0.00    +0.054 C 
ATOM      7  C   UNL     1     -36.641  21.210   1.383  0.00  0.00    +0.156 C 
ATOM      8  C   UNL     1     -35.776  20.875   2.361  0.00  0.00    +0.154 C 
ATOM      9  C   UNL     1     -35.941  23.729   4.873  0.00  0.00    +0.020 C 
ATOM     10  C   UNL     1     -38.861  22.046   2.077  0.00  0.00    +0.139 C 
ATOM     11  C   UNL     1     -35.132  21.053   4.791  0.00  0.00    +0.004 C 
ATOM     12  C   UNL     1     -35.428  23.125   6.015  0.00  0.00    +0.001 C 
ATOM     13  C   UNL     1     -35.023  21.791   5.976  0.00  0.00    +0.000 C 
ENDROOT
BRANCH   7  18
ATOM     14  S   UNL     1     -37.557  16.515   0.064  0.00  0.00    -0.056 S 
ATOM     15  O   UNL     1     -36.807  21.040  -0.936  0.00  0.00    -0.268 OA
ATOM     16  N   UNL     1     -37.074  19.110   0.385  0.00  0.00    -0.259 N 
ATOM     17  N   UNL     1     -37.367  18.211  -1.876  0.00  0.00    -0.223 NA
ATOM     18  C   UNL     1     -36.848  20.456   0.143  0.00  0.00    +0.269 C 
ATOM     19  C   UNL     1     -37.312  18.091  -0.569  0.00  0.00    +0.166 C 
ATOM     20  C   UNL     1     -37.758  15.929  -1.535  0.00  0.00    +0.029 C 
ATOM     21  C   UNL     1     -37.622  16.971  -2.429  0.00  0.00    +0.103 C 
ATOM     22  C   UNL     1     -38.032  14.500  -1.782  0.00  0.00    +0.040 C 
ATOM     23  H   UNL     1     -37.069  18.830   1.330  0.00  0.00    +0.157 HD
ENDBRANCH   7  18
BRANCH   8  24
ATOM     24  O   UNL     1     -34.932  19.783   2.294  0.00  0.00    -0.504 OA
ATOM     25  H   UNL     1     -34.042  19.860   2.577  0.00  0.00    +0.292 HD
ENDBRANCH   8  24
TORSDOF 2
ENDMDL
MODEL 5
REMARK VINA RESULT:      -6.4      1.425      1.534
REMARK  Name = 54677470
REMARK  2 active torsions:
REMARK  status: ('A' for Active; 'I' for Inactive)
REMARK    1  A    between atoms: C_7  and  C_18
REMARK    2  A    between atoms: C_8  and  O_24
REMARK                            x       y       z     vdW  Elec       q    Type
REMARK                         _______ _______ _______ _____ _____    ______ ____
ROOT
ATOM      1  S   UNL     1     -35.874  24.017   1.809  0.00  0.00    +0.077 S 
ATOM      2  O   UNL     1     -37.282  24.354   1.702  0.00  0.00    -0.150 OA
ATOM      3  O   UNL     1     -35.268  23.040   0.927  0.00  0.00    -0.150 OA
ATOM      4  N   UNL     1     -34.923  25.459   1.806  0.00  0.00    -0.181 N 
ATOM      5  C   UNL     1     -35.623  23.486   3.465  0.00  0.00    +0.128 C 
ATOM      6  C   UNL     1     -35.469  24.474   4.444  0.00  0.00    +0.054 C 
ATOM      7  C   UNL     1     -35.279  26.381   2.855  0.00  0.00    +0.156 C 
ATOM      8  C   UNL     1     -35.533  25.914   4.094  0.00  0.00    +0.154 C 
ATOM      9  C   UNL     1     -35.564  22.123   3.754  0.00  0.00    +0.020 C 
ATOM     10  C   UNL     1     -33.456  25.293   1.590  0.00  0.00    +0.139 C 
ATOM     11  C   UNL     1     -35.266  24.045   5.764  0.00  0.00    +0.004 C 
ATOM     12  C   UNL     1     -35.356  21.724   5.069  0.00  0.00    +0.001 C 
ATOM     13  C   UNL     1     -35.208  22.681   6.073  0.00  0.00    +0.000 C 
ENDROOT
BRANCH   7  18
ATOM     14  S   UNL     1     -32.349  30.330   3.525  0.00  0.00    -0.056 S 
ATOM     15  O   UNL     1     -36.186  28.249   1.795  0.00  0.00    -0.268 OA
ATOM     16  N   UNL     1     -34.150  28.457   2.961  0.00  0.00    -0.259 N 
ATOM     17  N   UNL     1     -34.485  30.739   2.129  0.00  0.00    -0.223 NA
ATOM     18  C   UNL     1     -35.267  27.796   2.472  0.00  0.00    +0.269 C 
ATOM     19  C   UNL     1     -33.812  29.821   2.787  0.00  0.00    +0.166 C 
ATOM     20  C   UNL     1     -32.622  31.911   2.921  0.00  0.00    +0.029 C 
ATOM     21  C   UNL     1     -33.802  31.936   2.208  0.00  0.00    +0.103 C 
ATOM     22  C   UNL     1     -31.658  32.996   3.194  0.00  0.00    +0.040 C 
ATOM     23  H   UNL     1     -33.519  27.916   3.489  0.00  0.00    +0.157 HD
ENDBRANCH   7  18
BRANCH   8  24
ATOM     24  O   UNL     1     -35.860  26.724   5.165  0.00  0.00    -0.504 OA
ATOM     25  H   UNL     1     -35.825  27.657   5.075  0.00  0.00    +0.292 HD
ENDBRANCH   8  24
TORSDOF 2
ENDMDL
MODEL 6
REMARK VINA RESULT:      -6.2      4.164      7.912
REMARK  Name = 54677470
REMARK  2 active torsions:
REMARK  status: ('A' for Active; 'I' for Inactive)
REMARK    1  A    between atoms: C_7  and  C_18
REMARK    2  A    between atoms: C_8  and  O_24
REMARK                            x       y       z     vdW  Elec       q    Type
REMARK                         _______ _______ _______ _____ _____    ______ ____
ROOT
ATOM      1  S   UNL     1     -36.553  24.579   3.740  0.00  0.00    +0.077 S 
ATOM      2  O   UNL     1     -36.716  23.987   5.055  0.00  0.00    -0.150 OA
ATOM      3  O   UNL     1     -36.022  25.918   3.581  0.00  0.00    -0.150 OA
ATOM      4  N   UNL     1     -35.687  23.493   2.712  0.00  0.00    -0.181 N 
ATOM      5  C   UNL     1     -38.136  24.526   2.980  0.00  0.00    +0.128 C 
ATOM      6  C   UNL     1     -38.533  23.318   2.396  0.00  0.00    +0.054 C 
ATOM      7  C   UNL     1     -36.315  22.203   2.584  0.00  0.00    +0.156 C 
ATOM      8  C   UNL     1     -37.653  22.124   2.434  0.00  0.00    +0.154 C 
ATOM      9  C   UNL     1     -38.933  25.670   2.960  0.00  0.00    +0.020 C 
ATOM     10  C   UNL     1     -35.157  24.059   1.437  0.00  0.00    +0.139 C 
ATOM     11  C   UNL     1     -39.796  23.282   1.788  0.00  0.00    +0.004 C 
ATOM     12  C   UNL     1     -40.179  25.610   2.346  0.00  0.00    +0.001 C 
ATOM     13  C   UNL     1     -40.612  24.420   1.762  0.00  0.00    +0.000 C 
ENDROOT
BRANCH   7  18
ATOM     14  S   UNL     1     -34.019  19.406  -0.812  0.00  0.00    -0.056 S 
ATOM     15  O   UNL     1     -35.014  20.573   3.625  0.00  0.00    -0.268 OA
ATOM     16  N   UNL     1     -35.070  20.677   1.274  0.00  0.00    -0.259 N 
ATOM     17  N   UNL     1     -33.553  18.789   1.654  0.00  0.00    -0.223 NA
ATOM     18  C   UNL     1     -35.395  21.061   2.566  0.00  0.00    +0.269 C 
ATOM     19  C   UNL     1     -34.214  19.620   0.879  0.00  0.00    +0.166 C 
ATOM     20  C   UNL     1     -32.962  18.093  -0.500  0.00  0.00    +0.029 C 
ATOM     21  C   UNL     1     -32.836  17.914   0.862  0.00  0.00    +0.103 C 
ATOM     22  C   UNL     1     -32.341  17.348  -1.613  0.00  0.00    +0.040 C 
ATOM     23  H   UNL     1     -35.482  21.199   0.547  0.00  0.00    +0.157 HD
ENDBRANCH   7  18
BRANCH   8  24
ATOM     24  O   UNL     1     -38.337  20.934   2.284  0.00  0.00    -0.504 OA
ATOM     25  H   UNL     1     -39.137  20.911   1.795  0.00  0.00    +0.292 HD
ENDBRANCH   8  24
TORSDOF 2
ENDMDL
MODEL 7
REMARK VINA RESULT:      -6.2      3.011      3.243
REMARK  Name = 54677470
REMARK  2 active torsions:
REMARK  status: ('A' for Active; 'I' for Inactive)
REMARK    1  A    between atoms: C_7  and  C_18
REMARK    2  A    between atoms: C_8  and  O_24
REMARK                            x       y       z     vdW  Elec       q    Type
REMARK                         _______ _______ _______ _____ _____    ______ ____
ROOT
ATOM      1  S   UNL     1     -36.116  25.001   2.348  0.00  0.00    +0.077 S 
ATOM      2  O   UNL     1     -37.294  25.736   2.771  0.00  0.00    -0.150 OA
ATOM      3  O   UNL     1     -36.100  24.264   1.101  0.00  0.00    -0.150 OA
ATOM      4  N   UNL     1     -34.726  26.025   2.428  0.00  0.00    -0.181 N 
ATOM      5  C   UNL     1     -35.747  23.879   3.650  0.00  0.00    +0.128 C 
ATOM      6  C   UNL     1     -35.049  24.379   4.755  0.00  0.00    +0.054 C 
ATOM      7  C   UNL     1     -34.501  26.583   3.737  0.00  0.00    +0.156 C 
ATOM      8  C   UNL     1     -34.652  25.806   4.828  0.00  0.00    +0.154 C 
ATOM      9  C   UNL     1     -36.132  22.544   3.542  0.00  0.00    +0.020 C 
ATOM     10  C   UNL     1     -33.496  25.538   1.736  0.00  0.00    +0.139 C 
ATOM     11  C   UNL     1     -34.754  23.479   5.789  0.00  0.00    +0.004 C 
ATOM     12  C   UNL     1     -35.824  21.670   4.579  0.00  0.00    +0.001 C 
ATOM     13  C   UNL     1     -35.137  22.135   5.701  0.00  0.00    +0.000 C 
ENDROOT
BRANCH   7  18
ATOM     14  S   UNL     1     -30.399  29.095   4.961  0.00  0.00    -0.056 S 
ATOM     15  O   UNL     1     -34.812  28.865   3.375  0.00  0.00    -0.268 OA
ATOM     16  N   UNL     1     -32.749  28.100   4.212  0.00  0.00    -0.259 N 
ATOM     17  N   UNL     1     -32.371  30.519   4.087  0.00  0.00    -0.223 NA
ATOM     18  C   UNL     1     -34.050  27.979   3.750  0.00  0.00    +0.269 C 
ATOM     19  C   UNL     1     -31.994  29.289   4.358  0.00  0.00    +0.166 C 
ATOM     20  C   UNL     1     -30.178  30.792   4.855  0.00  0.00    +0.029 C 
ATOM     21  C   UNL     1     -31.329  31.379   4.372  0.00  0.00    +0.103 C 
ATOM     22  C   UNL     1     -28.896  31.408   5.250  0.00  0.00    +0.040 C 
ATOM     23  H   UNL     1     -32.297  27.263   4.468  0.00  0.00    +0.157 HD
ENDBRANCH   7  18
BRANCH   8  24
ATOM     24  O   UNL     1     -34.438  26.250   6.119  0.00  0.00    -0.504 OA
ATOM     25  H   UNL     1     -33.601  26.126   6.525  0.00  0.00    +0.292 HD
ENDBRANCH   8  24
TORSDOF 2
ENDMDL
MODEL 8
REMARK VINA RESULT:      -6.2      4.076      7.451
REMARK  Name = 54677470
REMARK  2 active torsions:
REMARK  status: ('A' for Active; 'I' for Inactive)
REMARK    1  A    between atoms: C_7  and  C_18
REMARK    2  A    between atoms: C_8  and  O_24
REMARK                            x       y       z     vdW  Elec       q    Type
REMARK                         _______ _______ _______ _____ _____    ______ ____
ROOT
ATOM      1  S   UNL     1     -37.480  25.489   2.103  0.00  0.00    +0.077 S 
ATOM      2  O   UNL     1     -36.627  25.233   0.957  0.00  0.00    -0.150 OA
ATOM      3  O   UNL     1     -38.094  26.786   2.306  0.00  0.00    -0.150 OA
ATOM      4  N   UNL     1     -38.687  24.258   2.224  0.00  0.00    -0.181 N 
ATOM      5  C   UNL     1     -36.516  25.114   3.524  0.00  0.00    +0.128 C 
ATOM      6  C   UNL     1     -36.407  23.770   3.895  0.00  0.00    +0.054 C 
ATOM      7  C   UNL     1     -38.140  22.928   2.319  0.00  0.00    +0.156 C 
ATOM      8  C   UNL     1     -37.070  22.702   3.106  0.00  0.00    +0.154 C 
ATOM      9  C   UNL     1     -35.912  26.146   4.242  0.00  0.00    +0.020 C 
ATOM     10  C   UNL     1     -39.831  24.531   3.143  0.00  0.00    +0.139 C 
ATOM     11  C   UNL     1     -35.639  23.476   5.031  0.00  0.00    +0.004 C 
ATOM     12  C   UNL     1     -35.160  25.829   5.368  0.00  0.00    +0.001 C 
ATOM     13  C   UNL     1     -35.022  24.499   5.762  0.00  0.00    +0.000 C 
ENDROOT
BRANCH   7  18
ATOM     14  S   UNL     1     -37.336  19.996  -1.603  0.00  0.00    -0.056 S 
ATOM     15  O   UNL     1     -40.006  21.591   1.913  0.00  0.00    -0.268 OA
ATOM     16  N   UNL     1     -38.121  21.396   0.516  0.00  0.00    -0.259 N 
ATOM     17  N   UNL     1     -39.643  19.746  -0.467  0.00  0.00    -0.223 NA
ATOM     18  C   UNL     1     -38.869  21.900   1.569  0.00  0.00    +0.269 C 
ATOM     19  C   UNL     1     -38.503  20.398  -0.412  0.00  0.00    +0.166 C 
ATOM     20  C   UNL     1     -38.432  18.851  -2.258  0.00  0.00    +0.029 C 
ATOM     21  C   UNL     1     -39.601  18.860  -1.526  0.00  0.00    +0.103 C 
ATOM     22  C   UNL     1     -38.057  18.038  -3.431  0.00  0.00    +0.040 C 
ATOM     23  H   UNL     1     -37.219  21.776   0.401  0.00  0.00    +0.157 HD
ENDBRANCH   7  18
BRANCH   8  24
ATOM     24  O   UNL     1     -36.492  21.458   3.274  0.00  0.00    -0.504 OA
ATOM     25  H   UNL     1     -36.657  20.777   2.651  0.00  0.00    +0.292 HD
ENDBRANCH   8  24
TORSDOF 2
ENDMDL
MODEL 9
REMARK VINA RESULT:      -6.1      4.707      7.321
REMARK  Name = 54677470
REMARK  2 active torsions:
REMARK  status: ('A' for Active; 'I' for Inactive)
REMARK    1  A    between atoms: C_7  and  C_18
REMARK    2  A    between atoms: C_8  and  O_24
REMARK                            x       y       z     vdW  Elec       q    Type
REMARK                         _______ _______ _______ _____ _____    ______ ____
ROOT
ATOM      1  S   UNL     1     -37.604  25.372   1.863  0.00  0.00    +0.077 S 
ATOM      2  O   UNL     1     -37.050  24.993   0.576  0.00  0.00    -0.150 OA
ATOM      3  O   UNL     1     -37.933  26.751   2.160  0.00  0.00    -0.150 OA
ATOM      4  N   UNL     1     -38.957  24.365   2.239  0.00  0.00    -0.181 N 
ATOM      5  C   UNL     1     -36.459  24.812   3.073  0.00  0.00    +0.128 C 
ATOM      6  C   UNL     1     -36.512  23.462   3.438  0.00  0.00    +0.054 C 
ATOM      7  C   UNL     1     -38.640  22.959   2.246  0.00  0.00    +0.156 C 
ATOM      8  C   UNL     1     -37.491  22.538   2.813  0.00  0.00    +0.154 C 
ATOM      9  C   UNL     1     -35.558  25.711   3.641  0.00  0.00    +0.020 C 
ATOM     10  C   UNL     1     -39.834  24.814   3.360  0.00  0.00    +0.139 C 
ATOM     11  C   UNL     1     -35.598  23.021   4.406  0.00  0.00    +0.004 C 
ATOM     12  C   UNL     1     -34.665  25.250   4.602  0.00  0.00    +0.001 C 
ATOM     13  C   UNL     1     -34.683  23.909   4.984  0.00  0.00    +0.000 C 
ENDROOT
BRANCH   7  18
ATOM     14  S   UNL     1     -41.074  22.507  -2.054  0.00  0.00    -0.056 S 
ATOM     15  O   UNL     1     -40.133  21.172   2.348  0.00  0.00    -0.268 OA
ATOM     16  N   UNL     1     -39.982  22.439   0.369  0.00  0.00    -0.259 N 
ATOM     17  N   UNL     1     -41.691  20.787  -0.227  0.00  0.00    -0.223 NA
ATOM     18  C   UNL     1     -39.667  22.085   1.672  0.00  0.00    +0.269 C 
ATOM     19  C   UNL     1     -40.923  21.821  -0.489  0.00  0.00    +0.166 C 
ATOM     20  C   UNL     1     -42.264  21.331  -2.429  0.00  0.00    +0.029 C 
ATOM     21  C   UNL     1     -42.460  20.507  -1.340  0.00  0.00    +0.103 C 
ATOM     22  C   UNL     1     -42.907  21.310  -3.758  0.00  0.00    +0.040 C 
ATOM     23  H   UNL     1     -39.493  23.210  -0.003  0.00  0.00    +0.157 HD
ENDBRANCH   7  18
BRANCH   8  24
ATOM     24  O   UNL     1     -37.114  21.211   2.884  0.00  0.00    -0.504 OA
ATOM     25  H   UNL     1     -36.990  20.716   2.098  0.00  0.00    +0.292 HD
ENDBRANCH   8  24
TORSDOF 2
ENDMDL
