MODEL 1
REMARK VINA RESULT:      -6.9      0.000      0.000
REMARK  Name = 5489029
REMARK  8 active torsions:
REMARK  status: ('A' for Active; 'I' for Inactive)
REMARK    1  A    between atoms: C_11  and  O_23
REMARK    2  A    between atoms: C_18  and  O_21
REMARK    3  A    between atoms: O_23  and  C_25
REMARK    4  A    between atoms: C_26  and  O_30
REMARK    5  A    between atoms: C_27  and  O_32
REMARK    6  A    between atoms: C_28  and  O_34
REMARK    7  A    between atoms: C_29  and  C_37
REMARK    8  A    between atoms: C_37  and  O_38
REMARK                            x       y       z     vdW  Elec       q    Type
REMARK                         _______ _______ _______ _____ _____    ______ ____
ROOT
ATOM      1  O   UNL     1     -34.705  26.630   2.194  0.00  0.00    -0.473 OA
ATOM      2  N   UNL     1     -35.532  21.450   2.259  0.00  0.00    +0.387 N 
ATOM      3  C   UNL     1     -34.830  24.240   2.646  0.00  0.00    +0.061 C 
ATOM      4  C   UNL     1     -34.984  23.256   3.816  0.00  0.00    +0.010 C 
ATOM      5  C   UNL     1     -34.022  25.535   2.898  0.00  0.00    +0.201 C 
ATOM      6  C   UNL     1     -36.084  22.226   3.397  0.00  0.00    -0.049 C 
ATOM      7  C   UNL     1     -34.357  23.476   1.394  0.00  0.00    -0.015 C 
ATOM      8  C   UNL     1     -36.155  24.879   2.389  0.00  0.00    +0.014 C 
ATOM      9  C   UNL     1     -37.472  22.899   3.123  0.00  0.00    +0.006 C 
ATOM     10  C   UNL     1     -35.241  22.260   1.072  0.00  0.00    -0.077 C 
ATOM     11  C   UNL     1     -33.815  25.881   4.396  0.00  0.00    +0.180 C 
ATOM     12  C   UNL     1     -37.394  24.283   2.534  0.00  0.00    -0.025 C 
ATOM     13  C   UNL     1     -35.258  23.973   5.112  0.00  0.00    -0.030 C 
ATOM     14  C   UNL     1     -36.004  26.212   2.082  0.00  0.00    +0.168 C 
ATOM     15  C   UNL     1     -34.735  25.183   5.362  0.00  0.00    +0.002 C 
ATOM     16  C   UNL     1     -38.514  25.058   2.229  0.00  0.00    -0.001 C 
ATOM     17  C   UNL     1     -36.323  20.272   1.921  0.00  0.00    -0.101 C 
ATOM     18  C   UNL     1     -37.093  26.995   1.769  0.00  0.00    +0.172 C 
ATOM     19  C   UNL     1     -38.359  26.401   1.830  0.00  0.00    +0.040 C 
ATOM     20  H   UNL     1     -34.632  21.114   2.605  0.00  0.00    -0.080 HD
ENDROOT
BRANCH  18  21
ATOM     21  O   UNL     1     -36.956  28.305   1.446  0.00  0.00    -0.468 OA
ATOM     22  C   UNL     1     -36.802  28.625   0.061  0.00  0.00    +0.253 C 
ENDBRANCH  18  21
BRANCH  11  23
ATOM     23  O   UNL     1     -33.881  27.293   4.581  0.00  0.00    -0.323 OA
BRANCH  23  25
ATOM     24  O   UNL     1     -31.809  27.988   5.400  0.00  0.00    -0.317 OA
ATOM     25  C   UNL     1     -32.643  27.920   4.246  0.00  0.00    +0.266 C 
ATOM     26  C   UNL     1     -32.951  29.325   3.729  0.00  0.00    +0.196 C 
ATOM     27  C   UNL     1     -31.666  30.115   3.474  0.00  0.00    +0.172 C 
ATOM     28  C   UNL     1     -30.713  30.029   4.667  0.00  0.00    +0.178 C 
ATOM     29  C   UNL     1     -30.548  28.585   5.122  0.00  0.00    +0.245 C 
BRANCH  26  30
ATOM     30  O   UNL     1     -33.682  29.203   2.509  0.00  0.00    -0.378 OA
ATOM     31  H   UNL     1     -33.544  28.318   2.137  0.00  0.00    +0.211 HD
ENDBRANCH  26  30
BRANCH  27  32
ATOM     32  O   UNL     1     -31.988  31.491   3.263  0.00  0.00    -0.379 OA
ATOM     33  H   UNL     1     -32.170  31.915   4.115  0.00  0.00    +0.211 HD
ENDBRANCH  27  32
BRANCH  28  34
ATOM     34  O   UNL     1     -29.437  30.537   4.281  0.00  0.00    -0.379 OA
ATOM     35  H   UNL     1     -29.078  31.086   4.995  0.00  0.00    +0.211 HD
ENDBRANCH  28  34
BRANCH  29  37
ATOM     36  O   UNL     1     -29.395  29.480   7.044  0.00  0.00    -0.247 OA
ATOM     37  C   UNL     1     -29.838  28.516   6.435  0.00  0.00    +0.344 C 
BRANCH  37  38
ATOM     38  O   UNL     1     -29.746  27.235   6.866  0.00  0.00    -0.478 OA
ATOM     39  H   UNL     1     -30.111  26.541   6.350  0.00  0.00    +0.295 HD
ENDBRANCH  37  38
ENDBRANCH  29  37
ENDBRANCH  23  25
ENDBRANCH  11  23
TORSDOF 8
ENDMDL
MODEL 2
REMARK VINA RESULT:      -6.9      5.764      9.073
REMARK  Name = 5489029
REMARK  8 active torsions:
REMARK  status: ('A' for Active; 'I' for Inactive)
REMARK    1  A    between atoms: C_11  and  O_23
REMARK    2  A    between atoms: C_18  and  O_21
REMARK    3  A    between atoms: O_23  and  C_25
REMARK    4  A    between atoms: C_26  and  O_30
REMARK    5  A    between atoms: C_27  and  O_32
REMARK    6  A    between atoms: C_28  and  O_34
REMARK    7  A    between atoms: C_29  and  C_37
REMARK    8  A    between atoms: C_37  and  O_38
REMARK                            x       y       z     vdW  Elec       q    Type
REMARK                         _______ _______ _______ _____ _____    ______ ____
ROOT
ATOM      1  O   UNL     1     -37.112  20.797   2.179  0.00  0.00    -0.473 OA
ATOM      2  N   UNL     1     -34.930  24.707   4.911  0.00  0.00    +0.387 N 
ATOM      3  C   UNL     1     -35.719  22.550   3.136  0.00  0.00    +0.061 C 
ATOM      4  C   UNL     1     -34.730  23.648   2.715  0.00  0.00    +0.010 C 
ATOM      5  C   UNL     1     -35.716  21.232   2.328  0.00  0.00    +0.201 C 
ATOM      6  C   UNL     1     -35.157  24.952   3.466  0.00  0.00    -0.049 C 
ATOM      7  C   UNL     1     -35.609  22.319   4.657  0.00  0.00    -0.015 C 
ATOM      8  C   UNL     1     -37.099  22.998   2.782  0.00  0.00    +0.014 C 
ATOM      9  C   UNL     1     -36.607  25.417   3.097  0.00  0.00    +0.006 C 
ATOM     10  C   UNL     1     -35.741  23.620   5.466  0.00  0.00    -0.077 C 
ATOM     11  C   UNL     1     -35.014  21.326   0.948  0.00  0.00    +0.180 C 
ATOM     12  C   UNL     1     -37.571  24.297   2.809  0.00  0.00    -0.025 C 
ATOM     13  C   UNL     1     -34.656  23.783   1.217  0.00  0.00    -0.030 C 
ATOM     14  C   UNL     1     -37.847  21.945   2.306  0.00  0.00    +0.168 C 
ATOM     15  C   UNL     1     -34.806  22.719   0.414  0.00  0.00    +0.002 C 
ATOM     16  C   UNL     1     -38.905  24.497   2.449  0.00  0.00    -0.001 C 
ATOM     17  C   UNL     1     -35.026  25.914   5.726  0.00  0.00    -0.101 C 
ATOM     18  C   UNL     1     -39.168  22.116   1.953  0.00  0.00    +0.172 C 
ATOM     19  C   UNL     1     -39.702  23.408   2.042  0.00  0.00    +0.040 C 
ATOM     20  H   UNL     1     -33.960  24.394   4.957  0.00  0.00    -0.080 HD
ENDROOT
BRANCH  18  21
ATOM     21  O   UNL     1     -39.921  21.084   1.500  0.00  0.00    -0.468 OA
ATOM     22  C   UNL     1     -40.479  21.206   0.190  0.00  0.00    +0.253 C 
ENDBRANCH  18  21
BRANCH  11  23
ATOM     23  O   UNL     1     -35.710  20.528  -0.007  0.00  0.00    -0.323 OA
BRANCH  23  25
ATOM     24  O   UNL     1     -34.315  18.662  -0.139  0.00  0.00    -0.317 OA
ATOM     25  C   UNL     1     -35.588  19.138   0.291  0.00  0.00    +0.266 C 
ATOM     26  C   UNL     1     -36.708  18.399  -0.443  0.00  0.00    +0.196 C 
ATOM     27  C   UNL     1     -36.567  16.884  -0.286  0.00  0.00    +0.172 C 
ATOM     28  C   UNL     1     -35.142  16.422  -0.589  0.00  0.00    +0.178 C 
ATOM     29  C   UNL     1     -34.126  17.283   0.151  0.00  0.00    +0.245 C 
BRANCH  26  30
ATOM     30  O   UNL     1     -37.956  18.818   0.106  0.00  0.00    -0.378 OA
ATOM     31  H   UNL     1     -37.953  18.672   1.065  0.00  0.00    +0.211 HD
ENDBRANCH  26  30
BRANCH  27  32
ATOM     32  O   UNL     1     -37.449  16.227  -1.198  0.00  0.00    -0.379 OA
ATOM     33  H   UNL     1     -38.132  16.848  -1.491  0.00  0.00    +0.211 HD
ENDBRANCH  27  32
BRANCH  28  34
ATOM     34  O   UNL     1     -34.991  15.067  -0.165  0.00  0.00    -0.379 OA
ATOM     35  H   UNL     1     -34.116  14.742  -0.429  0.00  0.00    +0.211 HD
ENDBRANCH  28  34
BRANCH  29  37
ATOM     36  O   UNL     1     -32.170  17.648  -1.215  0.00  0.00    -0.247 OA
ATOM     37  C   UNL     1     -32.740  17.014  -0.338  0.00  0.00    +0.344 C 
BRANCH  37  38
ATOM     38  O   UNL     1     -32.192  15.965   0.322  0.00  0.00    -0.478 OA
ATOM     39  H   UNL     1     -31.279  15.971   0.533  0.00  0.00    +0.295 HD
ENDBRANCH  37  38
ENDBRANCH  29  37
ENDBRANCH  23  25
ENDBRANCH  11  23
TORSDOF 8
ENDMDL
MODEL 3
REMARK VINA RESULT:      -6.8      4.214      6.811
REMARK  Name = 5489029
REMARK  8 active torsions:
REMARK  status: ('A' for Active; 'I' for Inactive)
REMARK    1  A    between atoms: C_11  and  O_23
REMARK    2  A    between atoms: C_18  and  O_21
REMARK    3  A    between atoms: O_23  and  C_25
REMARK    4  A    between atoms: C_26  and  O_30
REMARK    5  A    between atoms: C_27  and  O_32
REMARK    6  A    between atoms: C_28  and  O_34
REMARK    7  A    between atoms: C_29  and  C_37
REMARK    8  A    between atoms: C_37  and  O_38
REMARK                            x       y       z     vdW  Elec       q    Type
REMARK                         _______ _______ _______ _____ _____    ______ ____
ROOT
ATOM      1  O   UNL     1     -40.035  26.583   2.057  0.00  0.00    -0.473 OA
ATOM      2  N   UNL     1     -42.254  24.672  -2.295  0.00  0.00    +0.387 N 
ATOM      3  C   UNL     1     -40.737  25.328   0.091  0.00  0.00    +0.061 C 
ATOM      4  C   UNL     1     -40.938  23.883  -0.390  0.00  0.00    +0.010 C 
ATOM      5  C   UNL     1     -39.566  25.607   1.062  0.00  0.00    +0.201 C 
ATOM      6  C   UNL     1     -42.341  23.827  -1.079  0.00  0.00    -0.049 C 
ATOM      7  C   UNL     1     -40.744  26.278  -1.124  0.00  0.00    -0.015 C 
ATOM      8  C   UNL     1     -41.853  25.674   1.021  0.00  0.00    +0.014 C 
ATOM      9  C   UNL     1     -43.510  24.195  -0.103  0.00  0.00    +0.006 C 
ATOM     10  C   UNL     1     -41.978  26.085  -2.020  0.00  0.00    -0.077 C 
ATOM     11  C   UNL     1     -38.991  24.343   1.753  0.00  0.00    +0.180 C 
ATOM     12  C   UNL     1     -43.159  25.228   0.935  0.00  0.00    -0.025 C 
ATOM     13  C   UNL     1     -40.748  22.894   0.730  0.00  0.00    -0.030 C 
ATOM     14  C   UNL     1     -41.396  26.433   2.074  0.00  0.00    +0.168 C 
ATOM     15  C   UNL     1     -39.869  23.120   1.718  0.00  0.00    +0.002 C 
ATOM     16  C   UNL     1     -44.053  25.683   1.906  0.00  0.00    -0.001 C 
ATOM     17  C   UNL     1     -43.394  24.515  -3.193  0.00  0.00    -0.101 C 
ATOM     18  C   UNL     1     -42.259  26.901   3.039  0.00  0.00    +0.172 C 
ATOM     19  C   UNL     1     -43.606  26.532   2.940  0.00  0.00    +0.040 C 
ATOM     20  H   UNL     1     -41.437  24.310  -2.787  0.00  0.00    -0.080 HD
ENDROOT
BRANCH  18  21
ATOM     21  O   UNL     1     -41.824  27.666   4.071  0.00  0.00    -0.468 OA
ATOM     22  C   UNL     1     -42.655  28.756   4.474  0.00  0.00    +0.253 C 
ENDBRANCH  18  21
BRANCH  11  23
ATOM     23  O   UNL     1     -38.621  24.649   3.096  0.00  0.00    -0.323 OA
BRANCH  23  25
ATOM     24  O   UNL     1     -36.905  23.497   4.178  0.00  0.00    -0.317 OA
ATOM     25  C   UNL     1     -37.208  24.560   3.279  0.00  0.00    +0.266 C 
ATOM     26  C   UNL     1     -36.722  25.893   3.847  0.00  0.00    +0.196 C 
ATOM     27  C   UNL     1     -35.235  25.835   4.201  0.00  0.00    +0.172 C 
ATOM     28  C   UNL     1     -34.907  24.590   5.026  0.00  0.00    +0.178 C 
ATOM     29  C   UNL     1     -35.506  23.345   4.384  0.00  0.00    +0.245 C 
BRANCH  26  30
ATOM     30  O   UNL     1     -36.936  26.904   2.863  0.00  0.00    -0.378 OA
ATOM     31  H   UNL     1     -36.089  27.140   2.453  0.00  0.00    +0.211 HD
ENDBRANCH  26  30
BRANCH  27  32
ATOM     32  O   UNL     1     -34.885  26.983   4.975  0.00  0.00    -0.379 OA
ATOM     33  H   UNL     1     -35.620  27.214   5.563  0.00  0.00    +0.211 HD
ENDBRANCH  27  32
BRANCH  28  34
ATOM     34  O   UNL     1     -33.489  24.435   5.092  0.00  0.00    -0.379 OA
ATOM     35  H   UNL     1     -33.231  24.212   6.000  0.00  0.00    +0.211 HD
ENDBRANCH  28  34
BRANCH  29  37
ATOM     36  O   UNL     1     -35.263  22.245   6.519  0.00  0.00    -0.247 OA
ATOM     37  C   UNL     1     -35.419  22.174   5.308  0.00  0.00    +0.344 C 
BRANCH  37  38
ATOM     38  O   UNL     1     -35.535  21.011   4.622  0.00  0.00    -0.478 OA
ATOM     39  H   UNL     1     -36.322  20.507   4.686  0.00  0.00    +0.295 HD
ENDBRANCH  37  38
ENDBRANCH  29  37
ENDBRANCH  23  25
ENDBRANCH  11  23
TORSDOF 8
ENDMDL
MODEL 4
REMARK VINA RESULT:      -6.7      3.143      8.149
REMARK  Name = 5489029
REMARK  8 active torsions:
REMARK  status: ('A' for Active; 'I' for Inactive)
REMARK    1  A    between atoms: C_11  and  O_23
REMARK    2  A    between atoms: C_18  and  O_21
REMARK    3  A    between atoms: O_23  and  C_25
REMARK    4  A    between atoms: C_26  and  O_30
REMARK    5  A    between atoms: C_27  and  O_32
REMARK    6  A    between atoms: C_28  and  O_34
REMARK    7  A    between atoms: C_29  and  C_37
REMARK    8  A    between atoms: C_37  and  O_38
REMARK                            x       y       z     vdW  Elec       q    Type
REMARK                         _______ _______ _______ _____ _____    ______ ____
ROOT
ATOM      1  O   UNL     1     -32.328  27.826   3.567  0.00  0.00    -0.473 OA
ATOM      2  N   UNL     1     -31.561  31.758   0.180  0.00  0.00    +0.387 N 
ATOM      3  C   UNL     1     -32.455  29.598   1.902  0.00  0.00    +0.061 C 
ATOM      4  C   UNL     1     -33.393  30.717   1.423  0.00  0.00    +0.010 C 
ATOM      5  C   UNL     1     -33.100  28.286   2.404  0.00  0.00    +0.201 C 
ATOM      6  C   UNL     1     -32.521  32.008   1.283  0.00  0.00    -0.049 C 
ATOM      7  C   UNL     1     -31.361  29.359   0.842  0.00  0.00    -0.015 C 
ATOM      8  C   UNL     1     -31.837  30.023   3.193  0.00  0.00    +0.014 C 
ATOM      9  C   UNL     1     -31.869  32.449   2.637  0.00  0.00    +0.006 C 
ATOM     10  C   UNL     1     -30.634  30.652   0.438  0.00  0.00    -0.077 C 
ATOM     11  C   UNL     1     -34.608  28.402   2.750  0.00  0.00    +0.180 C 
ATOM     12  C   UNL     1     -31.492  31.313   3.551  0.00  0.00    -0.025 C 
ATOM     13  C   UNL     1     -34.590  30.863   2.326  0.00  0.00    -0.030 C 
ATOM     14  C   UNL     1     -31.741  28.960   4.062  0.00  0.00    +0.168 C 
ATOM     15  C   UNL     1     -35.128  29.801   2.945  0.00  0.00    +0.002 C 
ATOM     16  C   UNL     1     -30.912  31.492   4.808  0.00  0.00    -0.001 C 
ATOM     17  C   UNL     1     -30.853  32.957  -0.256  0.00  0.00    -0.101 C 
ATOM     18  C   UNL     1     -31.164  29.109   5.304  0.00  0.00    +0.172 C 
ATOM     19  C   UNL     1     -30.732  30.390   5.670  0.00  0.00    +0.040 C 
ATOM     20  H   UNL     1     -32.152  31.462  -0.597  0.00  0.00    -0.080 HD
ENDROOT
BRANCH  18  21
ATOM     21  O   UNL     1     -31.047  28.066   6.163  0.00  0.00    -0.468 OA
ATOM     22  C   UNL     1     -32.228  27.650   6.851  0.00  0.00    +0.253 C 
ENDBRANCH  18  21
BRANCH  11  23
ATOM     23  O   UNL     1     -34.909  27.597   3.887  0.00  0.00    -0.323 OA
BRANCH  23  25
ATOM     24  O   UNL     1     -36.751  26.200   3.575  0.00  0.00    -0.317 OA
ATOM     25  C   UNL     1     -35.331  26.289   3.502  0.00  0.00    +0.266 C 
ATOM     26  C   UNL     1     -34.685  25.286   4.458  0.00  0.00    +0.196 C 
ATOM     27  C   UNL     1     -35.194  23.867   4.197  0.00  0.00    +0.172 C 
ATOM     28  C   UNL     1     -36.720  23.830   4.110  0.00  0.00    +0.178 C 
ATOM     29  C   UNL     1     -37.235  24.922   3.181  0.00  0.00    +0.245 C 
BRANCH  26  30
ATOM     30  O   UNL     1     -33.272  25.325   4.260  0.00  0.00    -0.378 OA
ATOM     31  H   UNL     1     -33.046  24.850   3.445  0.00  0.00    +0.211 HD
ENDBRANCH  26  30
BRANCH  27  32
ATOM     32  O   UNL     1     -34.791  23.013   5.269  0.00  0.00    -0.379 OA
ATOM     33  H   UNL     1     -34.945  22.089   5.021  0.00  0.00    +0.211 HD
ENDBRANCH  27  32
BRANCH  28  34
ATOM     34  O   UNL     1     -37.127  22.562   3.598  0.00  0.00    -0.379 OA
ATOM     35  H   UNL     1     -37.200  21.927   4.328  0.00  0.00    +0.211 HD
ENDBRANCH  28  34
BRANCH  29  37
ATOM     36  O   UNL     1     -39.514  24.136   3.296  0.00  0.00    -0.247 OA
ATOM     37  C   UNL     1     -38.718  25.064   3.293  0.00  0.00    +0.344 C 
BRANCH  37  38
ATOM     38  O   UNL     1     -39.069  26.370   3.389  0.00  0.00    -0.478 OA
ATOM     39  H   UNL     1     -38.731  26.895   4.088  0.00  0.00    +0.295 HD
ENDBRANCH  37  38
ENDBRANCH  29  37
ENDBRANCH  23  25
ENDBRANCH  11  23
TORSDOF 8
ENDMDL
MODEL 5
REMARK VINA RESULT:      -6.5      4.656      7.870
REMARK  Name = 5489029
REMARK  8 active torsions:
REMARK  status: ('A' for Active; 'I' for Inactive)
REMARK    1  A    between atoms: C_11  and  O_23
REMARK    2  A    between atoms: C_18  and  O_21
REMARK    3  A    between atoms: O_23  and  C_25
REMARK    4  A    between atoms: C_26  and  O_30
REMARK    5  A    between atoms: C_27  and  O_32
REMARK    6  A    between atoms: C_28  and  O_34
REMARK    7  A    between atoms: C_29  and  C_37
REMARK    8  A    between atoms: C_37  and  O_38
REMARK                            x       y       z     vdW  Elec       q    Type
REMARK                         _______ _______ _______ _____ _____    ______ ____
ROOT
ATOM      1  O   UNL     1     -37.081  20.475  -0.538  0.00  0.00    -0.473 OA
ATOM      2  N   UNL     1     -32.283  18.630  -1.585  0.00  0.00    +0.387 N 
ATOM      3  C   UNL     1     -34.720  19.884  -0.628  0.00  0.00    +0.061 C 
ATOM      4  C   UNL     1     -33.537  19.562   0.297  0.00  0.00    +0.010 C 
ATOM      5  C   UNL     1     -35.742  20.940  -0.148  0.00  0.00    +0.201 C 
ATOM      6  C   UNL     1     -32.861  18.269  -0.267  0.00  0.00    -0.049 C 
ATOM      7  C   UNL     1     -34.195  20.166  -2.050  0.00  0.00    -0.015 C 
ATOM      8  C   UNL     1     -35.640  18.708  -0.643  0.00  0.00    +0.014 C 
ATOM      9  C   UNL     1     -33.830  17.038  -0.287  0.00  0.00    +0.006 C 
ATOM     10  C   UNL     1     -33.278  19.049  -2.577  0.00  0.00    -0.077 C 
ATOM     11  C   UNL     1     -35.683  21.246   1.372  0.00  0.00    +0.180 C 
ATOM     12  C   UNL     1     -35.272  17.379  -0.552  0.00  0.00    -0.025 C 
ATOM     13  C   UNL     1     -33.969  19.467   1.737  0.00  0.00    -0.030 C 
ATOM     14  C   UNL     1     -36.955  19.116  -0.653  0.00  0.00    +0.168 C 
ATOM     15  C   UNL     1     -34.964  20.227   2.217  0.00  0.00    +0.002 C 
ATOM     16  C   UNL     1     -36.295  16.430  -0.597  0.00  0.00    -0.001 C 
ATOM     17  C   UNL     1     -31.389  17.611  -2.125  0.00  0.00    -0.101 C 
ATOM     18  C   UNL     1     -37.981  18.199  -0.706  0.00  0.00    +0.172 C 
ATOM     19  C   UNL     1     -37.640  16.841  -0.694  0.00  0.00    +0.040 C 
ATOM     20  H   UNL     1     -31.711  19.451  -1.386  0.00  0.00    -0.080 HD
ENDROOT
BRANCH  18  21
ATOM     21  O   UNL     1     -39.280  18.588  -0.734  0.00  0.00    -0.468 OA
ATOM     22  C   UNL     1     -40.060  18.181  -1.860  0.00  0.00    +0.253 C 
ENDBRANCH  18  21
BRANCH  11  23
ATOM     23  O   UNL     1     -36.998  21.468   1.875  0.00  0.00    -0.323 OA
BRANCH  23  25
ATOM     24  O   UNL     1     -36.880  23.337   3.267  0.00  0.00    -0.317 OA
ATOM     25  C   UNL     1     -37.283  22.862   1.985  0.00  0.00    +0.266 C 
ATOM     26  C   UNL     1     -38.789  23.051   1.798  0.00  0.00    +0.196 C 
ATOM     27  C   UNL     1     -39.198  24.505   2.036  0.00  0.00    +0.172 C 
ATOM     28  C   UNL     1     -38.608  25.044   3.340  0.00  0.00    +0.178 C 
ATOM     29  C   UNL     1     -37.120  24.730   3.428  0.00  0.00    +0.245 C 
BRANCH  26  30
ATOM     30  O   UNL     1     -39.124  22.678   0.462  0.00  0.00    -0.378 OA
ATOM     31  H   UNL     1     -38.525  23.122  -0.158  0.00  0.00    +0.211 HD
ENDBRANCH  26  30
BRANCH  27  32
ATOM     32  O   UNL     1     -40.621  24.590   2.127  0.00  0.00    -0.379 OA
ATOM     33  H   UNL     1     -40.875  24.806   3.037  0.00  0.00    +0.211 HD
ENDBRANCH  27  32
BRANCH  28  34
ATOM     34  O   UNL     1     -38.781  26.460   3.380  0.00  0.00    -0.379 OA
ATOM     35  H   UNL     1     -37.913  26.893   3.347  0.00  0.00    +0.211 HD
ENDBRANCH  28  34
BRANCH  29  37
ATOM     36  O   UNL     1     -36.154  24.173   5.569  0.00  0.00    -0.247 OA
ATOM     37  C   UNL     1     -36.594  25.014   4.798  0.00  0.00    +0.344 C 
BRANCH  37  38
ATOM     38  O   UNL     1     -36.672  26.337   5.078  0.00  0.00    -0.478 OA
ATOM     39  H   UNL     1     -36.121  26.944   4.624  0.00  0.00    +0.295 HD
ENDBRANCH  37  38
ENDBRANCH  29  37
ENDBRANCH  23  25
ENDBRANCH  11  23
TORSDOF 8
ENDMDL
MODEL 6
REMARK VINA RESULT:      -6.5      3.796      6.919
REMARK  Name = 5489029
REMARK  8 active torsions:
REMARK  status: ('A' for Active; 'I' for Inactive)
REMARK    1  A    between atoms: C_11  and  O_23
REMARK    2  A    between atoms: C_18  and  O_21
REMARK    3  A    between atoms: O_23  and  C_25
REMARK    4  A    between atoms: C_26  and  O_30
REMARK    5  A    between atoms: C_27  and  O_32
REMARK    6  A    between atoms: C_28  and  O_34
REMARK    7  A    between atoms: C_29  and  C_37
REMARK    8  A    between atoms: C_37  and  O_38
REMARK                            x       y       z     vdW  Elec       q    Type
REMARK                         _______ _______ _______ _____ _____    ______ ____
ROOT
ATOM      1  O   UNL     1     -37.369  21.525   0.083  0.00  0.00    -0.473 OA
ATOM      2  N   UNL     1     -32.876  19.509  -1.723  0.00  0.00    +0.387 N 
ATOM      3  C   UNL     1     -35.097  20.751  -0.326  0.00  0.00    +0.061 C 
ATOM      4  C   UNL     1     -33.900  20.130   0.410  0.00  0.00    +0.010 C 
ATOM      5  C   UNL     1     -35.966  21.770   0.446  0.00  0.00    +0.201 C 
ATOM      6  C   UNL     1     -33.405  18.931  -0.464  0.00  0.00    -0.049 C 
ATOM      7  C   UNL     1     -34.635  21.280  -1.699  0.00  0.00    -0.015 C 
ATOM      8  C   UNL     1     -36.139  19.696  -0.505  0.00  0.00    +0.014 C 
ATOM      9  C   UNL     1     -34.501  17.828  -0.654  0.00  0.00    +0.006 C 
ATOM     10  C   UNL     1     -33.880  20.221  -2.519  0.00  0.00    -0.077 C 
ATOM     11  C   UNL     1     -35.778  21.737   1.986  0.00  0.00    +0.180 C 
ATOM     12  C   UNL     1     -35.912  18.349  -0.721  0.00  0.00    -0.025 C 
ATOM     13  C   UNL     1     -34.248  19.770   1.831  0.00  0.00    -0.030 C 
ATOM     14  C   UNL     1     -37.399  20.217  -0.319  0.00  0.00    +0.168 C 
ATOM     15  C   UNL     1     -35.123  20.500   2.539  0.00  0.00    +0.002 C 
ATOM     16  C   UNL     1     -37.033  17.531  -0.874  0.00  0.00    -0.001 C 
ATOM     17  C   UNL     1     -32.134  18.550  -2.535  0.00  0.00    -0.101 C 
ATOM     18  C   UNL     1     -38.520  19.432  -0.473  0.00  0.00    +0.172 C 
ATOM     19  C   UNL     1     -38.329  18.077  -0.770  0.00  0.00    +0.040 C 
ATOM     20  H   UNL     1     -32.207  20.212  -1.409  0.00  0.00    -0.080 HD
ENDROOT
BRANCH  18  21
ATOM     21  O   UNL     1     -39.768  19.937  -0.311  0.00  0.00    -0.468 OA
ATOM     22  C   UNL     1     -40.477  20.319  -1.491  0.00  0.00    +0.253 C 
ENDBRANCH  18  21
BRANCH  11  23
ATOM     23  O   UNL     1     -37.027  21.969   2.633  0.00  0.00    -0.323 OA
BRANCH  23  25
ATOM     24  O   UNL     1     -36.836  24.270   2.297  0.00  0.00    -0.317 OA
ATOM     25  C   UNL     1     -37.055  23.248   3.266  0.00  0.00    +0.266 C 
ATOM     26  C   UNL     1     -35.953  23.274   4.325  0.00  0.00    +0.196 C 
ATOM     27  C   UNL     1     -35.826  24.660   4.958  0.00  0.00    +0.172 C 
ATOM     28  C   UNL     1     -35.765  25.756   3.893  0.00  0.00    +0.178 C 
ATOM     29  C   UNL     1     -36.875  25.573   2.866  0.00  0.00    +0.245 C 
BRANCH  26  30
ATOM     30  O   UNL     1     -36.280  22.320   5.335  0.00  0.00    -0.378 OA
ATOM     31  H   UNL     1     -35.728  21.530   5.225  0.00  0.00    +0.211 HD
ENDBRANCH  26  30
BRANCH  27  32
ATOM     32  O   UNL     1     -34.625  24.724   5.728  0.00  0.00    -0.379 OA
ATOM     33  H   UNL     1     -34.039  23.995   5.474  0.00  0.00    +0.211 HD
ENDBRANCH  27  32
BRANCH  28  34
ATOM     34  O   UNL     1     -35.927  27.027   4.522  0.00  0.00    -0.379 OA
ATOM     35  H   UNL     1     -35.360  27.679   4.082  0.00  0.00    +0.211 HD
ENDBRANCH  28  34
BRANCH  29  37
ATOM     36  O   UNL     1     -36.153  26.132   0.632  0.00  0.00    -0.247 OA
ATOM     37  C   UNL     1     -36.667  26.469   1.689  0.00  0.00    +0.344 C 
BRANCH  37  38
ATOM     38  O   UNL     1     -37.124  27.718   1.949  0.00  0.00    -0.478 OA
ATOM     39  H   UNL     1     -37.096  28.053   2.824  0.00  0.00    +0.295 HD
ENDBRANCH  37  38
ENDBRANCH  29  37
ENDBRANCH  23  25
ENDBRANCH  11  23
TORSDOF 8
ENDMDL
MODEL 7
REMARK VINA RESULT:      -6.5      4.725      7.809
REMARK  Name = 5489029
REMARK  8 active torsions:
REMARK  status: ('A' for Active; 'I' for Inactive)
REMARK    1  A    between atoms: C_11  and  O_23
REMARK    2  A    between atoms: C_18  and  O_21
REMARK    3  A    between atoms: O_23  and  C_25
REMARK    4  A    between atoms: C_26  and  O_30
REMARK    5  A    between atoms: C_27  and  O_32
REMARK    6  A    between atoms: C_28  and  O_34
REMARK    7  A    between atoms: C_29  and  C_37
REMARK    8  A    between atoms: C_37  and  O_38
REMARK                            x       y       z     vdW  Elec       q    Type
REMARK                         _______ _______ _______ _____ _____    ______ ____
ROOT
ATOM      1  O   UNL     1     -36.542  20.130  -0.944  0.00  0.00    -0.473 OA
ATOM      2  N   UNL     1     -32.490  16.979  -2.025  0.00  0.00    +0.387 N 
ATOM      3  C   UNL     1     -34.420  18.947  -1.116  0.00  0.00    +0.061 C 
ATOM      4  C   UNL     1     -33.244  18.478  -0.246  0.00  0.00    +0.010 C 
ATOM      5  C   UNL     1     -35.094  20.291  -0.752  0.00  0.00    +0.201 C 
ATOM      6  C   UNL     1     -32.971  16.985  -0.622  0.00  0.00    -0.049 C 
ATOM      7  C   UNL     1     -34.021  18.864  -2.603  0.00  0.00    -0.015 C 
ATOM      8  C   UNL     1     -35.590  18.059  -0.847  0.00  0.00    +0.014 C 
ATOM      9  C   UNL     1     -34.202  16.056  -0.343  0.00  0.00    +0.006 C 
ATOM     10  C   UNL     1     -33.469  17.483  -2.992  0.00  0.00    -0.077 C 
ATOM     11  C   UNL     1     -34.778  20.800   0.679  0.00  0.00    +0.180 C 
ATOM     12  C   UNL     1     -35.542  16.709  -0.549  0.00  0.00    -0.025 C 
ATOM     13  C   UNL     1     -33.507  18.719   1.219  0.00  0.00    -0.030 C 
ATOM     14  C   UNL     1     -36.760  18.783  -0.824  0.00  0.00    +0.168 C 
ATOM     15  C   UNL     1     -34.226  19.773   1.633  0.00  0.00    +0.002 C 
ATOM     16  C   UNL     1     -36.760  16.059  -0.342  0.00  0.00    -0.001 C 
ATOM     17  C   UNL     1     -31.938  15.694  -2.443  0.00  0.00    -0.101 C 
ATOM     18  C   UNL     1     -37.974  18.163  -0.630  0.00  0.00    +0.172 C 
ATOM     19  C   UNL     1     -37.969  16.782  -0.403  0.00  0.00    +0.040 C 
ATOM     20  H   UNL     1     -31.718  17.646  -2.022  0.00  0.00    -0.080 HD
ENDROOT
BRANCH  18  21
ATOM     21  O   UNL     1     -39.136  18.863  -0.624  0.00  0.00    -0.468 OA
ATOM     22  C   UNL     1     -39.875  18.915  -1.846  0.00  0.00    +0.253 C 
ENDBRANCH  18  21
BRANCH  11  23
ATOM     23  O   UNL     1     -35.930  21.427   1.238  0.00  0.00    -0.323 OA
BRANCH  23  25
ATOM     24  O   UNL     1     -35.608  21.841   3.511  0.00  0.00    -0.317 OA
ATOM     25  C   UNL     1     -35.568  22.411   2.206  0.00  0.00    +0.266 C 
ATOM     26  C   UNL     1     -36.566  23.565   2.099  0.00  0.00    +0.196 C 
ATOM     27  C   UNL     1     -36.330  24.604   3.197  0.00  0.00    +0.172 C 
ATOM     28  C   UNL     1     -36.206  23.945   4.570  0.00  0.00    +0.178 C 
ATOM     29  C   UNL     1     -35.235  22.772   4.520  0.00  0.00    +0.245 C 
BRANCH  26  30
ATOM     30  O   UNL     1     -36.403  24.181   0.821  0.00  0.00    -0.378 OA
ATOM     31  H   UNL     1     -35.599  24.723   0.824  0.00  0.00    +0.211 HD
ENDBRANCH  26  30
BRANCH  27  32
ATOM     32  O   UNL     1     -37.433  25.511   3.239  0.00  0.00    -0.379 OA
ATOM     33  H   UNL     1     -37.408  26.012   4.068  0.00  0.00    +0.211 HD
ENDBRANCH  27  32
BRANCH  28  34
ATOM     34  O   UNL     1     -35.716  24.905   5.506  0.00  0.00    -0.379 OA
ATOM     35  H   UNL     1     -35.616  25.763   5.065  0.00  0.00    +0.211 HD
ENDBRANCH  28  34
BRANCH  29  37
ATOM     36  O   UNL     1     -35.347  22.429   6.907  0.00  0.00    -0.247 OA
ATOM     37  C   UNL     1     -35.307  21.965   5.776  0.00  0.00    +0.344 C 
BRANCH  37  38
ATOM     38  O   UNL     1     -35.318  20.639   5.496  0.00  0.00    -0.478 OA
ATOM     39  H   UNL     1     -36.091  20.242   5.145  0.00  0.00    +0.295 HD
ENDBRANCH  37  38
ENDBRANCH  29  37
ENDBRANCH  23  25
ENDBRANCH  11  23
TORSDOF 8
ENDMDL
MODEL 8
REMARK VINA RESULT:      -6.4      3.239      5.696
REMARK  Name = 5489029
REMARK  8 active torsions:
REMARK  status: ('A' for Active; 'I' for Inactive)
REMARK    1  A    between atoms: C_11  and  O_23
REMARK    2  A    between atoms: C_18  and  O_21
REMARK    3  A    between atoms: O_23  and  C_25
REMARK    4  A    between atoms: C_26  and  O_30
REMARK    5  A    between atoms: C_27  and  O_32
REMARK    6  A    between atoms: C_28  and  O_34
REMARK    7  A    between atoms: C_29  and  C_37
REMARK    8  A    between atoms: C_37  and  O_38
REMARK                            x       y       z     vdW  Elec       q    Type
REMARK                         _______ _______ _______ _____ _____    ______ ____
ROOT
ATOM      1  O   UNL     1     -36.685  23.000  -0.154  0.00  0.00    -0.473 OA
ATOM      2  N   UNL     1     -32.807  20.075  -2.133  0.00  0.00    +0.387 N 
ATOM      3  C   UNL     1     -34.663  22.079  -1.149  0.00  0.00    +0.061 C 
ATOM      4  C   UNL     1     -33.144  22.305  -1.186  0.00  0.00    +0.010 C 
ATOM      5  C   UNL     1     -35.574  23.324  -1.059  0.00  0.00    +0.201 C 
ATOM      6  C   UNL     1     -32.473  20.911  -0.954  0.00  0.00    -0.049 C 
ATOM      7  C   UNL     1     -35.066  21.126  -2.293  0.00  0.00    -0.015 C 
ATOM      8  C   UNL     1     -35.018  21.477   0.171  0.00  0.00    +0.014 C 
ATOM      9  C   UNL     1     -32.851  20.280   0.429  0.00  0.00    +0.006 C 
ATOM     10  C   UNL     1     -34.242  19.828  -2.301  0.00  0.00    -0.077 C 
ATOM     11  C   UNL     1     -34.849  24.619  -0.606  0.00  0.00    +0.180 C 
ATOM     12  C   UNL     1     -34.244  20.596   0.904  0.00  0.00    -0.025 C 
ATOM     13  C   UNL     1     -32.719  23.376  -0.215  0.00  0.00    -0.030 C 
ATOM     14  C   UNL     1     -36.200  21.999   0.644  0.00  0.00    +0.168 C 
ATOM     15  C   UNL     1     -33.513  24.421   0.060  0.00  0.00    +0.002 C 
ATOM     16  C   UNL     1     -34.770  20.143   2.115  0.00  0.00    -0.001 C 
ATOM     17  C   UNL     1     -32.040  18.836  -2.202  0.00  0.00    -0.101 C 
ATOM     18  C   UNL     1     -36.743  21.561   1.832  0.00  0.00    +0.172 C 
ATOM     19  C   UNL     1     -36.022  20.609   2.564  0.00  0.00    +0.040 C 
ATOM     20  H   UNL     1     -32.519  20.647  -2.928  0.00  0.00    -0.080 HD
ENDROOT
BRANCH  18  21
ATOM     21  O   UNL     1     -37.917  22.053   2.300  0.00  0.00    -0.468 OA
ATOM     22  C   UNL     1     -39.118  21.445   1.822  0.00  0.00    +0.253 C 
ENDBRANCH  18  21
BRANCH  11  23
ATOM     23  O   UNL     1     -35.709  25.391   0.228  0.00  0.00    -0.323 OA
BRANCH  23  25
ATOM     24  O   UNL     1     -35.892  24.867   2.494  0.00  0.00    -0.317 OA
ATOM     25  C   UNL     1     -35.140  25.588   1.522  0.00  0.00    +0.266 C 
ATOM     26  C   UNL     1     -35.172  27.086   1.827  0.00  0.00    +0.196 C 
ATOM     27  C   UNL     1     -34.703  27.369   3.255  0.00  0.00    +0.172 C 
ATOM     28  C   UNL     1     -35.405  26.460   4.264  0.00  0.00    +0.178 C 
ATOM     29  C   UNL     1     -35.358  25.008   3.805  0.00  0.00    +0.245 C 
BRANCH  26  30
ATOM     30  O   UNL     1     -34.309  27.750   0.905  0.00  0.00    -0.378 OA
ATOM     31  H   UNL     1     -33.392  27.684   1.215  0.00  0.00    +0.211 HD
ENDBRANCH  26  30
BRANCH  27  32
ATOM     32  O   UNL     1     -35.005  28.724   3.596  0.00  0.00    -0.379 OA
ATOM     33  H   UNL     1     -35.798  29.008   3.117  0.00  0.00    +0.211 HD
ENDBRANCH  27  32
BRANCH  28  34
ATOM     34  O   UNL     1     -34.744  26.564   5.525  0.00  0.00    -0.379 OA
ATOM     35  H   UNL     1     -34.619  25.678   5.898  0.00  0.00    +0.211 HD
ENDBRANCH  28  34
BRANCH  29  37
ATOM     36  O   UNL     1     -35.915  23.531   5.631  0.00  0.00    -0.247 OA
ATOM     37  C   UNL     1     -36.260  24.155   4.638  0.00  0.00    +0.344 C 
BRANCH  37  38
ATOM     38  O   UNL     1     -37.521  24.162   4.142  0.00  0.00    -0.478 OA
ATOM     39  H   UNL     1     -38.253  24.148   4.727  0.00  0.00    +0.295 HD
ENDBRANCH  37  38
ENDBRANCH  29  37
ENDBRANCH  23  25
ENDBRANCH  11  23
TORSDOF 8
ENDMDL
MODEL 9
REMARK VINA RESULT:      -6.3      1.483      1.763
REMARK  Name = 5489029
REMARK  8 active torsions:
REMARK  status: ('A' for Active; 'I' for Inactive)
REMARK    1  A    between atoms: C_11  and  O_23
REMARK    2  A    between atoms: C_18  and  O_21
REMARK    3  A    between atoms: O_23  and  C_25
REMARK    4  A    between atoms: C_26  and  O_30
REMARK    5  A    between atoms: C_27  and  O_32
REMARK    6  A    between atoms: C_28  and  O_34
REMARK    7  A    between atoms: C_29  and  C_37
REMARK    8  A    between atoms: C_37  and  O_38
REMARK                            x       y       z     vdW  Elec       q    Type
REMARK                         _______ _______ _______ _____ _____    ______ ____
ROOT
ATOM      1  O   UNL     1     -36.175  25.880   1.491  0.00  0.00    -0.473 OA
ATOM      2  N   UNL     1     -35.962  20.667   0.946  0.00  0.00    +0.387 N 
ATOM      3  C   UNL     1     -35.740  23.486   1.601  0.00  0.00    +0.061 C 
ATOM      4  C   UNL     1     -35.448  22.375   2.620  0.00  0.00    +0.010 C 
ATOM      5  C   UNL     1     -35.160  24.892   1.883  0.00  0.00    +0.201 C 
ATOM      6  C   UNL     1     -36.394  21.180   2.269  0.00  0.00    -0.049 C 
ATOM      7  C   UNL     1     -35.410  22.979   0.183  0.00  0.00    -0.015 C 
ATOM      8  C   UNL     1     -37.187  23.845   1.696  0.00  0.00    +0.014 C 
ATOM      9  C   UNL     1     -37.911  21.560   2.365  0.00  0.00    +0.006 C 
ATOM     10  C   UNL     1     -36.094  21.640  -0.142  0.00  0.00    -0.077 C 
ATOM     11  C   UNL     1     -34.706  25.116   3.350  0.00  0.00    +0.180 C 
ATOM     12  C   UNL     1     -38.228  22.981   1.983  0.00  0.00    -0.025 C 
ATOM     13  C   UNL     1     -35.568  22.875   4.037  0.00  0.00    -0.030 C 
ATOM     14  C   UNL     1     -37.363  25.204   1.565  0.00  0.00    +0.168 C 
ATOM     15  C   UNL     1     -35.245  24.136   4.359  0.00  0.00    +0.002 C 
ATOM     16  C   UNL     1     -39.514  23.522   2.012  0.00  0.00    -0.001 C 
ATOM     17  C   UNL     1     -36.567  19.387   0.594  0.00  0.00    -0.101 C 
ATOM     18  C   UNL     1     -38.623  25.759   1.582  0.00  0.00    +0.172 C 
ATOM     19  C   UNL     1     -39.709  24.901   1.793  0.00  0.00    +0.040 C 
ATOM     20  H   UNL     1     -34.962  20.500   1.063  0.00  0.00    -0.080 HD
ENDROOT
BRANCH  18  21
ATOM     21  O   UNL     1     -38.813  27.094   1.436  0.00  0.00    -0.468 OA
ATOM     22  C   UNL     1     -39.274  27.554   0.163  0.00  0.00    +0.253 C 
ENDBRANCH  18  21
BRANCH  11  23
ATOM     23  O   UNL     1     -34.999  26.452   3.751  0.00  0.00    -0.323 OA
BRANCH  23  25
ATOM     24  O   UNL     1     -33.331  27.524   4.980  0.00  0.00    -0.317 OA
ATOM     25  C   UNL     1     -33.842  27.284   3.672  0.00  0.00    +0.266 C 
ATOM     26  C   UNL     1     -34.253  28.601   3.012  0.00  0.00    +0.196 C 
ATOM     27  C   UNL     1     -33.098  29.604   3.012  0.00  0.00    +0.172 C 
ATOM     28  C   UNL     1     -32.456  29.714   4.395  0.00  0.00    +0.178 C 
ATOM     29  C   UNL     1     -32.161  28.332   4.964  0.00  0.00    +0.245 C 
BRANCH  26  30
ATOM     30  O   UNL     1     -34.641  28.325   1.666  0.00  0.00    -0.378 OA
ATOM     31  H   UNL     1     -33.849  28.223   1.116  0.00  0.00    +0.211 HD
ENDBRANCH  26  30
BRANCH  27  32
ATOM     32  O   UNL     1     -33.589  30.895   2.648  0.00  0.00    -0.379 OA
ATOM     33  H   UNL     1     -34.537  30.838   2.453  0.00  0.00    +0.211 HD
ENDBRANCH  27  32
BRANCH  28  34
ATOM     34  O   UNL     1     -31.229  30.436   4.283  0.00  0.00    -0.379 OA
ATOM     35  H   UNL     1     -31.168  30.833   3.400  0.00  0.00    +0.211 HD
ENDBRANCH  28  34
BRANCH  29  37
ATOM     36  O   UNL     1     -31.761  29.448   7.067  0.00  0.00    -0.247 OA
ATOM     37  C   UNL     1     -31.782  28.419   6.407  0.00  0.00    +0.344 C 
BRANCH  37  38
ATOM     38  O   UNL     1     -31.458  27.196   6.893  0.00  0.00    -0.478 OA
ATOM     39  H   UNL     1     -32.065  26.485   6.812  0.00  0.00    +0.295 HD
ENDBRANCH  37  38
ENDBRANCH  29  37
ENDBRANCH  23  25
ENDBRANCH  11  23
TORSDOF 8
ENDMDL
