MODEL 1
REMARK VINA RESULT:      -6.3      0.000      0.000
REMARK  Name = 5321987
REMARK  9 active torsions:
REMARK  status: ('A' for Active; 'I' for Inactive)
REMARK    1  A    between atoms: C_2  and  C_11
REMARK    2  A    between atoms: C_3  and  O_29
REMARK    3  A    between atoms: C_9  and  O_27
REMARK    4  A    between atoms: C_12  and  O_17
REMARK    5  A    between atoms: C_14  and  C_21
REMARK    6  A    between atoms: C_15  and  O_19
REMARK    7  A    between atoms: C_22  and  C_24
REMARK    8  A    between atoms: C_24  and  O_25
REMARK    9  A    between atoms: O_29  and  S_30
REMARK                            x       y       z     vdW  Elec       q    Type
REMARK                         _______ _______ _______ _____ _____    ______ ____
ROOT
ATOM      1  O   UNL     1     -34.683  23.166   4.759  0.00  0.00    -0.475 OA
ATOM      2  C   UNL     1     -36.505  22.532   3.212  0.00  0.00    +0.103 C 
ATOM      3  C   UNL     1     -36.858  24.012   2.975  0.00  0.00    +0.180 C 
ATOM      4  C   UNL     1     -35.872  22.387   4.603  0.00  0.00    +0.213 C 
ATOM      5  C   UNL     1     -35.823  24.946   3.542  0.00  0.00    +0.044 C 
ATOM      6  C   UNL     1     -34.812  24.479   4.392  0.00  0.00    +0.137 C 
ATOM      7  C   UNL     1     -35.857  26.310   3.214  0.00  0.00    +0.038 C 
ATOM      8  C   UNL     1     -33.836  25.354   4.877  0.00  0.00    +0.040 C 
ATOM      9  C   UNL     1     -34.890  27.184   3.711  0.00  0.00    +0.139 C 
ATOM     10  C   UNL     1     -33.878  26.705   4.540  0.00  0.00    +0.040 C 
ENDROOT
BRANCH   2  11
ATOM     11  C   UNL     1     -35.644  21.865   2.145  0.00  0.00    +0.021 C 
ATOM     12  C   UNL     1     -35.763  20.500   1.885  0.00  0.00    +0.164 C 
ATOM     13  C   UNL     1     -34.732  22.637   1.428  0.00  0.00    -0.001 C 
ATOM     14  C   UNL     1     -33.937  22.043   0.448  0.00  0.00    +0.003 C 
ATOM     15  C   UNL     1     -34.968  19.907   0.905  0.00  0.00    +0.172 C 
ATOM     16  C   UNL     1     -34.055  20.678   0.187  0.00  0.00    +0.040 C 
BRANCH  12  17
ATOM     17  O   UNL     1     -36.656  19.743   2.585  0.00  0.00    -0.503 OA
ATOM     18  H   UNL     1     -37.569  19.786   2.381  0.00  0.00    +0.292 HD
ENDBRANCH  12  17
BRANCH  15  19
ATOM     19  O   UNL     1     -35.075  18.575   0.639  0.00  0.00    -0.468 OA
ATOM     20  C   UNL     1     -33.876  17.884   0.294  0.00  0.00    +0.253 C 
ENDBRANCH  15  19
BRANCH  14  21
ATOM     21  C   UNL     1     -32.984  22.848  -0.300  0.00  0.00    +0.007 C 
ATOM     22  C   UNL     1     -32.653  24.128  -0.020  0.00  0.00    +0.082 C 
BRANCH  22  24
ATOM     23  O   UNL     1     -31.839  25.871  -1.471  0.00  0.00    -0.245 OA
ATOM     24  C   UNL     1     -31.661  24.835  -0.853  0.00  0.00    +0.338 C 
BRANCH  24  25
ATOM     25  O   UNL     1     -30.498  24.142  -0.825  0.00  0.00    -0.477 OA
ATOM     26  H   UNL     1     -30.250  23.616  -1.559  0.00  0.00    +0.295 HD
ENDBRANCH  24  25
ENDBRANCH  22  24
ENDBRANCH  14  21
ENDBRANCH   2  11
BRANCH   9  27
ATOM     27  O   UNL     1     -34.939  28.506   3.391  0.00  0.00    -0.471 OA
ATOM     28  C   UNL     1     -33.718  29.120   2.980  0.00  0.00    +0.252 C 
ENDBRANCH   9  27
BRANCH   3  29
ATOM     29  O   UNL     1     -38.092  24.308   3.637  0.00  0.00    -0.198 OA
BRANCH  29  30
ATOM     30  S   UNL     1     -39.456  24.479   2.759  0.00  0.00    +0.239 S 
ATOM     31  O   UNL     1     -38.944  25.202   1.389  0.00  0.00    -0.116 OA
ATOM     32  O   UNL     1     -39.915  23.148   2.406  0.00  0.00    -0.022 OA
ATOM     33  O   UNL     1     -40.348  25.399   3.442  0.00  0.00    -0.116 OA
ENDBRANCH  29  30
ENDBRANCH   3  29
TORSDOF 9
ENDMDL
MODEL 2
REMARK VINA RESULT:      -6.3      2.296      4.656
REMARK  Name = 5321987
REMARK  9 active torsions:
REMARK  status: ('A' for Active; 'I' for Inactive)
REMARK    1  A    between atoms: C_2  and  C_11
REMARK    2  A    between atoms: C_3  and  O_29
REMARK    3  A    between atoms: C_9  and  O_27
REMARK    4  A    between atoms: C_12  and  O_17
REMARK    5  A    between atoms: C_14  and  C_21
REMARK    6  A    between atoms: C_15  and  O_19
REMARK    7  A    between atoms: C_22  and  C_24
REMARK    8  A    between atoms: C_24  and  O_25
REMARK    9  A    between atoms: O_29  and  S_30
REMARK                            x       y       z     vdW  Elec       q    Type
REMARK                         _______ _______ _______ _____ _____    ______ ____
ROOT
ATOM      1  O   UNL     1     -35.524  20.455   3.456  0.00  0.00    -0.475 OA
ATOM      2  C   UNL     1     -35.707  21.410   1.182  0.00  0.00    +0.103 C 
ATOM      3  C   UNL     1     -35.921  22.821   1.760  0.00  0.00    +0.180 C 
ATOM      4  C   UNL     1     -36.204  20.373   2.200  0.00  0.00    +0.213 C 
ATOM      5  C   UNL     1     -35.651  22.882   3.240  0.00  0.00    +0.044 C 
ATOM      6  C   UNL     1     -35.474  21.714   3.993  0.00  0.00    +0.137 C 
ATOM      7  C   UNL     1     -35.563  24.125   3.885  0.00  0.00    +0.038 C 
ATOM      8  C   UNL     1     -35.184  21.791   5.359  0.00  0.00    +0.040 C 
ATOM      9  C   UNL     1     -35.288  24.198   5.250  0.00  0.00    +0.139 C 
ATOM     10  C   UNL     1     -35.096  23.032   5.986  0.00  0.00    +0.040 C 
ENDROOT
BRANCH   2  11
ATOM     11  C   UNL     1     -34.294  21.082   0.709  0.00  0.00    +0.021 C 
ATOM     12  C   UNL     1     -33.526  22.040   0.049  0.00  0.00    +0.164 C 
ATOM     13  C   UNL     1     -33.777  19.810   0.945  0.00  0.00    -0.001 C 
ATOM     14  C   UNL     1     -32.487  19.495   0.520  0.00  0.00    +0.003 C 
ATOM     15  C   UNL     1     -32.236  21.724  -0.376  0.00  0.00    +0.172 C 
ATOM     16  C   UNL     1     -31.717  20.451  -0.141  0.00  0.00    +0.040 C 
BRANCH  12  17
ATOM     17  O   UNL     1     -34.031  23.285  -0.183  0.00  0.00    -0.503 OA
ATOM     18  H   UNL     1     -34.326  23.519  -1.041  0.00  0.00    +0.292 HD
ENDBRANCH  12  17
BRANCH  15  19
ATOM     19  O   UNL     1     -31.473  22.650  -1.021  0.00  0.00    -0.468 OA
ATOM     20  C   UNL     1     -30.187  22.229  -1.475  0.00  0.00    +0.253 C 
ENDBRANCH  15  19
BRANCH  14  21
ATOM     21  C   UNL     1     -31.946  18.167   0.765  0.00  0.00    +0.007 C 
ATOM     22  C   UNL     1     -31.676  17.246  -0.187  0.00  0.00    +0.082 C 
BRANCH  22  24
ATOM     23  O   UNL     1     -29.947  15.683   0.426  0.00  0.00    -0.245 OA
ATOM     24  C   UNL     1     -31.117  15.933   0.192  0.00  0.00    +0.338 C 
BRANCH  24  25
ATOM     25  O   UNL     1     -32.124  15.030   0.241  0.00  0.00    -0.477 OA
ATOM     26  H   UNL     1     -32.484  14.775   1.067  0.00  0.00    +0.295 HD
ENDBRANCH  24  25
ENDBRANCH  22  24
ENDBRANCH  14  21
ENDBRANCH   2  11
BRANCH   9  27
ATOM     27  O   UNL     1     -35.213  25.411   5.865  0.00  0.00    -0.471 OA
ATOM     28  C   UNL     1     -34.003  26.147   5.701  0.00  0.00    +0.252 C 
ENDBRANCH   9  27
BRANCH   3  29
ATOM     29  O   UNL     1     -37.289  23.198   1.572  0.00  0.00    -0.198 OA
BRANCH  29  30
ATOM     30  S   UNL     1     -37.644  24.540   0.715  0.00  0.00    +0.239 S 
ATOM     31  O   UNL     1     -38.158  25.595   1.848  0.00  0.00    -0.116 OA
ATOM     32  O   UNL     1     -36.399  25.051   0.174  0.00  0.00    -0.022 OA
ATOM     33  O   UNL     1     -38.760  24.256  -0.169  0.00  0.00    -0.116 OA
ENDBRANCH  29  30
ENDBRANCH   3  29
TORSDOF 9
ENDMDL
MODEL 3
REMARK VINA RESULT:      -6.0      2.415      6.370
REMARK  Name = 5321987
REMARK  9 active torsions:
REMARK  status: ('A' for Active; 'I' for Inactive)
REMARK    1  A    between atoms: C_2  and  C_11
REMARK    2  A    between atoms: C_3  and  O_29
REMARK    3  A    between atoms: C_9  and  O_27
REMARK    4  A    between atoms: C_12  and  O_17
REMARK    5  A    between atoms: C_14  and  C_21
REMARK    6  A    between atoms: C_15  and  O_19
REMARK    7  A    between atoms: C_22  and  C_24
REMARK    8  A    between atoms: C_24  and  O_25
REMARK    9  A    between atoms: O_29  and  S_30
REMARK                            x       y       z     vdW  Elec       q    Type
REMARK                         _______ _______ _______ _____ _____    ______ ____
ROOT
ATOM      1  O   UNL     1     -33.279  22.559   0.006  0.00  0.00    -0.475 OA
ATOM      2  C   UNL     1     -35.619  22.740   0.786  0.00  0.00    +0.103 C 
ATOM      3  C   UNL     1     -35.780  21.208   0.745  0.00  0.00    +0.180 C 
ATOM      4  C   UNL     1     -34.555  23.155  -0.241  0.00  0.00    +0.213 C 
ATOM      5  C   UNL     1     -34.469  20.498   0.542  0.00  0.00    +0.044 C 
ATOM      6  C   UNL     1     -33.311  21.202   0.185  0.00  0.00    +0.137 C 
ATOM      7  C   UNL     1     -34.391  19.108   0.718  0.00  0.00    +0.038 C 
ATOM      8  C   UNL     1     -32.093  20.531   0.039  0.00  0.00    +0.040 C 
ATOM      9  C   UNL     1     -33.177  18.439   0.557  0.00  0.00    +0.139 C 
ATOM     10  C   UNL     1     -32.029  19.151   0.221  0.00  0.00    +0.040 C 
ENDROOT
BRANCH   2  11
ATOM     11  C   UNL     1     -35.331  23.352   2.152  0.00  0.00    +0.021 C 
ATOM     12  C   UNL     1     -35.918  22.827   3.304  0.00  0.00    +0.164 C 
ATOM     13  C   UNL     1     -34.473  24.446   2.240  0.00  0.00    -0.001 C 
ATOM     14  C   UNL     1     -34.200  25.017   3.482  0.00  0.00    +0.003 C 
ATOM     15  C   UNL     1     -35.644  23.399   4.546  0.00  0.00    +0.172 C 
ATOM     16  C   UNL     1     -34.786  24.495   4.635  0.00  0.00    +0.040 C 
BRANCH  12  17
ATOM     17  O   UNL     1     -36.758  21.757   3.219  0.00  0.00    -0.503 OA
ATOM     18  H   UNL     1     -36.508  20.934   3.591  0.00  0.00    +0.292 HD
ENDBRANCH  12  17
BRANCH  15  19
ATOM     19  O   UNL     1     -36.209  22.897   5.679  0.00  0.00    -0.468 OA
ATOM     20  C   UNL     1     -35.432  21.967   6.433  0.00  0.00    +0.253 C 
ENDBRANCH  15  19
BRANCH  14  21
ATOM     21  C   UNL     1     -33.304  26.160   3.575  0.00  0.00    +0.007 C 
ATOM     22  C   UNL     1     -33.247  27.024   4.612  0.00  0.00    +0.082 C 
BRANCH  22  24
ATOM     23  O   UNL     1     -31.067  28.053   4.602  0.00  0.00    -0.245 OA
ATOM     24  C   UNL     1     -32.283  28.143   4.591  0.00  0.00    +0.338 C 
BRANCH  24  25
ATOM     25  O   UNL     1     -32.971  29.308   4.555  0.00  0.00    -0.477 OA
ATOM     26  H   UNL     1     -33.537  29.539   5.264  0.00  0.00    +0.295 HD
ENDBRANCH  24  25
ENDBRANCH  22  24
ENDBRANCH  14  21
ENDBRANCH   2  11
BRANCH   9  27
ATOM     27  O   UNL     1     -33.117  17.090   0.724  0.00  0.00    -0.471 OA
ATOM     28  C   UNL     1     -33.979  16.296  -0.090  0.00  0.00    +0.252 C 
ENDBRANCH   9  27
BRANCH   3  29
ATOM     29  O   UNL     1     -36.619  20.858  -0.359  0.00  0.00    -0.198 OA
BRANCH  29  30
ATOM     30  S   UNL     1     -38.188  20.495  -0.097  0.00  0.00    +0.239 S 
ATOM     31  O   UNL     1     -38.974  21.329  -1.258  0.00  0.00    -0.116 OA
ATOM     32  O   UNL     1     -38.360  19.083  -0.380  0.00  0.00    -0.022 OA
ATOM     33  O   UNL     1     -38.590  21.034   1.189  0.00  0.00    -0.116 OA
ENDBRANCH  29  30
ENDBRANCH   3  29
TORSDOF 9
ENDMDL
MODEL 4
REMARK VINA RESULT:      -5.9      2.340      5.955
REMARK  Name = 5321987
REMARK  9 active torsions:
REMARK  status: ('A' for Active; 'I' for Inactive)
REMARK    1  A    between atoms: C_2  and  C_11
REMARK    2  A    between atoms: C_3  and  O_29
REMARK    3  A    between atoms: C_9  and  O_27
REMARK    4  A    between atoms: C_12  and  O_17
REMARK    5  A    between atoms: C_14  and  C_21
REMARK    6  A    between atoms: C_15  and  O_19
REMARK    7  A    between atoms: C_22  and  C_24
REMARK    8  A    between atoms: C_24  and  O_25
REMARK    9  A    between atoms: O_29  and  S_30
REMARK                            x       y       z     vdW  Elec       q    Type
REMARK                         _______ _______ _______ _____ _____    ______ ____
ROOT
ATOM      1  O   UNL     1     -35.303  25.133   0.317  0.00  0.00    -0.475 OA
ATOM      2  C   UNL     1     -37.184  25.016   1.919  0.00  0.00    +0.103 C 
ATOM      3  C   UNL     1     -37.681  23.704   1.284  0.00  0.00    +0.180 C 
ATOM      4  C   UNL     1     -36.430  25.830   0.857  0.00  0.00    +0.213 C 
ATOM      5  C   UNL     1     -36.688  23.124   0.313  0.00  0.00    +0.044 C 
ATOM      6  C   UNL     1     -35.575  23.861  -0.112  0.00  0.00    +0.137 C 
ATOM      7  C   UNL     1     -36.865  21.820  -0.175  0.00  0.00    +0.038 C 
ATOM      8  C   UNL     1     -34.641  23.292  -0.983  0.00  0.00    +0.040 C 
ATOM      9  C   UNL     1     -35.939  21.260  -1.056  0.00  0.00    +0.139 C 
ATOM     10  C   UNL     1     -34.826  21.995  -1.457  0.00  0.00    +0.040 C 
ENDROOT
BRANCH   2  11
ATOM     11  C   UNL     1     -36.358  24.878   3.193  0.00  0.00    +0.021 C 
ATOM     12  C   UNL     1     -36.547  23.792   4.048  0.00  0.00    +0.164 C 
ATOM     13  C   UNL     1     -35.409  25.852   3.497  0.00  0.00    -0.001 C 
ATOM     14  C   UNL     1     -34.646  25.740   4.658  0.00  0.00    +0.003 C 
ATOM     15  C   UNL     1     -35.783  23.681   5.209  0.00  0.00    +0.172 C 
ATOM     16  C   UNL     1     -34.833  24.656   5.515  0.00  0.00    +0.040 C 
BRANCH  12  17
ATOM     17  O   UNL     1     -37.475  22.838   3.753  0.00  0.00    -0.503 OA
ATOM     18  H   UNL     1     -37.280  21.934   3.898  0.00  0.00    +0.292 HD
ENDBRANCH  12  17
BRANCH  15  19
ATOM     19  O   UNL     1     -35.954  22.626   6.053  0.00  0.00    -0.468 OA
ATOM     20  C   UNL     1     -35.062  21.523   5.902  0.00  0.00    +0.253 C 
ENDBRANCH  15  19
BRANCH  14  21
ATOM     21  C   UNL     1     -33.655  26.757   4.977  0.00  0.00    +0.007 C 
ATOM     22  C   UNL     1     -33.076  26.931   6.186  0.00  0.00    +0.082 C 
BRANCH  22  24
ATOM     23  O   UNL     1     -32.233  29.189   6.175  0.00  0.00    -0.245 OA
ATOM     24  C   UNL     1     -32.073  27.997   6.379  0.00  0.00    +0.338 C 
BRANCH  24  25
ATOM     25  O   UNL     1     -30.924  27.437   6.825  0.00  0.00    -0.477 OA
ATOM     26  H   UNL     1     -30.946  26.606   7.256  0.00  0.00    +0.295 HD
ENDBRANCH  24  25
ENDBRANCH  22  24
ENDBRANCH  14  21
ENDBRANCH   2  11
BRANCH   9  27
ATOM     27  O   UNL     1     -36.127  19.997  -1.527  0.00  0.00    -0.471 OA
ATOM     28  C   UNL     1     -36.039  18.932  -0.582  0.00  0.00    +0.252 C 
ENDBRANCH   9  27
BRANCH   3  29
ATOM     29  O   UNL     1     -38.878  23.968   0.545  0.00  0.00    -0.198 OA
BRANCH  29  30
ATOM     30  S   UNL     1     -40.329  23.660   1.225  0.00  0.00    +0.239 S 
ATOM     31  O   UNL     1     -39.997  22.510   2.335  0.00  0.00    -0.116 OA
ATOM     32  O   UNL     1     -40.735  24.855   1.941  0.00  0.00    -0.022 OA
ATOM     33  O   UNL     1     -41.206  23.076   0.226  0.00  0.00    -0.116 OA
ENDBRANCH  29  30
ENDBRANCH   3  29
TORSDOF 9
ENDMDL
MODEL 5
REMARK VINA RESULT:      -5.9      3.024      6.594
REMARK  Name = 5321987
REMARK  9 active torsions:
REMARK  status: ('A' for Active; 'I' for Inactive)
REMARK    1  A    between atoms: C_2  and  C_11
REMARK    2  A    between atoms: C_3  and  O_29
REMARK    3  A    between atoms: C_9  and  O_27
REMARK    4  A    between atoms: C_12  and  O_17
REMARK    5  A    between atoms: C_14  and  C_21
REMARK    6  A    between atoms: C_15  and  O_19
REMARK    7  A    between atoms: C_22  and  C_24
REMARK    8  A    between atoms: C_24  and  O_25
REMARK    9  A    between atoms: O_29  and  S_30
REMARK                            x       y       z     vdW  Elec       q    Type
REMARK                         _______ _______ _______ _____ _____    ______ ____
ROOT
ATOM      1  O   UNL     1     -35.566  21.944   2.380  0.00  0.00    -0.475 OA
ATOM      2  C   UNL     1     -36.302  23.857   3.764  0.00  0.00    +0.103 C 
ATOM      3  C   UNL     1     -35.183  24.743   3.185  0.00  0.00    +0.180 C 
ATOM      4  C   UNL     1     -35.854  22.389   3.709  0.00  0.00    +0.213 C 
ATOM      5  C   UNL     1     -34.498  24.105   2.007  0.00  0.00    +0.044 C 
ATOM      6  C   UNL     1     -34.721  22.763   1.678  0.00  0.00    +0.137 C 
ATOM      7  C   UNL     1     -33.625  24.863   1.211  0.00  0.00    +0.038 C 
ATOM      8  C   UNL     1     -34.106  22.197   0.557  0.00  0.00    +0.040 C 
ATOM      9  C   UNL     1     -33.001  24.293   0.101  0.00  0.00    +0.139 C 
ATOM     10  C   UNL     1     -33.244  22.962  -0.227  0.00  0.00    +0.040 C 
ENDROOT
BRANCH   2  11
ATOM     11  C   UNL     1     -37.687  24.032   3.149  0.00  0.00    +0.021 C 
ATOM     12  C   UNL     1     -38.372  25.240   3.273  0.00  0.00    +0.164 C 
ATOM     13  C   UNL     1     -38.263  22.967   2.459  0.00  0.00    -0.001 C 
ATOM     14  C   UNL     1     -39.529  23.110   1.891  0.00  0.00    +0.003 C 
ATOM     15  C   UNL     1     -39.638  25.382   2.704  0.00  0.00    +0.172 C 
ATOM     16  C   UNL     1     -40.216  24.318   2.014  0.00  0.00    +0.040 C 
BRANCH  12  17
ATOM     17  O   UNL     1     -37.810  26.282   3.948  0.00  0.00    -0.503 OA
ATOM     18  H   UNL     1     -36.964  26.186   4.338  0.00  0.00    +0.292 HD
ENDBRANCH  12  17
BRANCH  15  19
ATOM     19  O   UNL     1     -40.318  26.557   2.816  0.00  0.00    -0.468 OA
ATOM     20  C   UNL     1     -41.547  26.528   3.540  0.00  0.00    +0.253 C 
ENDBRANCH  15  19
BRANCH  14  21
ATOM     21  C   UNL     1     -40.132  21.999   1.171  0.00  0.00    +0.007 C 
ATOM     22  C   UNL     1     -40.468  22.009  -0.138  0.00  0.00    +0.082 C 
BRANCH  22  24
ATOM     23  O   UNL     1     -40.663  20.226  -1.748  0.00  0.00    -0.245 OA
ATOM     24  C   UNL     1     -41.067  20.809  -0.756  0.00  0.00    +0.338 C 
BRANCH  24  25
ATOM     25  O   UNL     1     -42.156  20.447  -0.038  0.00  0.00    -0.477 OA
ATOM     26  H   UNL     1     -42.580  21.073   0.515  0.00  0.00    +0.295 HD
ENDBRANCH  24  25
ENDBRANCH  22  24
ENDBRANCH  14  21
ENDBRANCH   2  11
BRANCH   9  27
ATOM     27  O   UNL     1     -32.150  25.037  -0.658  0.00  0.00    -0.471 OA
ATOM     28  C   UNL     1     -32.404  26.438  -0.733  0.00  0.00    +0.252 C 
ENDBRANCH   9  27
BRANCH   3  29
ATOM     29  O   UNL     1     -34.184  24.945   4.188  0.00  0.00    -0.198 OA
BRANCH  29  30
ATOM     30  S   UNL     1     -34.211  26.303   5.092  0.00  0.00    +0.239 S 
ATOM     31  O   UNL     1     -34.331  27.498   3.987  0.00  0.00    -0.116 OA
ATOM     32  O   UNL     1     -35.444  26.290   5.857  0.00  0.00    -0.022 OA
ATOM     33  O   UNL     1     -32.935  26.448   5.769  0.00  0.00    -0.116 OA
ENDBRANCH  29  30
ENDBRANCH   3  29
TORSDOF 9
ENDMDL
MODEL 6
REMARK VINA RESULT:      -5.8      2.212      6.138
REMARK  Name = 5321987
REMARK  9 active torsions:
REMARK  status: ('A' for Active; 'I' for Inactive)
REMARK    1  A    between atoms: C_2  and  C_11
REMARK    2  A    between atoms: C_3  and  O_29
REMARK    3  A    between atoms: C_9  and  O_27
REMARK    4  A    between atoms: C_12  and  O_17
REMARK    5  A    between atoms: C_14  and  C_21
REMARK    6  A    between atoms: C_15  and  O_19
REMARK    7  A    between atoms: C_22  and  C_24
REMARK    8  A    between atoms: C_24  and  O_25
REMARK    9  A    between atoms: O_29  and  S_30
REMARK                            x       y       z     vdW  Elec       q    Type
REMARK                         _______ _______ _______ _____ _____    ______ ____
ROOT
ATOM      1  O   UNL     1     -33.977  23.884   0.356  0.00  0.00    -0.475 OA
ATOM      2  C   UNL     1     -36.194  23.830   1.451  0.00  0.00    +0.103 C 
ATOM      3  C   UNL     1     -36.381  22.351   1.065  0.00  0.00    +0.180 C 
ATOM      4  C   UNL     1     -35.267  24.499   0.427  0.00  0.00    +0.213 C 
ATOM      5  C   UNL     1     -35.118  21.734   0.529  0.00  0.00    +0.044 C 
ATOM      6  C   UNL     1     -34.006  22.522   0.206  0.00  0.00    +0.137 C 
ATOM      7  C   UNL     1     -35.037  20.344   0.353  0.00  0.00    +0.038 C 
ATOM      8  C   UNL     1     -32.827  21.928  -0.253  0.00  0.00    +0.040 C 
ATOM      9  C   UNL     1     -33.865  19.754  -0.119  0.00  0.00    +0.139 C 
ATOM     10  C   UNL     1     -32.759  20.546  -0.419  0.00  0.00    +0.040 C 
ENDROOT
BRANCH   2  11
ATOM     11  C   UNL     1     -35.724  24.100   2.877  0.00  0.00    +0.021 C 
ATOM     12  C   UNL     1     -36.106  23.261   3.923  0.00  0.00    +0.164 C 
ATOM     13  C   UNL     1     -34.904  25.200   3.125  0.00  0.00    -0.001 C 
ATOM     14  C   UNL     1     -34.465  25.461   4.422  0.00  0.00    +0.003 C 
ATOM     15  C   UNL     1     -35.667  23.523   5.220  0.00  0.00    +0.172 C 
ATOM     16  C   UNL     1     -34.847  24.623   5.470  0.00  0.00    +0.040 C 
BRANCH  12  17
ATOM     17  O   UNL     1     -36.908  22.185   3.681  0.00  0.00    -0.503 OA
ATOM     18  H   UNL     1     -36.645  21.534   3.061  0.00  0.00    +0.292 HD
ENDBRANCH  12  17
BRANCH  15  19
ATOM     19  O   UNL     1     -36.031  22.711   6.251  0.00  0.00    -0.468 OA
ATOM     20  C   UNL     1     -35.297  21.499   6.413  0.00  0.00    +0.253 C 
ENDBRANCH  15  19
BRANCH  14  21
ATOM     21  C   UNL     1     -33.610  26.609   4.683  0.00  0.00    +0.007 C 
ATOM     22  C   UNL     1     -33.048  26.908   5.875  0.00  0.00    +0.082 C 
BRANCH  22  24
ATOM     23  O   UNL     1     -32.436  29.223   5.599  0.00  0.00    -0.245 OA
ATOM     24  C   UNL     1     -32.188  28.101   6.008  0.00  0.00    +0.338 C 
BRANCH  24  25
ATOM     25  O   UNL     1     -31.058  27.751   6.667  0.00  0.00    -0.477 OA
ATOM     26  H   UNL     1     -30.263  27.616   6.192  0.00  0.00    +0.295 HD
ENDBRANCH  24  25
ENDBRANCH  22  24
ENDBRANCH  14  21
ENDBRANCH   2  11
BRANCH   9  27
ATOM     27  O   UNL     1     -33.803  18.406  -0.291  0.00  0.00    -0.471 OA
ATOM     28  C   UNL     1     -33.214  17.643   0.761  0.00  0.00    +0.252 C 
ENDBRANCH   9  27
BRANCH   3  29
ATOM     29  O   UNL     1     -37.360  22.262   0.026  0.00  0.00    -0.198 OA
BRANCH  29  30
ATOM     30  S   UNL     1     -38.836  21.651   0.359  0.00  0.00    +0.239 S 
ATOM     31  O   UNL     1     -38.748  20.115  -0.183  0.00  0.00    -0.116 OA
ATOM     32  O   UNL     1     -38.968  21.598   1.803  0.00  0.00    -0.022 OA
ATOM     33  O   UNL     1     -39.829  22.349  -0.437  0.00  0.00    -0.116 OA
ENDBRANCH  29  30
ENDBRANCH   3  29
TORSDOF 9
ENDMDL
MODEL 7
REMARK VINA RESULT:      -5.8      2.240      3.248
REMARK  Name = 5321987
REMARK  9 active torsions:
REMARK  status: ('A' for Active; 'I' for Inactive)
REMARK    1  A    between atoms: C_2  and  C_11
REMARK    2  A    between atoms: C_3  and  O_29
REMARK    3  A    between atoms: C_9  and  O_27
REMARK    4  A    between atoms: C_12  and  O_17
REMARK    5  A    between atoms: C_14  and  C_21
REMARK    6  A    between atoms: C_15  and  O_19
REMARK    7  A    between atoms: C_22  and  C_24
REMARK    8  A    between atoms: C_24  and  O_25
REMARK    9  A    between atoms: O_29  and  S_30
REMARK                            x       y       z     vdW  Elec       q    Type
REMARK                         _______ _______ _______ _____ _____    ______ ____
ROOT
ATOM      1  O   UNL     1     -34.825  22.971   4.591  0.00  0.00    -0.475 OA
ATOM      2  C   UNL     1     -36.797  22.598   3.146  0.00  0.00    +0.103 C 
ATOM      3  C   UNL     1     -37.028  24.116   3.021  0.00  0.00    +0.180 C 
ATOM      4  C   UNL     1     -36.089  22.310   4.478  0.00  0.00    +0.213 C 
ATOM      5  C   UNL     1     -35.877  24.918   3.564  0.00  0.00    +0.044 C 
ATOM      6  C   UNL     1     -34.858  24.311   4.310  0.00  0.00    +0.137 C 
ATOM      7  C   UNL     1     -35.807  26.298   3.318  0.00  0.00    +0.038 C 
ATOM      8  C   UNL     1     -33.775  25.065   4.773  0.00  0.00    +0.040 C 
ATOM      9  C   UNL     1     -34.733  27.051   3.793  0.00  0.00    +0.139 C 
ATOM     10  C   UNL     1     -33.717  26.433   4.518  0.00  0.00    +0.040 C 
ENDROOT
BRANCH   2  11
ATOM     11  C   UNL     1     -36.074  21.928   1.983  0.00  0.00    +0.021 C 
ATOM     12  C   UNL     1     -36.286  22.355   0.673  0.00  0.00    +0.164 C 
ATOM     13  C   UNL     1     -35.194  20.879   2.244  0.00  0.00    -0.001 C 
ATOM     14  C   UNL     1     -34.524  20.255   1.192  0.00  0.00    +0.003 C 
ATOM     15  C   UNL     1     -35.616  21.731  -0.379  0.00  0.00    +0.172 C 
ATOM     16  C   UNL     1     -34.735  20.681  -0.119  0.00  0.00    +0.040 C 
BRANCH  12  17
ATOM     17  O   UNL     1     -37.146  23.381   0.416  0.00  0.00    -0.503 OA
ATOM     18  H   UNL     1     -36.887  24.079  -0.153  0.00  0.00    +0.292 HD
ENDBRANCH  12  17
BRANCH  15  19
ATOM     19  O   UNL     1     -35.812  22.139  -1.664  0.00  0.00    -0.468 OA
ATOM     20  C   UNL     1     -35.797  21.131  -2.673  0.00  0.00    +0.253 C 
ENDBRANCH  15  19
BRANCH  14  21
ATOM     21  C   UNL     1     -33.606  19.160   1.462  0.00  0.00    +0.007 C 
ATOM     22  C   UNL     1     -32.571  18.796   0.673  0.00  0.00    +0.082 C 
BRANCH  22  24
ATOM     23  O   UNL     1     -30.670  17.737   1.708  0.00  0.00    -0.245 OA
ATOM     24  C   UNL     1     -31.703  17.668   1.065  0.00  0.00    +0.338 C 
BRANCH  24  25
ATOM     25  O   UNL     1     -32.242  16.519   0.591  0.00  0.00    -0.477 OA
ATOM     26  H   UNL     1     -32.575  15.879   1.187  0.00  0.00    +0.295 HD
ENDBRANCH  24  25
ENDBRANCH  22  24
ENDBRANCH  14  21
ENDBRANCH   2  11
BRANCH   9  27
ATOM     27  O   UNL     1     -34.682  28.389   3.553  0.00  0.00    -0.471 OA
ATOM     28  C   UNL     1     -33.600  28.865   2.755  0.00  0.00    +0.252 C 
ENDBRANCH   9  27
BRANCH   3  29
ATOM     29  O   UNL     1     -38.182  24.475   3.786  0.00  0.00    -0.198 OA
BRANCH  29  30
ATOM     30  S   UNL     1     -39.528  24.991   3.020  0.00  0.00    +0.239 S 
ATOM     31  O   UNL     1     -39.127  26.485   2.502  0.00  0.00    -0.116 OA
ATOM     32  O   UNL     1     -39.707  24.155   1.848  0.00  0.00    -0.022 OA
ATOM     33  O   UNL     1     -40.601  25.128   3.988  0.00  0.00    -0.116 OA
ENDBRANCH  29  30
ENDBRANCH   3  29
TORSDOF 9
ENDMDL
MODEL 8
REMARK VINA RESULT:      -5.8      3.796      7.554
REMARK  Name = 5321987
REMARK  9 active torsions:
REMARK  status: ('A' for Active; 'I' for Inactive)
REMARK    1  A    between atoms: C_2  and  C_11
REMARK    2  A    between atoms: C_3  and  O_29
REMARK    3  A    between atoms: C_9  and  O_27
REMARK    4  A    between atoms: C_12  and  O_17
REMARK    5  A    between atoms: C_14  and  C_21
REMARK    6  A    between atoms: C_15  and  O_19
REMARK    7  A    between atoms: C_22  and  C_24
REMARK    8  A    between atoms: C_24  and  O_25
REMARK    9  A    between atoms: O_29  and  S_30
REMARK                            x       y       z     vdW  Elec       q    Type
REMARK                         _______ _______ _______ _____ _____    ______ ____
ROOT
ATOM      1  O   UNL     1     -34.752  20.902  -1.248  0.00  0.00    -0.475 OA
ATOM      2  C   UNL     1     -36.726  19.547  -0.631  0.00  0.00    +0.103 C 
ATOM      3  C   UNL     1     -35.823  18.446  -0.045  0.00  0.00    +0.180 C 
ATOM      4  C   UNL     1     -35.954  20.293  -1.729  0.00  0.00    +0.213 C 
ATOM      5  C   UNL     1     -34.387  18.883   0.070  0.00  0.00    +0.044 C 
ATOM      6  C   UNL     1     -33.939  20.065  -0.531  0.00  0.00    +0.137 C 
ATOM      7  C   UNL     1     -33.475  18.104   0.799  0.00  0.00    +0.038 C 
ATOM      8  C   UNL     1     -32.611  20.477  -0.380  0.00  0.00    +0.040 C 
ATOM      9  C   UNL     1     -32.147  18.509   0.936  0.00  0.00    +0.139 C 
ATOM     10  C   UNL     1     -31.716  19.696   0.349  0.00  0.00    +0.040 C 
ENDROOT
BRANCH   2  11
ATOM     11  C   UNL     1     -37.338  20.521   0.369  0.00  0.00    +0.021 C 
ATOM     12  C   UNL     1     -38.674  20.905   0.262  0.00  0.00    +0.164 C 
ATOM     13  C   UNL     1     -36.544  21.027   1.397  0.00  0.00    -0.001 C 
ATOM     14  C   UNL     1     -37.088  21.919   2.321  0.00  0.00    +0.003 C 
ATOM     15  C   UNL     1     -39.218  21.797   1.186  0.00  0.00    +0.172 C 
ATOM     16  C   UNL     1     -38.424  22.304   2.215  0.00  0.00    +0.040 C 
BRANCH  12  17
ATOM     17  O   UNL     1     -39.452  20.411  -0.743  0.00  0.00    -0.503 OA
ATOM     18  H   UNL     1     -40.293  20.046  -0.549  0.00  0.00    +0.292 HD
ENDBRANCH  12  17
BRANCH  15  19
ATOM     19  O   UNL     1     -40.522  22.179   1.095  0.00  0.00    -0.468 OA
ATOM     20  C   UNL     1     -40.781  23.478   0.565  0.00  0.00    +0.253 C 
ENDBRANCH  15  19
BRANCH  14  21
ATOM     21  C   UNL     1     -36.261  22.448   3.394  0.00  0.00    +0.007 C 
ATOM     22  C   UNL     1     -35.745  21.723   4.411  0.00  0.00    +0.082 C 
BRANCH  22  24
ATOM     23  O   UNL     1     -34.652  23.568   5.511  0.00  0.00    -0.245 OA
ATOM     24  C   UNL     1     -34.909  22.378   5.437  0.00  0.00    +0.338 C 
BRANCH  24  25
ATOM     25  O   UNL     1     -34.461  21.436   6.300  0.00  0.00    -0.477 OA
ATOM     26  H   UNL     1     -33.753  20.875   6.054  0.00  0.00    +0.295 HD
ENDBRANCH  24  25
ENDBRANCH  22  24
ENDBRANCH  14  21
ENDBRANCH   2  11
BRANCH   9  27
ATOM     27  O   UNL     1     -31.271  17.740   1.640  0.00  0.00    -0.471 OA
ATOM     28  C   UNL     1     -29.963  17.583   1.094  0.00  0.00    +0.252 C 
ENDBRANCH   9  27
BRANCH   3  29
ATOM     29  O   UNL     1     -35.843  17.313  -0.918  0.00  0.00    -0.198 OA
BRANCH  29  30
ATOM     30  S   UNL     1     -36.608  15.949  -0.452  0.00  0.00    +0.239 S 
ATOM     31  O   UNL     1     -36.912  15.179  -1.857  0.00  0.00    -0.116 OA
ATOM     32  O   UNL     1     -35.653  15.147   0.289  0.00  0.00    -0.022 OA
ATOM     33  O   UNL     1     -37.882  16.302   0.148  0.00  0.00    -0.116 OA
ENDBRANCH  29  30
ENDBRANCH   3  29
TORSDOF 9
ENDMDL
MODEL 9
REMARK VINA RESULT:      -5.8      2.715      4.130
REMARK  Name = 5321987
REMARK  9 active torsions:
REMARK  status: ('A' for Active; 'I' for Inactive)
REMARK    1  A    between atoms: C_2  and  C_11
REMARK    2  A    between atoms: C_3  and  O_29
REMARK    3  A    between atoms: C_9  and  O_27
REMARK    4  A    between atoms: C_12  and  O_17
REMARK    5  A    between atoms: C_14  and  C_21
REMARK    6  A    between atoms: C_15  and  O_19
REMARK    7  A    between atoms: C_22  and  C_24
REMARK    8  A    between atoms: C_24  and  O_25
REMARK    9  A    between atoms: O_29  and  S_30
REMARK                            x       y       z     vdW  Elec       q    Type
REMARK                         _______ _______ _______ _____ _____    ______ ____
ROOT
ATOM      1  O   UNL     1     -37.770  24.627   4.482  0.00  0.00    -0.475 OA
ATOM      2  C   UNL     1     -38.095  24.946   2.051  0.00  0.00    +0.103 C 
ATOM      3  C   UNL     1     -36.865  25.871   1.979  0.00  0.00    +0.180 C 
ATOM      4  C   UNL     1     -38.693  25.023   3.463  0.00  0.00    +0.213 C 
ATOM      5  C   UNL     1     -36.057  25.851   3.249  0.00  0.00    +0.044 C 
ATOM      6  C   UNL     1     -36.549  25.244   4.411  0.00  0.00    +0.137 C 
ATOM      7  C   UNL     1     -34.784  26.440   3.278  0.00  0.00    +0.038 C 
ATOM      8  C   UNL     1     -35.768  25.199   5.571  0.00  0.00    +0.040 C 
ATOM      9  C   UNL     1     -34.013  26.408   4.440  0.00  0.00    +0.139 C 
ATOM     10  C   UNL     1     -34.504  25.785   5.585  0.00  0.00    +0.040 C 
ENDROOT
BRANCH   2  11
ATOM     11  C   UNL     1     -37.876  23.499   1.624  0.00  0.00    +0.021 C 
ATOM     12  C   UNL     1     -38.947  22.715   1.195  0.00  0.00    +0.164 C 
ATOM     13  C   UNL     1     -36.590  22.965   1.667  0.00  0.00    -0.001 C 
ATOM     14  C   UNL     1     -36.373  21.643   1.280  0.00  0.00    +0.003 C 
ATOM     15  C   UNL     1     -38.729  21.393   0.809  0.00  0.00    +0.172 C 
ATOM     16  C   UNL     1     -37.442  20.857   0.852  0.00  0.00    +0.040 C 
BRANCH  12  17
ATOM     17  O   UNL     1     -40.206  23.236   1.153  0.00  0.00    -0.503 OA
ATOM     18  H   UNL     1     -40.491  23.711   0.398  0.00  0.00    +0.292 HD
ENDBRANCH  12  17
BRANCH  15  19
ATOM     19  O   UNL     1     -39.765  20.616   0.386  0.00  0.00    -0.468 OA
ATOM     20  C   UNL     1     -39.769  20.232  -0.988  0.00  0.00    +0.253 C 
ENDBRANCH  15  19
BRANCH  14  21
ATOM     21  C   UNL     1     -35.030  21.084   1.325  0.00  0.00    +0.007 C 
ATOM     22  C   UNL     1     -34.715  19.792   1.082  0.00  0.00    +0.082 C 
BRANCH  22  24
ATOM     23  O   UNL     1     -32.890  18.341   1.693  0.00  0.00    -0.245 OA
ATOM     24  C   UNL     1     -33.308  19.350   1.150  0.00  0.00    +0.338 C 
BRANCH  24  25
ATOM     25  O   UNL     1     -32.536  20.255   0.504  0.00  0.00    -0.477 OA
ATOM     26  H   UNL     1     -31.847  19.965  -0.060  0.00  0.00    +0.295 HD
ENDBRANCH  24  25
ENDBRANCH  22  24
ENDBRANCH  14  21
ENDBRANCH   2  11
BRANCH   9  27
ATOM     27  O   UNL     1     -32.783  26.990   4.457  0.00  0.00    -0.471 OA
ATOM     28  C   UNL     1     -32.461  27.795   5.589  0.00  0.00    +0.252 C 
ENDBRANCH   9  27
BRANCH   3  29
ATOM     29  O   UNL     1     -37.306  27.218   1.788  0.00  0.00    -0.198 OA
BRANCH  29  30
ATOM     30  S   UNL     1     -36.921  28.005   0.411  0.00  0.00    +0.239 S 
ATOM     31  O   UNL     1     -38.131  29.085   0.235  0.00  0.00    -0.116 OA
ATOM     32  O   UNL     1     -35.702  28.750   0.664  0.00  0.00    -0.022 OA
ATOM     33  O   UNL     1     -36.988  27.074  -0.701  0.00  0.00    -0.116 OA
ENDBRANCH  29  30
ENDBRANCH   3  29
TORSDOF 9
ENDMDL
