MODEL 1
REMARK VINA RESULT:      -5.4      0.000      0.000
REMARK  Name = 192530
REMARK  6 active torsions:
REMARK  status: ('A' for Active; 'I' for Inactive)
REMARK    1  A    between atoms: C_1  and  C_7
REMARK    2  A    between atoms: C_2  and  C_12
REMARK    3  A    between atoms: C_3  and  C_17
REMARK    4  A    between atoms: C_7  and  S_8
REMARK    5  A    between atoms: C_12  and  S_13
REMARK    6  A    between atoms: C_17  and  S_18
REMARK                            x       y       z     vdW  Elec       q    Type
REMARK                         _______ _______ _______ _____ _____    ______ ____
ROOT
ATOM      1  C   UNL     1     -36.924  22.638   2.795  0.00  0.00    +0.026 C 
ATOM      2  C   UNL     1     -38.012  23.367   1.969  0.00  0.00    +0.026 C 
ATOM      3  C   UNL     1     -36.153  24.908   3.707  0.00  0.00    +0.024 C 
ATOM      4  C   UNL     1     -36.562  23.466   4.042  0.00  0.00    +0.004 C 
ATOM      5  C   UNL     1     -37.607  24.809   1.630  0.00  0.00    +0.002 C 
ATOM      6  C   UNL     1     -37.241  25.603   2.881  0.00  0.00    +0.002 C 
ENDROOT
BRANCH   1   7
ATOM      7  C   UNL     1     -35.668  22.281   1.991  0.00  0.00    +0.158 C 
BRANCH   7   8
ATOM      8  S   UNL     1     -35.356  20.554   2.051  0.00  0.00    +0.023 S 
ATOM      9  O   UNL     1     -35.059  20.438   3.652  0.00  0.00    -0.069 OA
ATOM     10  O   UNL     1     -34.126  20.263   1.331  0.00  0.00    -0.069 OA
ATOM     11  O   UNL     1     -36.587  19.838   1.756  0.00  0.00    -0.069 OA
ENDBRANCH   7   8
ENDBRANCH   1   7
BRANCH   2  12
ATOM     12  C   UNL     1     -38.406  22.609   0.702  0.00  0.00    +0.158 C 
BRANCH  12  13
ATOM     13  S   UNL     1     -39.909  21.728   0.936  0.00  0.00    +0.023 S 
ATOM     14  O   UNL     1     -39.489  20.362   0.149  0.00  0.00    -0.069 OA
ATOM     15  O   UNL     1     -40.971  22.385   0.191  0.00  0.00    -0.069 OA
ATOM     16  O   UNL     1     -40.062  21.418   2.349  0.00  0.00    -0.069 OA
ENDBRANCH  12  13
ENDBRANCH   2  12
BRANCH   3  17
ATOM     17  C   UNL     1     -35.866  25.694   4.987  0.00  0.00    +0.158 C 
BRANCH  17  18
ATOM     18  S   UNL     1     -34.172  26.151   5.079  0.00  0.00    +0.023 S 
ATOM     19  O   UNL     1     -34.265  27.519   4.193  0.00  0.00    -0.069 OA
ATOM     20  O   UNL     1     -33.373  25.180   4.349  0.00  0.00    -0.069 OA
ATOM     21  O   UNL     1     -33.851  26.510   6.452  0.00  0.00    -0.069 OA
ENDBRANCH  17  18
ENDBRANCH   3  17
TORSDOF 6
ENDMDL
MODEL 2
REMARK VINA RESULT:      -5.4      0.516      1.489
REMARK  Name = 192530
REMARK  6 active torsions:
REMARK  status: ('A' for Active; 'I' for Inactive)
REMARK    1  A    between atoms: C_1  and  C_7
REMARK    2  A    between atoms: C_2  and  C_12
REMARK    3  A    between atoms: C_3  and  C_17
REMARK    4  A    between atoms: C_7  and  S_8
REMARK    5  A    between atoms: C_12  and  S_13
REMARK    6  A    between atoms: C_17  and  S_18
REMARK                            x       y       z     vdW  Elec       q    Type
REMARK                         _______ _______ _______ _____ _____    ______ ____
ROOT
ATOM      1  C   UNL     1     -36.960  22.821   2.878  0.00  0.00    +0.026 C 
ATOM      2  C   UNL     1     -38.015  23.578   2.034  0.00  0.00    +0.026 C 
ATOM      3  C   UNL     1     -36.098  25.075   3.748  0.00  0.00    +0.024 C 
ATOM      4  C   UNL     1     -36.567  23.658   4.109  0.00  0.00    +0.004 C 
ATOM      5  C   UNL     1     -37.549  24.995   1.668  0.00  0.00    +0.002 C 
ATOM      6  C   UNL     1     -37.154  25.798   2.904  0.00  0.00    +0.002 C 
ENDROOT
BRANCH   1   7
ATOM      7  C   UNL     1     -35.717  22.397   2.086  0.00  0.00    +0.158 C 
BRANCH   7   8
ATOM      8  S   UNL     1     -35.315  20.717   2.404  0.00  0.00    +0.023 S 
ATOM      9  O   UNL     1     -36.739  20.060   1.952  0.00  0.00    -0.069 OA
ATOM     10  O   UNL     1     -35.154  20.527   3.837  0.00  0.00    -0.069 OA
ATOM     11  O   UNL     1     -34.289  20.287   1.468  0.00  0.00    -0.069 OA
ENDBRANCH   7   8
ENDBRANCH   1   7
BRANCH   2  12
ATOM     12  C   UNL     1     -38.437  22.812   0.781  0.00  0.00    +0.158 C 
BRANCH  12  13
ATOM     13  S   UNL     1     -40.063  22.169   0.953  0.00  0.00    +0.023 S 
ATOM     14  O   UNL     1     -40.787  23.536   1.472  0.00  0.00    -0.069 OA
ATOM     15  O   UNL     1     -40.082  21.196   2.034  0.00  0.00    -0.069 OA
ATOM     16  O   UNL     1     -40.587  21.841  -0.364  0.00  0.00    -0.069 OA
ENDBRANCH  12  13
ENDBRANCH   2  12
BRANCH   3  17
ATOM     17  C   UNL     1     -35.782  25.874   5.012  0.00  0.00    +0.158 C 
BRANCH  17  18
ATOM     18  S   UNL     1     -34.064  26.223   5.124  0.00  0.00    +0.023 S 
ATOM     19  O   UNL     1     -34.061  27.595   4.240  0.00  0.00    -0.069 OA
ATOM     20  O   UNL     1     -33.320  25.205   4.401  0.00  0.00    -0.069 OA
ATOM     21  O   UNL     1     -33.736  26.559   6.501  0.00  0.00    -0.069 OA
ENDBRANCH  17  18
ENDBRANCH   3  17
TORSDOF 6
ENDMDL
MODEL 3
REMARK VINA RESULT:      -5.2      1.489      4.033
REMARK  Name = 192530
REMARK  6 active torsions:
REMARK  status: ('A' for Active; 'I' for Inactive)
REMARK    1  A    between atoms: C_1  and  C_7
REMARK    2  A    between atoms: C_2  and  C_12
REMARK    3  A    between atoms: C_3  and  C_17
REMARK    4  A    between atoms: C_7  and  S_8
REMARK    5  A    between atoms: C_12  and  S_13
REMARK    6  A    between atoms: C_17  and  S_18
REMARK                            x       y       z     vdW  Elec       q    Type
REMARK                         _______ _______ _______ _____ _____    ______ ____
ROOT
ATOM      1  C   UNL     1     -36.322  23.134   2.811  0.00  0.00    +0.026 C 
ATOM      2  C   UNL     1     -35.419  21.988   3.328  0.00  0.00    +0.026 C 
ATOM      3  C   UNL     1     -36.011  24.336   5.055  0.00  0.00    +0.024 C 
ATOM      4  C   UNL     1     -35.966  24.451   3.525  0.00  0.00    +0.004 C 
ATOM      5  C   UNL     1     -35.463  21.866   4.858  0.00  0.00    +0.002 C 
ATOM      6  C   UNL     1     -35.119  23.188   5.540  0.00  0.00    +0.002 C 
ENDROOT
BRANCH   1   7
ATOM      7  C   UNL     1     -37.824  22.841   2.920  0.00  0.00    +0.158 C 
BRANCH   7   8
ATOM      8  S   UNL     1     -38.613  23.034   1.363  0.00  0.00    +0.023 S 
ATOM      9  O   UNL     1     -40.136  22.700   1.844  0.00  0.00    -0.069 OA
ATOM     10  O   UNL     1     -38.170  21.978   0.467  0.00  0.00    -0.069 OA
ATOM     11  O   UNL     1     -38.550  24.432   0.967  0.00  0.00    -0.069 OA
ENDBRANCH   7   8
ENDBRANCH   1   7
BRANCH   2  12
ATOM     12  C   UNL     1     -35.733  20.642   2.674  0.00  0.00    +0.158 C 
BRANCH  12  13
ATOM     13  S   UNL     1     -34.591  20.286   1.386  0.00  0.00    +0.023 S 
ATOM     14  O   UNL     1     -35.656  19.674   0.311  0.00  0.00    -0.069 OA
ATOM     15  O   UNL     1     -33.701  19.220   1.815  0.00  0.00    -0.069 OA
ATOM     16  O   UNL     1     -34.068  21.536   0.856  0.00  0.00    -0.069 OA
ENDBRANCH  12  13
ENDBRANCH   2  12
BRANCH   3  17
ATOM     17  C   UNL     1     -35.590  25.654   5.705  0.00  0.00    +0.158 C 
BRANCH  17  18
ATOM     18  S   UNL     1     -34.121  26.278   4.969  0.00  0.00    +0.023 S 
ATOM     19  O   UNL     1     -33.424  26.857   6.326  0.00  0.00    -0.069 OA
ATOM     20  O   UNL     1     -34.457  27.399   4.106  0.00  0.00    -0.069 OA
ATOM     21  O   UNL     1     -33.325  25.163   4.479  0.00  0.00    -0.069 OA
ENDBRANCH  17  18
ENDBRANCH   3  17
TORSDOF 6
ENDMDL
MODEL 4
REMARK VINA RESULT:      -5.1      3.522      5.764
REMARK  Name = 192530
REMARK  6 active torsions:
REMARK  status: ('A' for Active; 'I' for Inactive)
REMARK    1  A    between atoms: C_1  and  C_7
REMARK    2  A    between atoms: C_2  and  C_12
REMARK    3  A    between atoms: C_3  and  C_17
REMARK    4  A    between atoms: C_7  and  S_8
REMARK    5  A    between atoms: C_12  and  S_13
REMARK    6  A    between atoms: C_17  and  S_18
REMARK                            x       y       z     vdW  Elec       q    Type
REMARK                         _______ _______ _______ _____ _____    ______ ____
ROOT
ATOM      1  C   UNL     1     -34.467  26.672   3.206  0.00  0.00    +0.026 C 
ATOM      2  C   UNL     1     -34.789  25.595   4.269  0.00  0.00    +0.026 C 
ATOM      3  C   UNL     1     -32.875  27.789   4.878  0.00  0.00    +0.024 C 
ATOM      4  C   UNL     1     -33.063  27.255   3.450  0.00  0.00    +0.004 C 
ATOM      5  C   UNL     1     -34.605  26.124   5.700  0.00  0.00    +0.002 C 
ATOM      6  C   UNL     1     -33.210  26.707   5.911  0.00  0.00    +0.002 C 
ENDROOT
BRANCH   1   7
ATOM      7  C   UNL     1     -35.515  27.789   3.114  0.00  0.00    +0.158 C 
BRANCH   7   8
ATOM      8  S   UNL     1     -36.345  27.743   1.567  0.00  0.00    +0.023 S 
ATOM      9  O   UNL     1     -36.586  29.348   1.399  0.00  0.00    -0.069 OA
ATOM     10  O   UNL     1     -37.637  27.097   1.736  0.00  0.00    -0.069 OA
ATOM     11  O   UNL     1     -35.413  27.306   0.540  0.00  0.00    -0.069 OA
ENDBRANCH   7   8
ENDBRANCH   1   7
BRANCH   2  12
ATOM     12  C   UNL     1     -36.181  24.986   4.099  0.00  0.00    +0.158 C 
BRANCH  12  13
ATOM     13  S   UNL     1     -36.103  23.230   4.078  0.00  0.00    +0.023 S 
ATOM     14  O   UNL     1     -37.565  22.952   3.408  0.00  0.00    -0.069 OA
ATOM     15  O   UNL     1     -36.117  22.733   5.444  0.00  0.00    -0.069 OA
ATOM     16  O   UNL     1     -35.076  22.812   3.136  0.00  0.00    -0.069 OA
ENDBRANCH  12  13
ENDBRANCH   2  12
BRANCH   3  17
ATOM     17  C   UNL     1     -31.446  28.296   5.076  0.00  0.00    +0.158 C 
BRANCH  17  18
ATOM     18  S   UNL     1     -31.437  29.850   5.896  0.00  0.00    +0.023 S 
ATOM     19  O   UNL     1     -32.824  30.438   5.268  0.00  0.00    -0.069 OA
ATOM     20  O   UNL     1     -30.328  30.648   5.398  0.00  0.00    -0.069 OA
ATOM     21  O   UNL     1     -31.630  29.636   7.322  0.00  0.00    -0.069 OA
ENDBRANCH  17  18
ENDBRANCH   3  17
TORSDOF 6
ENDMDL
MODEL 5
REMARK VINA RESULT:      -5.0      2.351      6.838
REMARK  Name = 192530
REMARK  6 active torsions:
REMARK  status: ('A' for Active; 'I' for Inactive)
REMARK    1  A    between atoms: C_1  and  C_7
REMARK    2  A    between atoms: C_2  and  C_12
REMARK    3  A    between atoms: C_3  and  C_17
REMARK    4  A    between atoms: C_7  and  S_8
REMARK    5  A    between atoms: C_12  and  S_13
REMARK    6  A    between atoms: C_17  and  S_18
REMARK                            x       y       z     vdW  Elec       q    Type
REMARK                         _______ _______ _______ _____ _____    ______ ____
ROOT
ATOM      1  C   UNL     1     -37.068  24.393   2.788  0.00  0.00    +0.026 C 
ATOM      2  C   UNL     1     -35.587  24.112   3.142  0.00  0.00    +0.026 C 
ATOM      3  C   UNL     1     -37.122  22.201   1.458  0.00  0.00    +0.024 C 
ATOM      4  C   UNL     1     -37.809  23.070   2.522  0.00  0.00    +0.004 C 
ATOM      5  C   UNL     1     -34.895  23.245   2.080  0.00  0.00    +0.002 C 
ATOM      6  C   UNL     1     -35.656  21.947   1.827  0.00  0.00    +0.002 C 
ENDROOT
BRANCH   1   7
ATOM      7  C   UNL     1     -37.254  25.369   1.619  0.00  0.00    +0.158 C 
BRANCH   7   8
ATOM      8  S   UNL     1     -38.847  26.105   1.667  0.00  0.00    +0.023 S 
ATOM      9  O   UNL     1     -38.450  27.535   0.988  0.00  0.00    -0.069 OA
ATOM     10  O   UNL     1     -39.225  26.341   3.052  0.00  0.00    -0.069 OA
ATOM     11  O   UNL     1     -39.730  25.391   0.759  0.00  0.00    -0.069 OA
ENDBRANCH   7   8
ENDBRANCH   1   7
BRANCH   2  12
ATOM     12  C   UNL     1     -34.784  25.387   3.400  0.00  0.00    +0.158 C 
BRANCH  12  13
ATOM     13  S   UNL     1     -34.672  25.725   5.121  0.00  0.00    +0.023 S 
ATOM     14  O   UNL     1     -34.799  24.188   5.656  0.00  0.00    -0.069 OA
ATOM     15  O   UNL     1     -35.853  26.461   5.543  0.00  0.00    -0.069 OA
ATOM     16  O   UNL     1     -33.334  26.210   5.424  0.00  0.00    -0.069 OA
ENDBRANCH  12  13
ENDBRANCH   2  12
BRANCH   3  17
ATOM     17  C   UNL     1     -37.869  20.878   1.284  0.00  0.00    +0.158 C 
BRANCH  17  18
ATOM     18  S   UNL     1     -39.377  21.115   0.413  0.00  0.00    +0.023 S 
ATOM     19  O   UNL     1     -39.386  19.700  -0.400  0.00  0.00    -0.069 OA
ATOM     20  O   UNL     1     -39.212  22.198  -0.543  0.00  0.00    -0.069 OA
ATOM     21  O   UNL     1     -40.479  21.110   1.363  0.00  0.00    -0.069 OA
ENDBRANCH  17  18
ENDBRANCH   3  17
TORSDOF 6
ENDMDL
MODEL 6
REMARK VINA RESULT:      -5.0      4.372      5.643
REMARK  Name = 192530
REMARK  6 active torsions:
REMARK  status: ('A' for Active; 'I' for Inactive)
REMARK    1  A    between atoms: C_1  and  C_7
REMARK    2  A    between atoms: C_2  and  C_12
REMARK    3  A    between atoms: C_3  and  C_17
REMARK    4  A    between atoms: C_7  and  S_8
REMARK    5  A    between atoms: C_12  and  S_13
REMARK    6  A    between atoms: C_17  and  S_18
REMARK                            x       y       z     vdW  Elec       q    Type
REMARK                         _______ _______ _______ _____ _____    ______ ____
ROOT
ATOM      1  C   UNL     1     -39.576  24.582   2.993  0.00  0.00    +0.026 C 
ATOM      2  C   UNL     1     -40.145  23.905   1.723  0.00  0.00    +0.026 C 
ATOM      3  C   UNL     1     -41.528  26.245   2.931  0.00  0.00    +0.024 C 
ATOM      4  C   UNL     1     -40.709  25.264   3.783  0.00  0.00    +0.004 C 
ATOM      5  C   UNL     1     -40.964  24.882   0.866  0.00  0.00    +0.002 C 
ATOM      6  C   UNL     1     -42.071  25.553   1.676  0.00  0.00    +0.002 C 
ENDROOT
BRANCH   1   7
ATOM      7  C   UNL     1     -38.434  25.567   2.715  0.00  0.00    +0.158 C 
BRANCH   7   8
ATOM      8  S   UNL     1     -36.952  25.045   3.499  0.00  0.00    +0.023 S 
ATOM      9  O   UNL     1     -36.112  24.663   2.152  0.00  0.00    -0.069 OA
ATOM     10  O   UNL     1     -37.209  23.823   4.244  0.00  0.00    -0.069 OA
ATOM     11  O   UNL     1     -36.318  26.192   4.129  0.00  0.00    -0.069 OA
ENDBRANCH   7   8
ENDBRANCH   1   7
BRANCH   2  12
ATOM     12  C   UNL     1     -39.069  23.224   0.878  0.00  0.00    +0.158 C 
BRANCH  12  13
ATOM     13  S   UNL     1     -39.114  21.479   1.086  0.00  0.00    +0.023 S 
ATOM     14  O   UNL     1     -37.811  21.339   2.058  0.00  0.00    -0.069 OA
ATOM     15  O   UNL     1     -38.816  20.837  -0.184  0.00  0.00    -0.069 OA
ATOM     16  O   UNL     1     -40.300  21.123   1.850  0.00  0.00    -0.069 OA
ENDBRANCH  12  13
ENDBRANCH   2  12
BRANCH   3  17
ATOM     17  C   UNL     1     -42.672  26.840   3.752  0.00  0.00    +0.158 C 
BRANCH  17  18
ATOM     18  S   UNL     1     -42.682  28.594   3.640  0.00  0.00    +0.023 S 
ATOM     19  O   UNL     1     -44.300  28.806   3.641  0.00  0.00    -0.069 OA
ATOM     20  O   UNL     1     -42.163  28.994   2.342  0.00  0.00    -0.069 OA
ATOM     21  O   UNL     1     -42.141  29.151   4.871  0.00  0.00    -0.069 OA
ENDBRANCH  17  18
ENDBRANCH   3  17
TORSDOF 6
ENDMDL
MODEL 7
REMARK VINA RESULT:      -4.9      2.712      4.544
REMARK  Name = 192530
REMARK  6 active torsions:
REMARK  status: ('A' for Active; 'I' for Inactive)
REMARK    1  A    between atoms: C_1  and  C_7
REMARK    2  A    between atoms: C_2  and  C_12
REMARK    3  A    between atoms: C_3  and  C_17
REMARK    4  A    between atoms: C_7  and  S_8
REMARK    5  A    between atoms: C_12  and  S_13
REMARK    6  A    between atoms: C_17  and  S_18
REMARK                            x       y       z     vdW  Elec       q    Type
REMARK                         _______ _______ _______ _____ _____    ______ ____
ROOT
ATOM      1  C   UNL     1     -35.909  25.145   2.526  0.00  0.00    +0.026 C 
ATOM      2  C   UNL     1     -35.421  23.788   3.090  0.00  0.00    +0.026 C 
ATOM      3  C   UNL     1     -34.004  26.308   3.789  0.00  0.00    +0.024 C 
ATOM      4  C   UNL     1     -34.736  26.140   2.450  0.00  0.00    +0.004 C 
ATOM      5  C   UNL     1     -34.690  23.951   4.431  0.00  0.00    +0.002 C 
ATOM      6  C   UNL     1     -33.541  24.951   4.330  0.00  0.00    +0.002 C 
ENDROOT
BRANCH   1   7
ATOM      7  C   UNL     1     -37.090  25.750   3.296  0.00  0.00    +0.158 C 
BRANCH   7   8
ATOM      8  S   UNL     1     -38.439  26.073   2.219  0.00  0.00    +0.023 S 
ATOM      9  O   UNL     1     -37.834  27.408   1.502  0.00  0.00    -0.069 OA
ATOM     10  O   UNL     1     -39.600  26.458   3.007  0.00  0.00    -0.069 OA
ATOM     11  O   UNL     1     -38.521  25.013   1.228  0.00  0.00    -0.069 OA
ENDBRANCH   7   8
ENDBRANCH   1   7
BRANCH   2  12
ATOM     12  C   UNL     1     -36.542  22.756   3.213  0.00  0.00    +0.158 C 
BRANCH  12  13
ATOM     13  S   UNL     1     -36.104  21.253   2.414  0.00  0.00    +0.023 S 
ATOM     14  O   UNL     1     -35.067  21.879   1.320  0.00  0.00    -0.069 OA
ATOM     15  O   UNL     1     -37.263  20.731   1.708  0.00  0.00    -0.069 OA
ATOM     16  O   UNL     1     -35.351  20.424   3.342  0.00  0.00    -0.069 OA
ENDBRANCH  12  13
ENDBRANCH   2  12
BRANCH   3  17
ATOM     17  C   UNL     1     -32.815  27.258   3.634  0.00  0.00    +0.158 C 
BRANCH  17  18
ATOM     18  S   UNL     1     -32.472  28.089   5.144  0.00  0.00    +0.023 S 
ATOM     19  O   UNL     1     -30.855  27.869   5.153  0.00  0.00    -0.069 OA
ATOM     20  O   UNL     1     -33.048  27.337   6.246  0.00  0.00    -0.069 OA
ATOM     21  O   UNL     1     -32.744  29.509   4.977  0.00  0.00    -0.069 OA
ENDBRANCH  17  18
ENDBRANCH   3  17
TORSDOF 6
ENDMDL
MODEL 8
REMARK VINA RESULT:      -4.9      2.665      5.302
REMARK  Name = 192530
REMARK  6 active torsions:
REMARK  status: ('A' for Active; 'I' for Inactive)
REMARK    1  A    between atoms: C_1  and  C_7
REMARK    2  A    between atoms: C_2  and  C_12
REMARK    3  A    between atoms: C_3  and  C_17
REMARK    4  A    between atoms: C_7  and  S_8
REMARK    5  A    between atoms: C_12  and  S_13
REMARK    6  A    between atoms: C_17  and  S_18
REMARK                            x       y       z     vdW  Elec       q    Type
REMARK                         _______ _______ _______ _____ _____    ______ ____
ROOT
ATOM      1  C   UNL     1     -35.980  22.676   2.438  0.00  0.00    +0.026 C 
ATOM      2  C   UNL     1     -37.226  22.241   1.629  0.00  0.00    +0.026 C 
ATOM      3  C   UNL     1     -34.556  21.075   1.028  0.00  0.00    +0.024 C 
ATOM      4  C   UNL     1     -34.708  22.496   1.589  0.00  0.00    +0.004 C 
ATOM      5  C   UNL     1     -37.080  20.819   1.067  0.00  0.00    +0.002 C 
ATOM      6  C   UNL     1     -35.806  20.665   0.241  0.00  0.00    +0.002 C 
ENDROOT
BRANCH   1   7
ATOM      7  C   UNL     1     -35.838  21.967   3.792  0.00  0.00    +0.158 C 
BRANCH   7   8
ATOM      8  S   UNL     1     -35.572  23.129   5.081  0.00  0.00    +0.023 S 
ATOM      9  O   UNL     1     -36.793  24.148   4.716  0.00  0.00    -0.069 OA
ATOM     10  O   UNL     1     -34.311  23.819   4.852  0.00  0.00    -0.069 OA
ATOM     11  O   UNL     1     -35.862  22.498   6.358  0.00  0.00    -0.069 OA
ENDBRANCH   7   8
ENDBRANCH   1   7
BRANCH   2  12
ATOM     12  C   UNL     1     -38.527  22.374   2.421  0.00  0.00    +0.158 C 
BRANCH  12  13
ATOM     13  S   UNL     1     -39.366  23.861   2.009  0.00  0.00    +0.023 S 
ATOM     14  O   UNL     1     -40.660  23.189   1.276  0.00  0.00    -0.069 OA
ATOM     15  O   UNL     1     -38.595  24.587   1.013  0.00  0.00    -0.069 OA
ATOM     16  O   UNL     1     -39.814  24.509   3.232  0.00  0.00    -0.069 OA
ENDBRANCH  12  13
ENDBRANCH   2  12
BRANCH   3  17
ATOM     17  C   UNL     1     -33.311  20.977   0.146  0.00  0.00    +0.158 C 
BRANCH  17  18
ATOM     18  S   UNL     1     -32.488  19.443   0.384  0.00  0.00    +0.023 S 
ATOM     19  O   UNL     1     -33.014  18.698  -0.969  0.00  0.00    -0.069 OA
ATOM     20  O   UNL     1     -33.061  18.767   1.537  0.00  0.00    -0.069 OA
ATOM     21  O   UNL     1     -31.053  19.651   0.270  0.00  0.00    -0.069 OA
ENDBRANCH  17  18
ENDBRANCH   3  17
TORSDOF 6
ENDMDL
MODEL 9
REMARK VINA RESULT:      -4.9      2.339      3.992
REMARK  Name = 192530
REMARK  6 active torsions:
REMARK  status: ('A' for Active; 'I' for Inactive)
REMARK    1  A    between atoms: C_1  and  C_7
REMARK    2  A    between atoms: C_2  and  C_12
REMARK    3  A    between atoms: C_3  and  C_17
REMARK    4  A    between atoms: C_7  and  S_8
REMARK    5  A    between atoms: C_12  and  S_13
REMARK    6  A    between atoms: C_17  and  S_18
REMARK                            x       y       z     vdW  Elec       q    Type
REMARK                         _______ _______ _______ _____ _____    ______ ____
ROOT
ATOM      1  C   UNL     1     -37.579  24.406   2.124  0.00  0.00    +0.026 C 
ATOM      2  C   UNL     1     -37.406  22.872   2.234  0.00  0.00    +0.026 C 
ATOM      3  C   UNL     1     -35.407  24.705   3.456  0.00  0.00    +0.024 C 
ATOM      4  C   UNL     1     -36.207  25.101   2.206  0.00  0.00    +0.004 C 
ATOM      5  C   UNL     1     -36.608  22.470   3.483  0.00  0.00    +0.002 C 
ATOM      6  C   UNL     1     -35.259  23.182   3.546  0.00  0.00    +0.002 C 
ENDROOT
BRANCH   1   7
ATOM      7  C   UNL     1     -38.553  24.997   3.151  0.00  0.00    +0.158 C 
BRANCH   7   8
ATOM      8  S   UNL     1     -39.697  26.081   2.376  0.00  0.00    +0.023 S 
ATOM      9  O   UNL     1     -40.434  24.980   1.423  0.00  0.00    -0.069 OA
ATOM     10  O   UNL     1     -38.973  27.015   1.528  0.00  0.00    -0.069 OA
ATOM     11  O   UNL     1     -40.654  26.550   3.366  0.00  0.00    -0.069 OA
ENDBRANCH   7   8
ENDBRANCH   1   7
BRANCH   2  12
ATOM     12  C   UNL     1     -38.734  22.117   2.181  0.00  0.00    +0.158 C 
BRANCH  12  13
ATOM     13  S   UNL     1     -39.005  21.430   0.586  0.00  0.00    +0.023 S 
ATOM     14  O   UNL     1     -40.532  20.906   0.827  0.00  0.00    -0.069 OA
ATOM     15  O   UNL     1     -38.141  20.273   0.410  0.00  0.00    -0.069 OA
ATOM     16  O   UNL     1     -39.034  22.503  -0.395  0.00  0.00    -0.069 OA
ENDBRANCH  12  13
ENDBRANCH   2  12
BRANCH   3  17
ATOM     17  C   UNL     1     -34.034  25.377   3.448  0.00  0.00    +0.158 C 
BRANCH  17  18
ATOM     18  S   UNL     1     -33.995  26.744   4.552  0.00  0.00    +0.023 S 
ATOM     19  O   UNL     1     -35.378  26.417   5.355  0.00  0.00    -0.069 OA
ATOM     20  O   UNL     1     -34.178  27.974   3.798  0.00  0.00    -0.069 OA
ATOM     21  O   UNL     1     -32.878  26.583   5.469  0.00  0.00    -0.069 OA
ENDBRANCH  17  18
ENDBRANCH   3  17
TORSDOF 6
ENDMDL
