MODEL 1
REMARK VINA RESULT:      -5.3      0.000      0.000
REMARK  Name = 198514
REMARK  11 active torsions:
REMARK  status: ('A' for Active; 'I' for Inactive)
REMARK    1  A    between atoms: C_2  and  O_13
REMARK    2  A    between atoms: C_3  and  N_8
REMARK    3  A    between atoms: C_4  and  O_17
REMARK    4  A    between atoms: C_5  and  C_25
REMARK    5  A    between atoms: C_6  and  O_21
REMARK    6  A    between atoms: C_9  and  C_12
REMARK    7  A    between atoms: O_13  and  C_15
REMARK    8  A    between atoms: O_17  and  C_19
REMARK    9  A    between atoms: O_21  and  C_23
REMARK   10  A    between atoms: C_25  and  O_26
REMARK   11  A    between atoms: O_26  and  C_28
REMARK                            x       y       z     vdW  Elec       q    Type
REMARK                         _______ _______ _______ _____ _____    ______ ____
ROOT
ATOM      1  O   UNL     1     -38.834  25.739   3.142  0.00  0.00    -0.314 OA
ATOM      2  C   UNL     1     -39.270  23.233   1.815  0.00  0.00    +0.235 C 
ATOM      3  C   UNL     1     -40.119  24.472   1.511  0.00  0.00    +0.187 C 
ATOM      4  C   UNL     1     -37.921  23.612   2.429  0.00  0.00    +0.241 C 
ATOM      5  C   UNL     1     -38.112  24.589   3.591  0.00  0.00    +0.206 C 
ATOM      6  C   UNL     1     -40.157  25.425   2.711  0.00  0.00    +0.312 C 
ENDROOT
BRANCH   3   8
ATOM      7  O   UNL     1     -41.447  25.024  -0.988  0.00  0.00    -0.274 OA
ATOM      8  N   UNL     1     -41.461  24.079   1.133  0.00  0.00    -0.297 N 
ATOM      9  C   UNL     1     -42.011  24.394  -0.096  0.00  0.00    +0.234 C 
ATOM     10  H   UNL     1     -42.003  23.569   1.778  0.00  0.00    +0.150 HD
BRANCH   9  12
ATOM     11 BR   UNL     1     -44.429  25.329  -1.078  0.00  0.00    -0.070 Br
ATOM     12  C   UNL     1     -43.423  23.896  -0.247  0.00  0.00    +0.152 C 
ENDBRANCH   9  12
ENDBRANCH   3   8
BRANCH   2  13
ATOM     13  O   UNL     1     -39.040  22.528   0.594  0.00  0.00    -0.446 OA
BRANCH  13  15
ATOM     14  O   UNL     1     -40.718  20.961   0.856  0.00  0.00    -0.250 OA
ATOM     15  C   UNL     1     -39.583  21.278   0.526  0.00  0.00    +0.318 C 
ATOM     16  C   UNL     1     -38.572  20.319  -0.027  0.00  0.00    +0.121 C 
ENDBRANCH  13  15
ENDBRANCH   2  13
BRANCH   4  17
ATOM     17  O   UNL     1     -37.290  22.418   2.881  0.00  0.00    -0.446 OA
BRANCH  17  19
ATOM     18  O   UNL     1     -35.400  22.881   1.637  0.00  0.00    -0.250 OA
ATOM     19  C   UNL     1     -36.100  22.114   2.283  0.00  0.00    +0.318 C 
ATOM     20  C   UNL     1     -35.759  20.677   2.533  0.00  0.00    +0.121 C 
ENDBRANCH  17  19
ENDBRANCH   4  17
BRANCH   6  21
ATOM     21  O   UNL     1     -40.821  26.622   2.310  0.00  0.00    -0.422 OA
BRANCH  21  23
ATOM     22  O   UNL     1     -41.585  27.735   4.184  0.00  0.00    -0.250 OA
ATOM     23  C   UNL     1     -41.778  27.083   3.167  0.00  0.00    +0.319 C 
ATOM     24  C   UNL     1     -43.133  26.669   2.680  0.00  0.00    +0.121 C 
ENDBRANCH  21  23
ENDBRANCH   6  21
BRANCH   5  25
ATOM     25  C   UNL     1     -36.784  25.085   4.155  0.00  0.00    +0.242 C 
BRANCH  25  26
ATOM     26  O   UNL     1     -36.494  24.356   5.334  0.00  0.00    -0.446 OA
BRANCH  26  28
ATOM     27  O   UNL     1     -34.239  24.157   4.873  0.00  0.00    -0.250 OA
ATOM     28  C   UNL     1     -35.273  23.735   5.372  0.00  0.00    +0.318 C 
ATOM     29  C   UNL     1     -35.376  22.442   6.123  0.00  0.00    +0.121 C 
ENDBRANCH  26  28
ENDBRANCH  25  26
ENDBRANCH   5  25
TORSDOF 11
ENDMDL
MODEL 2
REMARK VINA RESULT:      -5.2      3.586      6.038
REMARK  Name = 198514
REMARK  11 active torsions:
REMARK  status: ('A' for Active; 'I' for Inactive)
REMARK    1  A    between atoms: C_2  and  O_13
REMARK    2  A    between atoms: C_3  and  N_8
REMARK    3  A    between atoms: C_4  and  O_17
REMARK    4  A    between atoms: C_5  and  C_25
REMARK    5  A    between atoms: C_6  and  O_21
REMARK    6  A    between atoms: C_9  and  C_12
REMARK    7  A    between atoms: O_13  and  C_15
REMARK    8  A    between atoms: O_17  and  C_19
REMARK    9  A    between atoms: O_21  and  C_23
REMARK   10  A    between atoms: C_25  and  O_26
REMARK   11  A    between atoms: O_26  and  C_28
REMARK                            x       y       z     vdW  Elec       q    Type
REMARK                         _______ _______ _______ _____ _____    ______ ____
ROOT
ATOM      1  O   UNL     1     -34.935  25.486   4.478  0.00  0.00    -0.314 OA
ATOM      2  C   UNL     1     -36.628  26.292   2.308  0.00  0.00    +0.235 C 
ATOM      3  C   UNL     1     -37.029  25.177   3.279  0.00  0.00    +0.187 C 
ATOM      4  C   UNL     1     -35.581  27.224   2.921  0.00  0.00    +0.241 C 
ATOM      5  C   UNL     1     -34.426  26.418   3.521  0.00  0.00    +0.206 C 
ATOM      6  C   UNL     1     -35.794  24.509   3.893  0.00  0.00    +0.312 C 
ENDROOT
BRANCH   3   8
ATOM      7  O   UNL     1     -39.838  24.687   3.704  0.00  0.00    -0.274 OA
ATOM      8  N   UNL     1     -37.853  24.196   2.603  0.00  0.00    -0.297 N 
ATOM      9  C   UNL     1     -39.199  24.037   2.879  0.00  0.00    +0.234 C 
ATOM     10  H   UNL     1     -37.438  23.619   1.921  0.00  0.00    +0.150 HD
BRANCH   9  12
ATOM     11 BR   UNL     1     -38.459  21.615   1.753  0.00  0.00    -0.070 Br
ATOM     12  C   UNL     1     -39.835  22.943   2.065  0.00  0.00    +0.152 C 
ENDBRANCH   9  12
ENDBRANCH   3   8
BRANCH   2  13
ATOM     13  O   UNL     1     -37.792  27.055   1.984  0.00  0.00    -0.446 OA
BRANCH  13  15
ATOM     14  O   UNL     1     -37.443  27.019  -0.299  0.00  0.00    -0.250 OA
ATOM     15  C   UNL     1     -38.181  27.011   0.677  0.00  0.00    +0.318 C 
ATOM     16  C   UNL     1     -39.676  26.947   0.598  0.00  0.00    +0.121 C 
ENDBRANCH  13  15
ENDBRANCH   2  13
BRANCH   4  17
ATOM     17  O   UNL     1     -35.104  28.089   1.894  0.00  0.00    -0.446 OA
BRANCH  17  19
ATOM     18  O   UNL     1     -35.161  30.056   3.105  0.00  0.00    -0.250 OA
ATOM     19  C   UNL     1     -35.353  29.420   2.078  0.00  0.00    +0.318 C 
ATOM     20  C   UNL     1     -35.909  30.010   0.818  0.00  0.00    +0.121 C 
ENDBRANCH  17  19
ENDBRANCH   4  17
BRANCH   6  21
ATOM     21  O   UNL     1     -36.233  23.600   4.902  0.00  0.00    -0.422 OA
BRANCH  21  23
ATOM     22  O   UNL     1     -35.463  21.659   3.915  0.00  0.00    -0.250 OA
ATOM     23  C   UNL     1     -35.633  22.374   4.894  0.00  0.00    +0.319 C 
ATOM     24  C   UNL     1     -35.202  22.013   6.282  0.00  0.00    +0.121 C 
ENDBRANCH  21  23
ENDBRANCH   6  21
BRANCH   5  25
ATOM     25  C   UNL     1     -33.419  27.304   4.247  0.00  0.00    +0.242 C 
BRANCH  25  26
ATOM     26  O   UNL     1     -32.898  26.584   5.350  0.00  0.00    -0.446 OA
BRANCH  26  28
ATOM     27  O   UNL     1     -32.880  27.050   7.613  0.00  0.00    -0.250 OA
ATOM     28  C   UNL     1     -32.586  27.327   6.458  0.00  0.00    +0.318 C 
ATOM     29  C   UNL     1     -31.817  28.550   6.058  0.00  0.00    +0.121 C 
ENDBRANCH  26  28
ENDBRANCH  25  26
ENDBRANCH   5  25
TORSDOF 11
ENDMDL
MODEL 3
REMARK VINA RESULT:      -5.1      4.140      7.470
REMARK  Name = 198514
REMARK  11 active torsions:
REMARK  status: ('A' for Active; 'I' for Inactive)
REMARK    1  A    between atoms: C_2  and  O_13
REMARK    2  A    between atoms: C_3  and  N_8
REMARK    3  A    between atoms: C_4  and  O_17
REMARK    4  A    between atoms: C_5  and  C_25
REMARK    5  A    between atoms: C_6  and  O_21
REMARK    6  A    between atoms: C_9  and  C_12
REMARK    7  A    between atoms: O_13  and  C_15
REMARK    8  A    between atoms: O_17  and  C_19
REMARK    9  A    between atoms: O_21  and  C_23
REMARK   10  A    between atoms: C_25  and  O_26
REMARK   11  A    between atoms: O_26  and  C_28
REMARK                            x       y       z     vdW  Elec       q    Type
REMARK                         _______ _______ _______ _____ _____    ______ ____
ROOT
ATOM      1  O   UNL     1     -37.302  24.393   4.197  0.00  0.00    -0.314 OA
ATOM      2  C   UNL     1     -36.479  26.801   2.873  0.00  0.00    +0.235 C 
ATOM      3  C   UNL     1     -35.541  26.023   3.803  0.00  0.00    +0.187 C 
ATOM      4  C   UNL     1     -37.602  25.912   2.335  0.00  0.00    +0.241 C 
ATOM      5  C   UNL     1     -38.279  25.148   3.476  0.00  0.00    +0.206 C 
ATOM      6  C   UNL     1     -36.332  25.218   4.839  0.00  0.00    +0.312 C 
ENDROOT
BRANCH   3   8
ATOM      7  O   UNL     1     -32.684  26.156   3.439  0.00  0.00    -0.274 OA
ATOM      8  N   UNL     1     -34.622  26.930   4.459  0.00  0.00    -0.297 N 
ATOM      9  C   UNL     1     -33.260  26.915   4.216  0.00  0.00    +0.234 C 
ATOM     10  H   UNL     1     -34.981  27.582   5.105  0.00  0.00    +0.150 HD
BRANCH   9  12
ATOM     11 BR   UNL     1     -32.557  27.316   6.867  0.00  0.00    -0.070 Br
ATOM     12  C   UNL     1     -32.512  27.935   5.031  0.00  0.00    +0.152 C 
ENDBRANCH   9  12
ENDBRANCH   3   8
BRANCH   2  13
ATOM     13  O   UNL     1     -35.718  27.301   1.772  0.00  0.00    -0.446 OA
BRANCH  13  15
ATOM     14  O   UNL     1     -35.258  29.405   2.607  0.00  0.00    -0.250 OA
ATOM     15  C   UNL     1     -35.606  28.658   1.702  0.00  0.00    +0.318 C 
ATOM     16  C   UNL     1     -35.977  29.125   0.327  0.00  0.00    +0.121 C 
ENDBRANCH  13  15
ENDBRANCH   2  13
BRANCH   4  17
ATOM     17  O   UNL     1     -38.544  26.747   1.668  0.00  0.00    -0.446 OA
BRANCH  17  19
ATOM     18  O   UNL     1     -38.316  25.528  -0.282  0.00  0.00    -0.250 OA
ATOM     19  C   UNL     1     -38.691  26.520   0.328  0.00  0.00    +0.318 C 
ATOM     20  C   UNL     1     -39.390  27.682  -0.309  0.00  0.00    +0.121 C 
ENDBRANCH  17  19
ENDBRANCH   4  17
BRANCH   6  21
ATOM     21  O   UNL     1     -35.415  24.397   5.561  0.00  0.00    -0.422 OA
BRANCH  21  23
ATOM     22  O   UNL     1     -35.118  22.739   3.980  0.00  0.00    -0.250 OA
ATOM     23  C   UNL     1     -35.316  23.105   5.131  0.00  0.00    +0.319 C 
ATOM     24  C   UNL     1     -35.486  22.172   6.291  0.00  0.00    +0.121 C 
ENDBRANCH  21  23
ENDBRANCH   6  21
BRANCH   5  25
ATOM     25  C   UNL     1     -39.326  24.161   2.969  0.00  0.00    +0.242 C 
BRANCH  25  26
ATOM     26  O   UNL     1     -38.734  22.878   2.886  0.00  0.00    -0.446 OA
BRANCH  26  28
ATOM     27  O   UNL     1     -40.220  21.255   2.182  0.00  0.00    -0.250 OA
ATOM     28  C   UNL     1     -39.287  22.019   1.973  0.00  0.00    +0.318 C 
ATOM     29  C   UNL     1     -38.583  22.144   0.656  0.00  0.00    +0.121 C 
ENDBRANCH  26  28
ENDBRANCH  25  26
ENDBRANCH   5  25
TORSDOF 11
ENDMDL
MODEL 4
REMARK VINA RESULT:      -5.1      4.198      6.666
REMARK  Name = 198514
REMARK  11 active torsions:
REMARK  status: ('A' for Active; 'I' for Inactive)
REMARK    1  A    between atoms: C_2  and  O_13
REMARK    2  A    between atoms: C_3  and  N_8
REMARK    3  A    between atoms: C_4  and  O_17
REMARK    4  A    between atoms: C_5  and  C_25
REMARK    5  A    between atoms: C_6  and  O_21
REMARK    6  A    between atoms: C_9  and  C_12
REMARK    7  A    between atoms: O_13  and  C_15
REMARK    8  A    between atoms: O_17  and  C_19
REMARK    9  A    between atoms: O_21  and  C_23
REMARK   10  A    between atoms: C_25  and  O_26
REMARK   11  A    between atoms: O_26  and  C_28
REMARK                            x       y       z     vdW  Elec       q    Type
REMARK                         _______ _______ _______ _____ _____    ______ ____
ROOT
ATOM      1  O   UNL     1     -34.578  25.673   5.264  0.00  0.00    -0.314 OA
ATOM      2  C   UNL     1     -35.550  26.575   2.721  0.00  0.00    +0.235 C 
ATOM      3  C   UNL     1     -36.251  25.465   3.511  0.00  0.00    +0.187 C 
ATOM      4  C   UNL     1     -34.690  27.456   3.630  0.00  0.00    +0.241 C 
ATOM      5  C   UNL     1     -33.784  26.596   4.515  0.00  0.00    +0.206 C 
ATOM      6  C   UNL     1     -35.268  24.739   4.435  0.00  0.00    +0.312 C 
ENDROOT
BRANCH   3   8
ATOM      7  O   UNL     1     -38.975  24.526   3.609  0.00  0.00    -0.274 OA
ATOM      8  N   UNL     1     -36.881  24.528   2.604  0.00  0.00    -0.297 N 
ATOM      9  C   UNL     1     -38.202  24.137   2.736  0.00  0.00    +0.234 C 
ATOM     10  H   UNL     1     -36.348  24.152   1.866  0.00  0.00    +0.150 HD
BRANCH   9  12
ATOM     11 BR   UNL     1     -37.036  22.721   0.658  0.00  0.00    -0.070 Br
ATOM     12  C   UNL     1     -38.622  23.142   1.689  0.00  0.00    +0.152 C 
ENDBRANCH   9  12
ENDBRANCH   3   8
BRANCH   2  13
ATOM     13  O   UNL     1     -36.545  27.389   2.097  0.00  0.00    -0.446 OA
BRANCH  13  15
ATOM     14  O   UNL     1     -36.731  26.350   0.043  0.00  0.00    -0.250 OA
ATOM     15  C   UNL     1     -36.570  27.347   0.734  0.00  0.00    +0.318 C 
ATOM     16  C   UNL     1     -36.370  28.726   0.183  0.00  0.00    +0.121 C 
ENDBRANCH  13  15
ENDBRANCH   2  13
BRANCH   4  17
ATOM     17  O   UNL     1     -33.908  28.313   2.804  0.00  0.00    -0.446 OA
BRANCH  17  19
ATOM     18  O   UNL     1     -35.101  30.218   3.340  0.00  0.00    -0.250 OA
ATOM     19  C   UNL     1     -34.063  29.653   3.028  0.00  0.00    +0.318 C 
ATOM     20  C   UNL     1     -32.752  30.353   2.834  0.00  0.00    +0.121 C 
ENDBRANCH  17  19
ENDBRANCH   4  17
BRANCH   6  21
ATOM     21  O   UNL     1     -36.009  23.836   5.254  0.00  0.00    -0.422 OA
BRANCH  21  23
ATOM     22  O   UNL     1     -35.679  21.877   4.074  0.00  0.00    -0.250 OA
ATOM     23  C   UNL     1     -35.688  22.516   5.118  0.00  0.00    +0.319 C 
ATOM     24  C   UNL     1     -35.339  21.940   6.457  0.00  0.00    +0.121 C 
ENDBRANCH  21  23
ENDBRANCH   6  21
BRANCH   5  25
ATOM     25  C   UNL     1     -32.996  27.430   5.520  0.00  0.00    +0.242 C 
BRANCH  25  26
ATOM     26  O   UNL     1     -31.678  27.598   5.032  0.00  0.00    -0.446 OA
BRANCH  26  28
ATOM     27  O   UNL     1     -29.663  27.984   6.095  0.00  0.00    -0.250 OA
ATOM     28  C   UNL     1     -30.820  28.292   5.844  0.00  0.00    +0.318 C 
ATOM     29  C   UNL     1     -31.504  29.506   6.397  0.00  0.00    +0.121 C 
ENDBRANCH  26  28
ENDBRANCH  25  26
ENDBRANCH   5  25
TORSDOF 11
ENDMDL
MODEL 5
REMARK VINA RESULT:      -5.1      2.609      5.349
REMARK  Name = 198514
REMARK  11 active torsions:
REMARK  status: ('A' for Active; 'I' for Inactive)
REMARK    1  A    between atoms: C_2  and  O_13
REMARK    2  A    between atoms: C_3  and  N_8
REMARK    3  A    between atoms: C_4  and  O_17
REMARK    4  A    between atoms: C_5  and  C_25
REMARK    5  A    between atoms: C_6  and  O_21
REMARK    6  A    between atoms: C_9  and  C_12
REMARK    7  A    between atoms: O_13  and  C_15
REMARK    8  A    between atoms: O_17  and  C_19
REMARK    9  A    between atoms: O_21  and  C_23
REMARK   10  A    between atoms: C_25  and  O_26
REMARK   11  A    between atoms: O_26  and  C_28
REMARK                            x       y       z     vdW  Elec       q    Type
REMARK                         _______ _______ _______ _____ _____    ______ ____
ROOT
ATOM      1  O   UNL     1     -34.929  21.693   2.522  0.00  0.00    -0.314 OA
ATOM      2  C   UNL     1     -37.644  21.301   1.685  0.00  0.00    +0.235 C 
ATOM      3  C   UNL     1     -37.154  22.638   2.250  0.00  0.00    +0.187 C 
ATOM      4  C   UNL     1     -36.488  20.463   1.136  0.00  0.00    +0.241 C 
ATOM      5  C   UNL     1     -35.352  20.377   2.158  0.00  0.00    +0.206 C 
ATOM      6  C   UNL     1     -35.952  22.438   3.180  0.00  0.00    +0.312 C 
ENDROOT
BRANCH   3   8
ATOM      7  O   UNL     1     -38.433  25.108   1.489  0.00  0.00    -0.274 OA
ATOM      8  N   UNL     1     -38.229  23.312   2.948  0.00  0.00    -0.297 N 
ATOM      9  C   UNL     1     -38.779  24.500   2.500  0.00  0.00    +0.234 C 
ATOM     10  H   UNL     1     -38.581  22.909   3.774  0.00  0.00    +0.150 HD
BRANCH   9  12
ATOM     11 BR   UNL     1     -41.132  25.946   2.269  0.00  0.00    -0.070 Br
ATOM     12  C   UNL     1     -39.866  25.015   3.404  0.00  0.00    +0.152 C 
ENDBRANCH   9  12
ENDBRANCH   3   8
BRANCH   2  13
ATOM     13  O   UNL     1     -38.567  21.565   0.626  0.00  0.00    -0.446 OA
BRANCH  13  15
ATOM     14  O   UNL     1     -40.378  21.155   1.999  0.00  0.00    -0.250 OA
ATOM     15  C   UNL     1     -39.870  21.262   0.891  0.00  0.00    +0.318 C 
ATOM     16  C   UNL     1     -40.616  21.073  -0.395  0.00  0.00    +0.121 C 
ENDBRANCH  13  15
ENDBRANCH   2  13
BRANCH   4  17
ATOM     17  O   UNL     1     -36.988  19.163   0.837  0.00  0.00    -0.446 OA
BRANCH  17  19
ATOM     18  O   UNL     1     -36.144  19.067  -1.312  0.00  0.00    -0.250 OA
ATOM     19  C   UNL     1     -37.017  18.831  -0.489  0.00  0.00    +0.318 C 
ATOM     20  C   UNL     1     -38.298  18.122  -0.805  0.00  0.00    +0.121 C 
ENDBRANCH  17  19
ENDBRANCH   4  17
BRANCH   6  21
ATOM     21  O   UNL     1     -35.446  23.723   3.538  0.00  0.00    -0.422 OA
BRANCH  21  23
ATOM     22  O   UNL     1     -33.706  24.415   4.891  0.00  0.00    -0.250 OA
ATOM     23  C   UNL     1     -34.730  23.773   4.699  0.00  0.00    +0.319 C 
ATOM     24  C   UNL     1     -35.386  22.911   5.735  0.00  0.00    +0.121 C 
ENDBRANCH  21  23
ENDBRANCH   6  21
BRANCH   5  25
ATOM     25  C   UNL     1     -34.131  19.649   1.605  0.00  0.00    +0.242 C 
BRANCH  25  26
ATOM     26  O   UNL     1     -33.435  20.528   0.740  0.00  0.00    -0.446 OA
BRANCH  26  28
ATOM     27  O   UNL     1     -31.413  20.754  -0.356  0.00  0.00    -0.250 OA
ATOM     28  C   UNL     1     -32.200  20.107   0.322  0.00  0.00    +0.318 C 
ATOM     29  C   UNL     1     -31.934  18.718   0.820  0.00  0.00    +0.121 C 
ENDBRANCH  26  28
ENDBRANCH  25  26
ENDBRANCH   5  25
TORSDOF 11
ENDMDL
MODEL 6
REMARK VINA RESULT:      -5.0      4.773      7.429
REMARK  Name = 198514
REMARK  11 active torsions:
REMARK  status: ('A' for Active; 'I' for Inactive)
REMARK    1  A    between atoms: C_2  and  O_13
REMARK    2  A    between atoms: C_3  and  N_8
REMARK    3  A    between atoms: C_4  and  O_17
REMARK    4  A    between atoms: C_5  and  C_25
REMARK    5  A    between atoms: C_6  and  O_21
REMARK    6  A    between atoms: C_9  and  C_12
REMARK    7  A    between atoms: O_13  and  C_15
REMARK    8  A    between atoms: O_17  and  C_19
REMARK    9  A    between atoms: O_21  and  C_23
REMARK   10  A    between atoms: C_25  and  O_26
REMARK   11  A    between atoms: O_26  and  C_28
REMARK                            x       y       z     vdW  Elec       q    Type
REMARK                         _______ _______ _______ _____ _____    ______ ____
ROOT
ATOM      1  O   UNL     1     -33.686  25.883   4.915  0.00  0.00    -0.314 OA
ATOM      2  C   UNL     1     -35.442  27.087   2.994  0.00  0.00    +0.235 C 
ATOM      3  C   UNL     1     -33.950  27.427   3.054  0.00  0.00    +0.187 C 
ATOM      4  C   UNL     1     -35.738  25.732   3.639  0.00  0.00    +0.241 C 
ATOM      5  C   UNL     1     -35.090  25.640   5.023  0.00  0.00    +0.206 C 
ATOM      6  C   UNL     1     -33.388  27.203   4.462  0.00  0.00    +0.312 C 
ENDROOT
BRANCH   3   8
ATOM      7  O   UNL     1     -32.564  28.309   0.684  0.00  0.00    -0.274 OA
ATOM      8  N   UNL     1     -33.730  28.796   2.633  0.00  0.00    -0.297 N 
ATOM      9  C   UNL     1     -33.049  29.118   1.473  0.00  0.00    +0.234 C 
ATOM     10  H   UNL     1     -34.079  29.525   3.196  0.00  0.00    +0.150 HD
BRANCH   9  12
ATOM     11 BR   UNL     1     -33.721  31.448   2.815  0.00  0.00    -0.070 Br
ATOM     12  C   UNL     1     -32.932  30.603   1.260  0.00  0.00    +0.152 C 
ENDBRANCH   9  12
ENDBRANCH   3   8
BRANCH   2  13
ATOM     13  O   UNL     1     -35.845  27.044   1.623  0.00  0.00    -0.446 OA
BRANCH  13  15
ATOM     14  O   UNL     1     -36.639  29.205   1.438  0.00  0.00    -0.250 OA
ATOM     15  C   UNL     1     -36.738  28.002   1.242  0.00  0.00    +0.318 C 
ATOM     16  C   UNL     1     -37.890  27.361   0.529  0.00  0.00    +0.121 C 
ENDBRANCH  13  15
ENDBRANCH   2  13
BRANCH   4  17
ATOM     17  O   UNL     1     -37.152  25.589   3.740  0.00  0.00    -0.446 OA
BRANCH  17  19
ATOM     18  O   UNL     1     -37.087  23.753   2.340  0.00  0.00    -0.250 OA
ATOM     19  C   UNL     1     -37.700  24.584   2.994  0.00  0.00    +0.318 C 
ATOM     20  C   UNL     1     -39.194  24.642   3.089  0.00  0.00    +0.121 C 
ENDBRANCH  17  19
ENDBRANCH   4  17
BRANCH   6  21
ATOM     21  O   UNL     1     -31.973  27.378   4.412  0.00  0.00    -0.422 OA
BRANCH  21  23
ATOM     22  O   UNL     1     -30.967  29.454   4.294  0.00  0.00    -0.250 OA
ATOM     23  C   UNL     1     -31.505  28.554   4.925  0.00  0.00    +0.319 C 
ATOM     24  C   UNL     1     -31.745  28.591   6.403  0.00  0.00    +0.121 C 
ENDBRANCH  21  23
ENDBRANCH   6  21
BRANCH   5  25
ATOM     25  C   UNL     1     -35.261  24.260   5.650  0.00  0.00    +0.242 C 
BRANCH  25  26
ATOM     26  O   UNL     1     -34.853  23.283   4.710  0.00  0.00    -0.446 OA
BRANCH  26  28
ATOM     27  O   UNL     1     -35.341  21.092   4.163  0.00  0.00    -0.250 OA
ATOM     28  C   UNL     1     -35.230  21.994   4.982  0.00  0.00    +0.318 C 
ATOM     29  C   UNL     1     -35.492  21.833   6.449  0.00  0.00    +0.121 C 
ENDBRANCH  26  28
ENDBRANCH  25  26
ENDBRANCH   5  25
TORSDOF 11
ENDMDL
MODEL 7
REMARK VINA RESULT:      -5.0      5.703      8.595
REMARK  Name = 198514
REMARK  11 active torsions:
REMARK  status: ('A' for Active; 'I' for Inactive)
REMARK    1  A    between atoms: C_2  and  O_13
REMARK    2  A    between atoms: C_3  and  N_8
REMARK    3  A    between atoms: C_4  and  O_17
REMARK    4  A    between atoms: C_5  and  C_25
REMARK    5  A    between atoms: C_6  and  O_21
REMARK    6  A    between atoms: C_9  and  C_12
REMARK    7  A    between atoms: O_13  and  C_15
REMARK    8  A    between atoms: O_17  and  C_19
REMARK    9  A    between atoms: O_21  and  C_23
REMARK   10  A    between atoms: C_25  and  O_26
REMARK   11  A    between atoms: O_26  and  C_28
REMARK                            x       y       z     vdW  Elec       q    Type
REMARK                         _______ _______ _______ _____ _____    ______ ____
ROOT
ATOM      1  O   UNL     1     -32.637  26.673   4.550  0.00  0.00    -0.314 OA
ATOM      2  C   UNL     1     -34.480  28.357   3.137  0.00  0.00    +0.235 C 
ATOM      3  C   UNL     1     -33.023  28.768   3.375  0.00  0.00    +0.187 C 
ATOM      4  C   UNL     1     -34.659  26.841   3.229  0.00  0.00    +0.241 C 
ATOM      5  C   UNL     1     -34.015  26.297   4.507  0.00  0.00    +0.206 C 
ATOM      6  C   UNL     1     -32.453  28.086   4.624  0.00  0.00    +0.312 C 
ENDROOT
BRANCH   3   8
ATOM      7  O   UNL     1     -31.779  30.575   1.504  0.00  0.00    -0.274 OA
ATOM      8  N   UNL     1     -32.921  30.208   3.493  0.00  0.00    -0.297 N 
ATOM      9  C   UNL     1     -32.302  30.992   2.536  0.00  0.00    +0.234 C 
ATOM     10  H   UNL     1     -33.308  30.646   4.286  0.00  0.00    +0.150 HD
BRANCH   9  12
ATOM     11 BR   UNL     1     -33.528  33.318   1.661  0.00  0.00    -0.070 Br
ATOM     12  C   UNL     1     -32.305  32.454   2.891  0.00  0.00    +0.152 C 
ENDBRANCH   9  12
ENDBRANCH   3   8
BRANCH   2  13
ATOM     13  O   UNL     1     -34.867  28.790   1.832  0.00  0.00    -0.446 OA
BRANCH  13  15
ATOM     14  O   UNL     1     -35.878  30.731   2.569  0.00  0.00    -0.250 OA
ATOM     15  C   UNL     1     -35.796  29.788   1.794  0.00  0.00    +0.318 C 
ATOM     16  C   UNL     1     -36.729  29.566   0.642  0.00  0.00    +0.121 C 
ENDBRANCH  13  15
ENDBRANCH   2  13
BRANCH   4  17
ATOM     17  O   UNL     1     -36.056  26.560   3.217  0.00  0.00    -0.446 OA
BRANCH  17  19
ATOM     18  O   UNL     1     -35.878  25.028   1.496  0.00  0.00    -0.250 OA
ATOM     19  C   UNL     1     -36.509  25.859   2.135  0.00  0.00    +0.318 C 
ATOM     20  C   UNL     1     -37.921  26.257   1.829  0.00  0.00    +0.121 C 
ENDBRANCH  17  19
ENDBRANCH   4  17
BRANCH   6  21
ATOM     21  O   UNL     1     -31.059  28.379   4.696  0.00  0.00    -0.422 OA
BRANCH  21  23
ATOM     22  O   UNL     1     -29.622  27.732   6.385  0.00  0.00    -0.250 OA
ATOM     23  C   UNL     1     -30.530  28.430   5.953  0.00  0.00    +0.319 C 
ATOM     24  C   UNL     1     -31.231  29.483   6.754  0.00  0.00    +0.121 C 
ENDBRANCH  21  23
ENDBRANCH   6  21
BRANCH   5  25
ATOM     25  C   UNL     1     -34.069  24.775   4.579  0.00  0.00    +0.242 C 
BRANCH  25  26
ATOM     26  O   UNL     1     -34.943  24.402   5.629  0.00  0.00    -0.446 OA
BRANCH  26  28
ATOM     27  O   UNL     1     -36.618  23.227   4.556  0.00  0.00    -0.250 OA
ATOM     28  C   UNL     1     -35.730  23.306   5.395  0.00  0.00    +0.318 C 
ATOM     29  C   UNL     1     -35.350  22.191   6.322  0.00  0.00    +0.121 C 
ENDBRANCH  26  28
ENDBRANCH  25  26
ENDBRANCH   5  25
TORSDOF 11
ENDMDL
MODEL 8
REMARK VINA RESULT:      -4.8      4.045      7.210
REMARK  Name = 198514
REMARK  11 active torsions:
REMARK  status: ('A' for Active; 'I' for Inactive)
REMARK    1  A    between atoms: C_2  and  O_13
REMARK    2  A    between atoms: C_3  and  N_8
REMARK    3  A    between atoms: C_4  and  O_17
REMARK    4  A    between atoms: C_5  and  C_25
REMARK    5  A    between atoms: C_6  and  O_21
REMARK    6  A    between atoms: C_9  and  C_12
REMARK    7  A    between atoms: O_13  and  C_15
REMARK    8  A    between atoms: O_17  and  C_19
REMARK    9  A    between atoms: O_21  and  C_23
REMARK   10  A    between atoms: C_25  and  O_26
REMARK   11  A    between atoms: O_26  and  C_28
REMARK                            x       y       z     vdW  Elec       q    Type
REMARK                         _______ _______ _______ _____ _____    ______ ____
ROOT
ATOM      1  O   UNL     1     -35.169  20.758   2.490  0.00  0.00    -0.314 OA
ATOM      2  C   UNL     1     -37.059  20.414   0.360  0.00  0.00    +0.235 C 
ATOM      3  C   UNL     1     -35.904  19.433   0.587  0.00  0.00    +0.187 C 
ATOM      4  C   UNL     1     -37.390  21.199   1.631  0.00  0.00    +0.241 C 
ATOM      5  C   UNL     1     -36.120  21.797   2.242  0.00  0.00    +0.206 C 
ATOM      6  C   UNL     1     -34.729  20.117   1.294  0.00  0.00    +0.312 C 
ENDROOT
BRANCH   3   8
ATOM      7  O   UNL     1     -36.243  16.706  -0.285  0.00  0.00    -0.274 OA
ATOM      8  N   UNL     1     -35.475  18.863  -0.673  0.00  0.00    -0.297 N 
ATOM      9  C   UNL     1     -35.686  17.536  -1.001  0.00  0.00    +0.234 C 
ATOM     10  H   UNL     1     -35.015  19.444  -1.322  0.00  0.00    +0.150 HD
BRANCH   9  12
ATOM     11 BR   UNL     1     -33.676  18.404  -2.700  0.00  0.00    -0.070 Br
ATOM     12  C   UNL     1     -35.134  17.175  -2.353  0.00  0.00    +0.152 C 
ENDBRANCH   9  12
ENDBRANCH   3   8
BRANCH   2  13
ATOM     13  O   UNL     1     -38.214  19.674  -0.039  0.00  0.00    -0.446 OA
BRANCH  13  15
ATOM     14  O   UNL     1     -38.001  19.863  -2.331  0.00  0.00    -0.250 OA
ATOM     15  C   UNL     1     -38.663  19.920  -1.303  0.00  0.00    +0.318 C 
ATOM     16  C   UNL     1     -40.118  20.278  -1.261  0.00  0.00    +0.121 C 
ENDBRANCH  13  15
ENDBRANCH   2  13
BRANCH   4  17
ATOM     17  O   UNL     1     -38.309  22.231   1.286  0.00  0.00    -0.446 OA
BRANCH  17  19
ATOM     18  O   UNL     1     -40.198  21.208   2.136  0.00  0.00    -0.250 OA
ATOM     19  C   UNL     1     -39.508  22.198   1.942  0.00  0.00    +0.318 C 
ATOM     20  C   UNL     1     -39.872  23.577   2.401  0.00  0.00    +0.121 C 
ENDBRANCH  17  19
ENDBRANCH   4  17
BRANCH   6  21
ATOM     21  O   UNL     1     -33.762  19.119   1.621  0.00  0.00    -0.422 OA
BRANCH  21  23
ATOM     22  O   UNL     1     -32.144  20.224   0.398  0.00  0.00    -0.250 OA
ATOM     23  C   UNL     1     -32.557  19.236   0.991  0.00  0.00    +0.319 C 
ATOM     24  C   UNL     1     -31.789  17.957   1.127  0.00  0.00    +0.121 C 
ENDBRANCH  21  23
ENDBRANCH   6  21
BRANCH   5  25
ATOM     25  C   UNL     1     -36.389  22.487   3.575  0.00  0.00    +0.242 C 
BRANCH  25  26
ATOM     26  O   UNL     1     -35.621  23.675   3.632  0.00  0.00    -0.446 OA
BRANCH  26  28
ATOM     27  O   UNL     1     -33.751  24.485   4.721  0.00  0.00    -0.250 OA
ATOM     28  C   UNL     1     -34.747  23.776   4.682  0.00  0.00    +0.318 C 
ATOM     29  C   UNL     1     -35.184  22.881   5.803  0.00  0.00    +0.121 C 
ENDBRANCH  26  28
ENDBRANCH  25  26
ENDBRANCH   5  25
TORSDOF 11
ENDMDL
MODEL 9
REMARK VINA RESULT:      -4.6      2.699      3.485
REMARK  Name = 198514
REMARK  11 active torsions:
REMARK  status: ('A' for Active; 'I' for Inactive)
REMARK    1  A    between atoms: C_2  and  O_13
REMARK    2  A    between atoms: C_3  and  N_8
REMARK    3  A    between atoms: C_4  and  O_17
REMARK    4  A    between atoms: C_5  and  C_25
REMARK    5  A    between atoms: C_6  and  O_21
REMARK    6  A    between atoms: C_9  and  C_12
REMARK    7  A    between atoms: O_13  and  C_15
REMARK    8  A    between atoms: O_17  and  C_19
REMARK    9  A    between atoms: O_21  and  C_23
REMARK   10  A    between atoms: C_25  and  O_26
REMARK   11  A    between atoms: O_26  and  C_28
REMARK                            x       y       z     vdW  Elec       q    Type
REMARK                         _______ _______ _______ _____ _____    ______ ____
ROOT
ATOM      1  O   UNL     1     -36.783  26.396   2.981  0.00  0.00    -0.314 OA
ATOM      2  C   UNL     1     -37.071  23.569   2.584  0.00  0.00    +0.235 C 
ATOM      3  C   UNL     1     -37.178  24.567   1.426  0.00  0.00    +0.187 C 
ATOM      4  C   UNL     1     -36.294  24.157   3.764  0.00  0.00    +0.241 C 
ATOM      5  C   UNL     1     -36.832  25.543   4.128  0.00  0.00    +0.206 C 
ATOM      6  C   UNL     1     -37.628  25.945   1.923  0.00  0.00    +0.312 C 
ENDROOT
BRANCH   3   8
ATOM      7  O   UNL     1     -36.558  23.959  -1.323  0.00  0.00    -0.274 OA
ATOM      8  N   UNL     1     -38.091  24.069   0.419  0.00  0.00    -0.297 N 
ATOM      9  C   UNL     1     -37.695  23.806  -0.881  0.00  0.00    +0.234 C 
ATOM     10  H   UNL     1     -39.031  23.912   0.668  0.00  0.00    +0.150 HD
BRANCH   9  12
ATOM     11 BR   UNL     1     -40.448  24.091  -1.025  0.00  0.00    -0.070 Br
ATOM     12  C   UNL     1     -38.825  23.317  -1.746  0.00  0.00    +0.152 C 
ENDBRANCH   9  12
ENDBRANCH   3   8
BRANCH   2  13
ATOM     13  O   UNL     1     -36.391  22.402   2.119  0.00  0.00    -0.446 OA
BRANCH  13  15
ATOM     14  O   UNL     1     -38.393  21.273   1.891  0.00  0.00    -0.250 OA
ATOM     15  C   UNL     1     -37.170  21.297   1.944  0.00  0.00    +0.318 C 
ATOM     16  C   UNL     1     -36.302  20.082   1.821  0.00  0.00    +0.121 C 
ENDBRANCH  13  15
ENDBRANCH   2  13
BRANCH   4  17
ATOM     17  O   UNL     1     -36.426  23.267   4.868  0.00  0.00    -0.446 OA
BRANCH  17  19
ATOM     18  O   UNL     1     -34.165  23.341   5.334  0.00  0.00    -0.250 OA
ATOM     19  C   UNL     1     -35.255  22.791   5.388  0.00  0.00    +0.318 C 
ATOM     20  C   UNL     1     -35.496  21.468   6.049  0.00  0.00    +0.121 C 
ENDBRANCH  17  19
ENDBRANCH   4  17
BRANCH   6  21
ATOM     21  O   UNL     1     -37.550  26.861   0.832  0.00  0.00    -0.422 OA
BRANCH  21  23
ATOM     22  O   UNL     1     -39.760  27.511   1.003  0.00  0.00    -0.250 OA
ATOM     23  C   UNL     1     -38.746  27.307   0.349  0.00  0.00    +0.319 C 
ATOM     24  C   UNL     1     -38.646  27.519  -1.131  0.00  0.00    +0.121 C 
ENDBRANCH  21  23
ENDBRANCH   6  21
BRANCH   5  25
ATOM     25  C   UNL     1     -36.008  26.214   5.222  0.00  0.00    +0.242 C 
BRANCH  25  26
ATOM     26  O   UNL     1     -35.000  26.999   4.611  0.00  0.00    -0.446 OA
BRANCH  26  28
ATOM     27  O   UNL     1     -32.946  26.169   3.955  0.00  0.00    -0.250 OA
ATOM     28  C   UNL     1     -33.710  26.585   4.815  0.00  0.00    +0.318 C 
ATOM     29  C   UNL     1     -33.351  26.714   6.265  0.00  0.00    +0.121 C 
ENDBRANCH  26  28
ENDBRANCH  25  26
ENDBRANCH   5  25
TORSDOF 11
ENDMDL
