MODEL 1
REMARK VINA RESULT:      -5.9      0.000      0.000
REMARK  Name = 19786231
REMARK  13 active torsions:
REMARK  status: ('A' for Active; 'I' for Inactive)
REMARK    1  A    between atoms: N_2  and  CA_5
REMARK    2  A    between atoms: C_3  and  CA_18
REMARK    3  A    between atoms: CA_5  and  C_7
REMARK    4  A    between atoms: CA_5  and  CB_10
REMARK    5  A    between atoms: C_7  and  O_8
REMARK    6  A    between atoms: CB_10  and  CG_11
REMARK    7  A    between atoms: CG_11  and  CD_12
REMARK    8  A    between atoms: CD_12  and  CE_13
REMARK    9  A    between atoms: CE_13  and  NZ_14
REMARK   10  A    between atoms: CA_18  and  N_19
REMARK   11  A    between atoms: CA_18  and  CB_23
REMARK   12  A    between atoms: CB_23  and  CG_24
REMARK   13  A    between atoms: CZ_29  and  OH_30
REMARK                            x       y       z     vdW  Elec       q    Type
REMARK                         _______ _______ _______ _____ _____    ______ ____
ROOT
ATOM      1  O   TYR A   1     -37.508  21.687   2.177  0.00  0.00    -0.277 OA
ATOM      2  N   LYS A   2     -35.597  21.470   3.474  0.00  0.00    -0.298 N 
ATOM      3  C   TYR A   1     -36.407  21.179   2.383  0.00  0.00    +0.203 C 
ATOM      4  H   LYS A   2     -34.728  21.013   3.557  0.00  0.00    +0.150 HD
ENDROOT
BRANCH   2   5
ATOM      5  CA  LYS A   2     -35.984  22.417   4.488  0.00  0.00    +0.171 C 
BRANCH   5   7
ATOM      6  OXT LYS A   2     -35.217  22.562   6.796  0.00  0.00    -0.248 OA
ATOM      7  C   LYS A   2     -35.443  21.887   5.801  0.00  0.00    +0.332 C 
BRANCH   7   8
ATOM      8  O   LYS A   2     -35.183  20.554   5.740  0.00  0.00    -0.479 OA
ATOM      9  H   LYS A   2     -34.354  20.225   6.028  0.00  0.00    +0.295 HD
ENDBRANCH   7   8
ENDBRANCH   5   7
BRANCH   5  10
ATOM     10  CB  LYS A   2     -35.434  23.819   4.218  0.00  0.00    +0.031 C 
BRANCH  10  11
ATOM     11  CG  LYS A   2     -36.411  24.960   4.533  0.00  0.00    +0.000 C 
BRANCH  11  12
ATOM     12  CD  LYS A   2     -35.883  25.931   5.594  0.00  0.00    -0.024 C 
BRANCH  12  13
ATOM     13  CE  LYS A   2     -34.364  25.863   5.764  0.00  0.00    -0.086 C 
BRANCH  13  14
ATOM     14  NZ  LYS A   2     -33.709  27.083   5.308  0.00  0.00    +0.380 N 
ATOM     15  HZ1 LYS A   2     -34.058  27.877   5.845  0.00  0.00    -0.089 HD
ATOM     16  HZ2 LYS A   2     -33.909  27.227   4.319  0.00  0.00    -0.089 HD
ATOM     17  HZ3 LYS A   2     -32.701  26.998   5.442  0.00  0.00    -0.089 HD
ENDBRANCH  13  14
ENDBRANCH  12  13
ENDBRANCH  11  12
ENDBRANCH  10  11
ENDBRANCH   5  10
ENDBRANCH   2   5
BRANCH   3  18
ATOM     18  CA  TYR A   1     -35.773  20.168   1.434  0.00  0.00    +0.017 C 
BRANCH  18  19
ATOM     19  N   TYR A   1     -36.817  19.759   0.495  0.00  0.00    +0.388 N 
ATOM     20  H1  TYR A   1     -37.626  20.373   0.597  0.00  0.00    -0.089 HD
ATOM     21  H2  TYR A   1     -37.093  18.797   0.691  0.00  0.00    -0.089 HD
ATOM     22  H3  TYR A   1     -36.460  19.823  -0.458  0.00  0.00    -0.089 HD
ENDBRANCH  18  19
BRANCH  18  23
ATOM     23  CB  TYR A   1     -34.601  20.801   0.669  0.00  0.00    +0.013 C 
BRANCH  23  24
ATOM     24  CG  TYR A   1     -33.355  19.948   0.695  0.00  0.00    -0.024 C 
ATOM     25  CD1 TYR A   1     -33.350  18.741   1.394  0.00  0.00    -0.001 C 
ATOM     26  CD2 TYR A   1     -32.208  20.367   0.021  0.00  0.00    -0.001 C 
ATOM     27  CE1 TYR A   1     -32.200  17.953   1.418  0.00  0.00    +0.036 C 
ATOM     28  CE2 TYR A   1     -31.058  19.579   0.044  0.00  0.00    +0.036 C 
ATOM     29  CZ  TYR A   1     -31.053  18.372   0.743  0.00  0.00    +0.134 C 
BRANCH  29  30
ATOM     30  OH  TYR A   1     -29.931  17.602   0.766  0.00  0.00    -0.506 OA
ATOM     31  HH  TYR A   1     -29.992  16.691   0.976  0.00  0.00    +0.292 HD
ENDBRANCH  29  30
ENDBRANCH  23  24
ENDBRANCH  18  23
ENDBRANCH   3  18
TORSDOF 13
ENDMDL
MODEL 2
REMARK VINA RESULT:      -5.9      1.950      2.402
REMARK  Name = 19786231
REMARK  13 active torsions:
REMARK  status: ('A' for Active; 'I' for Inactive)
REMARK    1  A    between atoms: N_2  and  CA_5
REMARK    2  A    between atoms: C_3  and  CA_18
REMARK    3  A    between atoms: CA_5  and  C_7
REMARK    4  A    between atoms: CA_5  and  CB_10
REMARK    5  A    between atoms: C_7  and  O_8
REMARK    6  A    between atoms: CB_10  and  CG_11
REMARK    7  A    between atoms: CG_11  and  CD_12
REMARK    8  A    between atoms: CD_12  and  CE_13
REMARK    9  A    between atoms: CE_13  and  NZ_14
REMARK   10  A    between atoms: CA_18  and  N_19
REMARK   11  A    between atoms: CA_18  and  CB_23
REMARK   12  A    between atoms: CB_23  and  CG_24
REMARK   13  A    between atoms: CZ_29  and  OH_30
REMARK                            x       y       z     vdW  Elec       q    Type
REMARK                         _______ _______ _______ _____ _____    ______ ____
ROOT
ATOM      1  O   TYR A   1     -34.731  22.970   1.729  0.00  0.00    -0.277 OA
ATOM      2  N   LYS A   2     -36.073  22.741   3.607  0.00  0.00    -0.298 N 
ATOM      3  C   TYR A   1     -35.381  22.266   2.500  0.00  0.00    +0.203 C 
ATOM      4  H   LYS A   2     -36.568  22.102   4.169  0.00  0.00    +0.150 HD
ENDROOT
BRANCH   2   5
ATOM      5  CA  LYS A   2     -36.091  24.138   3.960  0.00  0.00    +0.171 C 
BRANCH   5   7
ATOM      6  OXT LYS A   2     -38.438  23.928   3.334  0.00  0.00    -0.248 OA
ATOM      7  C   LYS A   2     -37.519  24.611   3.768  0.00  0.00    +0.332 C 
BRANCH   7   8
ATOM      8  O   LYS A   2     -37.666  25.923   4.091  0.00  0.00    -0.479 OA
ATOM      9  H   LYS A   2     -38.093  26.164   4.890  0.00  0.00    +0.295 HD
ENDBRANCH   7   8
ENDBRANCH   5   7
BRANCH   5  10
ATOM     10  CB  LYS A   2     -35.643  24.381   5.402  0.00  0.00    +0.031 C 
BRANCH  10  11
ATOM     11  CG  LYS A   2     -34.460  25.347   5.548  0.00  0.00    +0.000 C 
BRANCH  11  12
ATOM     12  CD  LYS A   2     -33.804  25.706   4.211  0.00  0.00    -0.024 C 
BRANCH  12  13
ATOM     13  CE  LYS A   2     -33.868  27.202   3.896  0.00  0.00    -0.086 C 
BRANCH  13  14
ATOM     14  NZ  LYS A   2     -35.242  27.679   3.792  0.00  0.00    +0.380 N 
ATOM     15  HZ1 LYS A   2     -35.741  27.126   3.095  0.00  0.00    -0.089 HD
ATOM     16  HZ2 LYS A   2     -35.241  28.660   3.512  0.00  0.00    -0.089 HD
ATOM     17  HZ3 LYS A   2     -35.704  27.585   4.696  0.00  0.00    -0.089 HD
ENDBRANCH  13  14
ENDBRANCH  12  13
ENDBRANCH  11  12
ENDBRANCH  10  11
ENDBRANCH   5  10
ENDBRANCH   2   5
BRANCH   3  18
ATOM     18  CA  TYR A   1     -35.487  20.752   2.346  0.00  0.00    +0.017 C 
BRANCH  18  19
ATOM     19  N   TYR A   1     -36.875  20.395   2.638  0.00  0.00    +0.388 N 
ATOM     20  H1  TYR A   1     -36.947  20.069   3.602  0.00  0.00    -0.089 HD
ATOM     21  H2  TYR A   1     -37.176  19.655   2.005  0.00  0.00    -0.089 HD
ATOM     22  H3  TYR A   1     -37.470  21.214   2.512  0.00  0.00    -0.089 HD
ENDBRANCH  18  19
BRANCH  18  23
ATOM     23  CB  TYR A   1     -35.127  20.325   0.915  0.00  0.00    +0.013 C 
BRANCH  23  24
ATOM     24  CG  TYR A   1     -33.716  19.800   0.798  0.00  0.00    -0.024 C 
ATOM     25  CD1 TYR A   1     -33.373  18.584   1.389  0.00  0.00    -0.001 C 
ATOM     26  CD2 TYR A   1     -32.756  20.531   0.098  0.00  0.00    -0.001 C 
ATOM     27  CE1 TYR A   1     -32.070  18.098   1.280  0.00  0.00    +0.036 C 
ATOM     28  CE2 TYR A   1     -31.453  20.046  -0.010  0.00  0.00    +0.036 C 
ATOM     29  CZ  TYR A   1     -31.109  18.829   0.580  0.00  0.00    +0.134 C 
BRANCH  29  30
ATOM     30  OH  TYR A   1     -29.838  18.356   0.474  0.00  0.00    -0.506 OA
ATOM     31  HH  TYR A   1     -29.446  17.901   1.193  0.00  0.00    +0.292 HD
ENDBRANCH  29  30
ENDBRANCH  23  24
ENDBRANCH  18  23
ENDBRANCH   3  18
TORSDOF 13
ENDMDL
MODEL 3
REMARK VINA RESULT:      -5.8      1.932      2.434
REMARK  Name = 19786231
REMARK  13 active torsions:
REMARK  status: ('A' for Active; 'I' for Inactive)
REMARK    1  A    between atoms: N_2  and  CA_5
REMARK    2  A    between atoms: C_3  and  CA_18
REMARK    3  A    between atoms: CA_5  and  C_7
REMARK    4  A    between atoms: CA_5  and  CB_10
REMARK    5  A    between atoms: C_7  and  O_8
REMARK    6  A    between atoms: CB_10  and  CG_11
REMARK    7  A    between atoms: CG_11  and  CD_12
REMARK    8  A    between atoms: CD_12  and  CE_13
REMARK    9  A    between atoms: CE_13  and  NZ_14
REMARK   10  A    between atoms: CA_18  and  N_19
REMARK   11  A    between atoms: CA_18  and  CB_23
REMARK   12  A    between atoms: CB_23  and  CG_24
REMARK   13  A    between atoms: CZ_29  and  OH_30
REMARK                            x       y       z     vdW  Elec       q    Type
REMARK                         _______ _______ _______ _____ _____    ______ ____
ROOT
ATOM      1  O   TYR A   1     -34.734  22.418   1.656  0.00  0.00    -0.277 OA
ATOM      2  N   LYS A   2     -36.176  22.151   3.453  0.00  0.00    -0.298 N 
ATOM      3  C   TYR A   1     -35.449  21.704   2.356  0.00  0.00    +0.203 C 
ATOM      4  H   LYS A   2     -36.723  21.505   3.956  0.00  0.00    +0.150 HD
ENDROOT
BRANCH   2   5
ATOM      5  CA  LYS A   2     -36.155  23.527   3.879  0.00  0.00    +0.171 C 
BRANCH   5   7
ATOM      6  OXT LYS A   2     -38.445  23.528   3.046  0.00  0.00    -0.248 OA
ATOM      7  C   LYS A   2     -37.573  24.043   3.733  0.00  0.00    +0.332 C 
BRANCH   7   8
ATOM      8  O   LYS A   2     -37.766  25.197   4.424  0.00  0.00    -0.479 OA
ATOM      9  H   LYS A   2     -37.338  25.985   4.150  0.00  0.00    +0.295 HD
ENDBRANCH   7   8
ENDBRANCH   5   7
BRANCH   5  10
ATOM     10  CB  LYS A   2     -35.682  23.684   5.325  0.00  0.00    +0.031 C 
BRANCH  10  11
ATOM     11  CG  LYS A   2     -34.330  24.392   5.482  0.00  0.00    +0.000 C 
BRANCH  11  12
ATOM     12  CD  LYS A   2     -34.462  25.906   5.688  0.00  0.00    -0.024 C 
BRANCH  12  13
ATOM     13  CE  LYS A   2     -34.303  26.701   4.391  0.00  0.00    -0.086 C 
BRANCH  13  14
ATOM     14  NZ  LYS A   2     -35.562  27.297   3.959  0.00  0.00    +0.380 N 
ATOM     15  HZ1 LYS A   2     -35.665  28.218   4.384  0.00  0.00    -0.089 HD
ATOM     16  HZ2 LYS A   2     -36.337  26.700   4.248  0.00  0.00    -0.089 HD
ATOM     17  HZ3 LYS A   2     -35.563  27.389   2.943  0.00  0.00    -0.089 HD
ENDBRANCH  13  14
ENDBRANCH  12  13
ENDBRANCH  11  12
ENDBRANCH  10  11
ENDBRANCH   5  10
ENDBRANCH   2   5
BRANCH   3  18
ATOM     18  CA  TYR A   1     -35.608  20.206   2.117  0.00  0.00    +0.017 C 
BRANCH  18  19
ATOM     19  N   TYR A   1     -37.015  19.887   2.364  0.00  0.00    +0.388 N 
ATOM     20  H1  TYR A   1     -37.312  20.317   3.240  0.00  0.00    -0.089 HD
ATOM     21  H2  TYR A   1     -37.128  18.876   2.425  0.00  0.00    -0.089 HD
ATOM     22  H3  TYR A   1     -37.584  20.248   1.598  0.00  0.00    -0.089 HD
ENDBRANCH  18  19
BRANCH  18  23
ATOM     23  CB  TYR A   1     -35.235  19.844   0.672  0.00  0.00    +0.013 C 
BRANCH  23  24
ATOM     24  CG  TYR A   1     -34.144  18.804   0.591  0.00  0.00    -0.024 C 
ATOM     25  CD1 TYR A   1     -34.382  17.589  -0.052  0.00  0.00    -0.001 C 
ATOM     26  CD2 TYR A   1     -32.895  19.057   1.161  0.00  0.00    -0.001 C 
ATOM     27  CE1 TYR A   1     -33.374  16.629  -0.127  0.00  0.00    +0.036 C 
ATOM     28  CE2 TYR A   1     -31.887  18.097   1.086  0.00  0.00    +0.036 C 
ATOM     29  CZ  TYR A   1     -32.126  16.882   0.443  0.00  0.00    +0.134 C 
BRANCH  29  30
ATOM     30  OH  TYR A   1     -31.142  15.945   0.369  0.00  0.00    -0.506 OA
ATOM     31  HH  TYR A   1     -30.649  15.723   1.134  0.00  0.00    +0.292 HD
ENDBRANCH  29  30
ENDBRANCH  23  24
ENDBRANCH  18  23
ENDBRANCH   3  18
TORSDOF 13
ENDMDL
MODEL 4
REMARK VINA RESULT:      -5.7      2.551      3.317
REMARK  Name = 19786231
REMARK  13 active torsions:
REMARK  status: ('A' for Active; 'I' for Inactive)
REMARK    1  A    between atoms: N_2  and  CA_5
REMARK    2  A    between atoms: C_3  and  CA_18
REMARK    3  A    between atoms: CA_5  and  C_7
REMARK    4  A    between atoms: CA_5  and  CB_10
REMARK    5  A    between atoms: C_7  and  O_8
REMARK    6  A    between atoms: CB_10  and  CG_11
REMARK    7  A    between atoms: CG_11  and  CD_12
REMARK    8  A    between atoms: CD_12  and  CE_13
REMARK    9  A    between atoms: CE_13  and  NZ_14
REMARK   10  A    between atoms: CA_18  and  N_19
REMARK   11  A    between atoms: CA_18  and  CB_23
REMARK   12  A    between atoms: CB_23  and  CG_24
REMARK   13  A    between atoms: CZ_29  and  OH_30
REMARK                            x       y       z     vdW  Elec       q    Type
REMARK                         _______ _______ _______ _____ _____    ______ ____
ROOT
ATOM      1  O   TYR A   1     -34.895  23.033   1.467  0.00  0.00    -0.277 OA
ATOM      2  N   LYS A   2     -36.834  23.200   2.731  0.00  0.00    -0.298 N 
ATOM      3  C   TYR A   1     -35.855  22.507   2.029  0.00  0.00    +0.203 C 
ATOM      4  H   LYS A   2     -37.568  22.694   3.148  0.00  0.00    +0.150 HD
ENDROOT
BRANCH   2   5
ATOM      5  CA  LYS A   2     -36.811  24.634   2.867  0.00  0.00    +0.171 C 
BRANCH   5   7
ATOM      6  OXT LYS A   2     -39.139  24.281   3.498  0.00  0.00    -0.248 OA
ATOM      7  C   LYS A   2     -38.205  25.046   3.300  0.00  0.00    +0.332 C 
BRANCH   7   8
ATOM      8  O   LYS A   2     -38.325  26.396   3.399  0.00  0.00    -0.479 OA
ATOM      9  H   LYS A   2     -37.901  26.952   2.775  0.00  0.00    +0.295 HD
ENDBRANCH   7   8
ENDBRANCH   5   7
BRANCH   5  10
ATOM     10  CB  LYS A   2     -35.778  25.107   3.892  0.00  0.00    +0.031 C 
BRANCH  10  11
ATOM     11  CG  LYS A   2     -35.931  24.486   5.286  0.00  0.00    +0.000 C 
BRANCH  11  12
ATOM     12  CD  LYS A   2     -34.859  23.437   5.602  0.00  0.00    -0.024 C 
BRANCH  12  13
ATOM     13  CE  LYS A   2     -35.402  22.248   6.396  0.00  0.00    -0.086 C 
BRANCH  13  14
ATOM     14  NZ  LYS A   2     -35.283  20.997   5.654  0.00  0.00    +0.380 N 
ATOM     15  HZ1 LYS A   2     -35.343  21.189   4.654  0.00  0.00    -0.089 HD
ATOM     16  HZ2 LYS A   2     -36.038  20.368   5.926  0.00  0.00    -0.089 HD
ATOM     17  HZ3 LYS A   2     -34.385  20.562   5.864  0.00  0.00    -0.089 HD
ENDBRANCH  13  14
ENDBRANCH  12  13
ENDBRANCH  11  12
ENDBRANCH  10  11
ENDBRANCH   5  10
ENDBRANCH   2   5
BRANCH   3  18
ATOM     18  CA  TYR A   1     -36.077  20.999   2.045  0.00  0.00    +0.017 C 
BRANCH  18  19
ATOM     19  N   TYR A   1     -37.456  20.780   2.482  0.00  0.00    +0.388 N 
ATOM     20  H1  TYR A   1     -37.712  21.491   3.169  0.00  0.00    -0.089 HD
ATOM     21  H2  TYR A   1     -37.537  19.856   2.904  0.00  0.00    -0.089 HD
ATOM     22  H3  TYR A   1     -38.081  20.844   1.679  0.00  0.00    -0.089 HD
ENDBRANCH  18  19
BRANCH  18  23
ATOM     23  CB  TYR A   1     -35.873  20.404   0.643  0.00  0.00    +0.013 C 
BRANCH  23  24
ATOM     24  CG  TYR A   1     -34.842  19.302   0.619  0.00  0.00    -0.024 C 
ATOM     25  CD1 TYR A   1     -33.709  19.387   1.429  0.00  0.00    -0.001 C 
ATOM     26  CD2 TYR A   1     -35.020  18.197  -0.215  0.00  0.00    -0.001 C 
ATOM     27  CE1 TYR A   1     -32.757  18.369   1.407  0.00  0.00    +0.036 C 
ATOM     28  CE2 TYR A   1     -34.068  17.179  -0.237  0.00  0.00    +0.036 C 
ATOM     29  CZ  TYR A   1     -32.935  17.265   0.573  0.00  0.00    +0.134 C 
BRANCH  29  30
ATOM     30  OH  TYR A   1     -32.006  16.271   0.552  0.00  0.00    -0.506 OA
ATOM     31  HH  TYR A   1     -32.241  15.416   0.250  0.00  0.00    +0.292 HD
ENDBRANCH  29  30
ENDBRANCH  23  24
ENDBRANCH  18  23
ENDBRANCH   3  18
TORSDOF 13
ENDMDL
MODEL 5
REMARK VINA RESULT:      -5.5      2.796      7.998
REMARK  Name = 19786231
REMARK  13 active torsions:
REMARK  status: ('A' for Active; 'I' for Inactive)
REMARK    1  A    between atoms: N_2  and  CA_5
REMARK    2  A    between atoms: C_3  and  CA_18
REMARK    3  A    between atoms: CA_5  and  C_7
REMARK    4  A    between atoms: CA_5  and  CB_10
REMARK    5  A    between atoms: C_7  and  O_8
REMARK    6  A    between atoms: CB_10  and  CG_11
REMARK    7  A    between atoms: CG_11  and  CD_12
REMARK    8  A    between atoms: CD_12  and  CE_13
REMARK    9  A    between atoms: CE_13  and  NZ_14
REMARK   10  A    between atoms: CA_18  and  N_19
REMARK   11  A    between atoms: CA_18  and  CB_23
REMARK   12  A    between atoms: CB_23  and  CG_24
REMARK   13  A    between atoms: CZ_29  and  OH_30
REMARK                            x       y       z     vdW  Elec       q    Type
REMARK                         _______ _______ _______ _____ _____    ______ ____
ROOT
ATOM      1  O   TYR A   1     -34.513  21.328   0.390  0.00  0.00    -0.277 OA
ATOM      2  N   LYS A   2     -34.796  19.165   1.180  0.00  0.00    -0.298 N 
ATOM      3  C   TYR A   1     -35.038  20.533   1.168  0.00  0.00    +0.203 C 
ATOM      4  H   LYS A   2     -35.263  18.605   1.842  0.00  0.00    +0.150 HD
ENDROOT
BRANCH   2   5
ATOM      5  CA  LYS A   2     -33.884  18.539   0.258  0.00  0.00    +0.171 C 
BRANCH   5   7
ATOM      6  OXT LYS A   2     -32.076  17.653   1.631  0.00  0.00    -0.248 OA
ATOM      7  C   LYS A   2     -32.523  18.548   0.926  0.00  0.00    +0.332 C 
BRANCH   7   8
ATOM      8  O   LYS A   2     -31.853  19.707   0.695  0.00  0.00    -0.479 OA
ATOM      9  H   LYS A   2     -31.548  20.224   1.414  0.00  0.00    +0.295 HD
ENDBRANCH   7   8
ENDBRANCH   5   7
BRANCH   5  10
ATOM     10  CB  LYS A   2     -34.294  17.106  -0.087  0.00  0.00    +0.031 C 
BRANCH  10  11
ATOM     11  CG  LYS A   2     -33.794  16.608  -1.449  0.00  0.00    +0.000 C 
BRANCH  11  12
ATOM     12  CD  LYS A   2     -33.380  15.132  -1.439  0.00  0.00    -0.024 C 
BRANCH  12  13
ATOM     13  CE  LYS A   2     -31.895  14.930  -1.132  0.00  0.00    -0.086 C 
BRANCH  13  14
ATOM     14  NZ  LYS A   2     -31.652  14.761   0.296  0.00  0.00    +0.380 N 
ATOM     15  HZ1 LYS A   2     -31.805  13.785   0.553  0.00  0.00    -0.089 HD
ATOM     16  HZ2 LYS A   2     -32.290  15.356   0.823  0.00  0.00    -0.089 HD
ATOM     17  HZ3 LYS A   2     -30.689  15.021   0.510  0.00  0.00    -0.089 HD
ENDBRANCH  13  14
ENDBRANCH  12  13
ENDBRANCH  11  12
ENDBRANCH  10  11
ENDBRANCH   5  10
ENDBRANCH   2   5
BRANCH   3  18
ATOM     18  CA  TYR A   1     -36.060  20.958   2.218  0.00  0.00    +0.017 C 
BRANCH  18  19
ATOM     19  N   TYR A   1     -36.971  19.828   2.401  0.00  0.00    +0.388 N 
ATOM     20  H1  TYR A   1     -37.452  19.921   3.296  0.00  0.00    -0.089 HD
ATOM     21  H2  TYR A   1     -36.440  18.958   2.389  0.00  0.00    -0.089 HD
ATOM     22  H3  TYR A   1     -37.657  19.819   1.647  0.00  0.00    -0.089 HD
ENDBRANCH  18  19
BRANCH  18  23
ATOM     23  CB  TYR A   1     -35.366  21.291   3.548  0.00  0.00    +0.013 C 
BRANCH  23  24
ATOM     24  CG  TYR A   1     -35.675  22.686   4.037  0.00  0.00    -0.024 C 
ATOM     25  CD1 TYR A   1     -34.965  23.221   5.112  0.00  0.00    -0.001 C 
ATOM     26  CD2 TYR A   1     -36.670  23.439   3.414  0.00  0.00    -0.001 C 
ATOM     27  CE1 TYR A   1     -35.250  24.509   5.563  0.00  0.00    +0.036 C 
ATOM     28  CE2 TYR A   1     -36.954  24.727   3.865  0.00  0.00    +0.036 C 
ATOM     29  CZ  TYR A   1     -36.245  25.263   4.940  0.00  0.00    +0.134 C 
BRANCH  29  30
ATOM     30  OH  TYR A   1     -36.522  26.520   5.381  0.00  0.00    -0.506 OA
ATOM     31  HH  TYR A   1     -36.992  26.643   6.182  0.00  0.00    +0.292 HD
ENDBRANCH  29  30
ENDBRANCH  23  24
ENDBRANCH  18  23
ENDBRANCH   3  18
TORSDOF 13
ENDMDL
MODEL 6
REMARK VINA RESULT:      -5.5      2.799      7.791
REMARK  Name = 19786231
REMARK  13 active torsions:
REMARK  status: ('A' for Active; 'I' for Inactive)
REMARK    1  A    between atoms: N_2  and  CA_5
REMARK    2  A    between atoms: C_3  and  CA_18
REMARK    3  A    between atoms: CA_5  and  C_7
REMARK    4  A    between atoms: CA_5  and  CB_10
REMARK    5  A    between atoms: C_7  and  O_8
REMARK    6  A    between atoms: CB_10  and  CG_11
REMARK    7  A    between atoms: CG_11  and  CD_12
REMARK    8  A    between atoms: CD_12  and  CE_13
REMARK    9  A    between atoms: CE_13  and  NZ_14
REMARK   10  A    between atoms: CA_18  and  N_19
REMARK   11  A    between atoms: CA_18  and  CB_23
REMARK   12  A    between atoms: CB_23  and  CG_24
REMARK   13  A    between atoms: CZ_29  and  OH_30
REMARK                            x       y       z     vdW  Elec       q    Type
REMARK                         _______ _______ _______ _____ _____    ______ ____
ROOT
ATOM      1  O   TYR A   1     -34.540  21.287   0.320  0.00  0.00    -0.277 OA
ATOM      2  N   LYS A   2     -34.716  19.152   1.208  0.00  0.00    -0.298 N 
ATOM      3  C   TYR A   1     -35.020  20.506   1.139  0.00  0.00    +0.203 C 
ATOM      4  H   LYS A   2     -35.150  18.601   1.900  0.00  0.00    +0.150 HD
ENDROOT
BRANCH   2   5
ATOM      5  CA  LYS A   2     -33.786  18.526   0.303  0.00  0.00    +0.171 C 
BRANCH   5   7
ATOM      6  OXT LYS A   2     -31.961  17.826   1.759  0.00  0.00    -0.248 OA
ATOM      7  C   LYS A   2     -32.421  18.625   0.954  0.00  0.00    +0.332 C 
BRANCH   7   8
ATOM      8  O   LYS A   2     -31.761  19.752   0.578  0.00  0.00    -0.479 OA
ATOM      9  H   LYS A   2     -30.833  19.731   0.450  0.00  0.00    +0.295 HD
ENDBRANCH   7   8
ENDBRANCH   5   7
BRANCH   5  10
ATOM     10  CB  LYS A   2     -34.135  17.063   0.027  0.00  0.00    +0.031 C 
BRANCH  10  11
ATOM     11  CG  LYS A   2     -35.392  16.856  -0.829  0.00  0.00    +0.000 C 
BRANCH  11  12
ATOM     12  CD  LYS A   2     -36.296  15.731  -0.314  0.00  0.00    -0.024 C 
BRANCH  12  13
ATOM     13  CE  LYS A   2     -37.726  16.197  -0.032  0.00  0.00    -0.086 C 
BRANCH  13  14
ATOM     14  NZ  LYS A   2     -38.700  15.137  -0.264  0.00  0.00    +0.380 N 
ATOM     15  HZ1 LYS A   2     -39.067  14.811   0.630  0.00  0.00    -0.089 HD
ATOM     16  HZ2 LYS A   2     -38.250  14.362  -0.750  0.00  0.00    -0.089 HD
ATOM     17  HZ3 LYS A   2     -39.465  15.497  -0.835  0.00  0.00    -0.089 HD
ENDBRANCH  13  14
ENDBRANCH  12  13
ENDBRANCH  11  12
ENDBRANCH  10  11
ENDBRANCH   5  10
ENDBRANCH   2   5
BRANCH   3  18
ATOM     18  CA  TYR A   1     -36.049  20.931   2.182  0.00  0.00    +0.017 C 
BRANCH  18  19
ATOM     19  N   TYR A   1     -36.963  19.802   2.357  0.00  0.00    +0.388 N 
ATOM     20  H1  TYR A   1     -37.856  20.140   2.716  0.00  0.00    -0.089 HD
ATOM     21  H2  TYR A   1     -36.560  19.139   3.019  0.00  0.00    -0.089 HD
ATOM     22  H3  TYR A   1     -37.110  19.341   1.460  0.00  0.00    -0.089 HD
ENDBRANCH  18  19
BRANCH  18  23
ATOM     23  CB  TYR A   1     -35.364  21.262   3.516  0.00  0.00    +0.013 C 
BRANCH  23  24
ATOM     24  CG  TYR A   1     -35.685  22.652   4.010  0.00  0.00    -0.024 C 
ATOM     25  CD1 TYR A   1     -35.054  23.151   5.151  0.00  0.00    -0.001 C 
ATOM     26  CD2 TYR A   1     -36.612  23.439   3.327  0.00  0.00    -0.001 C 
ATOM     27  CE1 TYR A   1     -35.350  24.435   5.606  0.00  0.00    +0.036 C 
ATOM     28  CE2 TYR A   1     -36.908  24.723   3.783  0.00  0.00    +0.036 C 
ATOM     29  CZ  TYR A   1     -36.277  25.222   4.923  0.00  0.00    +0.134 C 
BRANCH  29  30
ATOM     30  OH  TYR A   1     -36.565  26.475   5.368  0.00  0.00    -0.506 OA
ATOM     31  HH  TYR A   1     -35.919  27.151   5.313  0.00  0.00    +0.292 HD
ENDBRANCH  29  30
ENDBRANCH  23  24
ENDBRANCH  18  23
ENDBRANCH   3  18
TORSDOF 13
ENDMDL
MODEL 7
REMARK VINA RESULT:      -5.5      4.661      7.499
REMARK  Name = 19786231
REMARK  13 active torsions:
REMARK  status: ('A' for Active; 'I' for Inactive)
REMARK    1  A    between atoms: N_2  and  CA_5
REMARK    2  A    between atoms: C_3  and  CA_18
REMARK    3  A    between atoms: CA_5  and  C_7
REMARK    4  A    between atoms: CA_5  and  CB_10
REMARK    5  A    between atoms: C_7  and  O_8
REMARK    6  A    between atoms: CB_10  and  CG_11
REMARK    7  A    between atoms: CG_11  and  CD_12
REMARK    8  A    between atoms: CD_12  and  CE_13
REMARK    9  A    between atoms: CE_13  and  NZ_14
REMARK   10  A    between atoms: CA_18  and  N_19
REMARK   11  A    between atoms: CA_18  and  CB_23
REMARK   12  A    between atoms: CB_23  and  CG_24
REMARK   13  A    between atoms: CZ_29  and  OH_30
REMARK                            x       y       z     vdW  Elec       q    Type
REMARK                         _______ _______ _______ _____ _____    ______ ____
ROOT
ATOM      1  O   TYR A   1     -32.186  26.836   3.499  0.00  0.00    -0.277 OA
ATOM      2  N   LYS A   2     -33.281  28.704   4.332  0.00  0.00    -0.298 N 
ATOM      3  C   TYR A   1     -33.213  27.388   3.890  0.00  0.00    +0.203 C 
ATOM      4  H   LYS A   2     -34.150  29.062   4.626  0.00  0.00    +0.150 HD
ENDROOT
BRANCH   2   5
ATOM      5  CA  LYS A   2     -32.124  29.561   4.373  0.00  0.00    +0.171 C 
BRANCH   5   7
ATOM      6  OXT LYS A   2     -31.503  30.326   2.145  0.00  0.00    -0.248 OA
ATOM      7  C   LYS A   2     -32.200  30.444   3.144  0.00  0.00    +0.332 C 
BRANCH   7   8
ATOM      8  O   LYS A   2     -33.114  31.439   3.290  0.00  0.00    -0.479 OA
ATOM      9  H   LYS A   2     -33.998  31.308   3.009  0.00  0.00    +0.295 HD
ENDBRANCH   7   8
ENDBRANCH   5   7
BRANCH   5  10
ATOM     10  CB  LYS A   2     -32.078  30.419   5.639  0.00  0.00    +0.031 C 
BRANCH  10  11
ATOM     11  CG  LYS A   2     -31.403  29.747   6.842  0.00  0.00    +0.000 C 
BRANCH  11  12
ATOM     12  CD  LYS A   2     -30.172  28.919   6.459  0.00  0.00    -0.024 C 
BRANCH  12  13
ATOM     13  CE  LYS A   2     -28.884  29.426   7.112  0.00  0.00    -0.086 C 
BRANCH  13  14
ATOM     14  NZ  LYS A   2     -28.222  28.386   7.892  0.00  0.00    +0.380 N 
ATOM     15  HZ1 LYS A   2     -28.483  28.480   8.874  0.00  0.00    -0.089 HD
ATOM     16  HZ2 LYS A   2     -27.211  28.483   7.797  0.00  0.00    -0.089 HD
ATOM     17  HZ3 LYS A   2     -28.509  27.470   7.549  0.00  0.00    -0.089 HD
ENDBRANCH  13  14
ENDBRANCH  12  13
ENDBRANCH  11  12
ENDBRANCH  10  11
ENDBRANCH   5  10
ENDBRANCH   2   5
BRANCH   3  18
ATOM     18  CA  TYR A   1     -34.559  26.674   3.963  0.00  0.00    +0.017 C 
BRANCH  18  19
ATOM     19  N   TYR A   1     -35.572  27.639   3.536  0.00  0.00    +0.388 N 
ATOM     20  H1  TYR A   1     -36.016  28.050   4.357  0.00  0.00    -0.089 HD
ATOM     21  H2  TYR A   1     -36.276  27.165   2.971  0.00  0.00    -0.089 HD
ATOM     22  H3  TYR A   1     -35.130  28.374   2.985  0.00  0.00    -0.089 HD
ENDBRANCH  18  19
BRANCH  18  23
ATOM     23  CB  TYR A   1     -34.576  25.452   3.032  0.00  0.00    +0.013 C 
BRANCH  23  24
ATOM     24  CG  TYR A   1     -34.837  24.159   3.767  0.00  0.00    -0.024 C 
ATOM     25  CD1 TYR A   1     -34.616  24.081   5.143  0.00  0.00    -0.001 C 
ATOM     26  CD2 TYR A   1     -35.299  23.041   3.072  0.00  0.00    -0.001 C 
ATOM     27  CE1 TYR A   1     -34.857  22.887   5.822  0.00  0.00    +0.036 C 
ATOM     28  CE2 TYR A   1     -35.540  21.848   3.751  0.00  0.00    +0.036 C 
ATOM     29  CZ  TYR A   1     -35.319  21.770   5.126  0.00  0.00    +0.134 C 
BRANCH  29  30
ATOM     30  OH  TYR A   1     -35.555  20.605   5.789  0.00  0.00    -0.506 OA
ATOM     31  HH  TYR A   1     -34.850  20.012   5.960  0.00  0.00    +0.292 HD
ENDBRANCH  29  30
ENDBRANCH  23  24
ENDBRANCH  18  23
ENDBRANCH   3  18
TORSDOF 13
ENDMDL
MODEL 8
REMARK VINA RESULT:      -5.4      2.405      2.996
REMARK  Name = 19786231
REMARK  13 active torsions:
REMARK  status: ('A' for Active; 'I' for Inactive)
REMARK    1  A    between atoms: N_2  and  CA_5
REMARK    2  A    between atoms: C_3  and  CA_18
REMARK    3  A    between atoms: CA_5  and  C_7
REMARK    4  A    between atoms: CA_5  and  CB_10
REMARK    5  A    between atoms: C_7  and  O_8
REMARK    6  A    between atoms: CB_10  and  CG_11
REMARK    7  A    between atoms: CG_11  and  CD_12
REMARK    8  A    between atoms: CD_12  and  CE_13
REMARK    9  A    between atoms: CE_13  and  NZ_14
REMARK   10  A    between atoms: CA_18  and  N_19
REMARK   11  A    between atoms: CA_18  and  CB_23
REMARK   12  A    between atoms: CB_23  and  CG_24
REMARK   13  A    between atoms: CZ_29  and  OH_30
REMARK                            x       y       z     vdW  Elec       q    Type
REMARK                         _______ _______ _______ _____ _____    ______ ____
ROOT
ATOM      1  O   TYR A   1     -35.152  20.969   4.746  0.00  0.00    -0.277 OA
ATOM      2  N   LYS A   2     -35.692  22.729   3.334  0.00  0.00    -0.298 N 
ATOM      3  C   TYR A   1     -35.501  21.388   3.643  0.00  0.00    +0.203 C 
ATOM      4  H   LYS A   2     -35.973  22.972   2.422  0.00  0.00    +0.150 HD
ENDROOT
BRANCH   2   5
ATOM      5  CA  LYS A   2     -35.494  23.776   4.303  0.00  0.00    +0.171 C 
BRANCH   5   7
ATOM      6  OXT LYS A   2     -33.442  25.053   4.618  0.00  0.00    -0.248 OA
ATOM      7  C   LYS A   2     -34.257  24.537   3.865  0.00  0.00    +0.332 C 
BRANCH   7   8
ATOM      8  O   LYS A   2     -34.173  24.632   2.512  0.00  0.00    -0.479 OA
ATOM      9  H   LYS A   2     -33.532  25.193   2.120  0.00  0.00    +0.295 HD
ENDBRANCH   7   8
ENDBRANCH   5   7
BRANCH   5  10
ATOM     10  CB  LYS A   2     -36.692  24.723   4.394  0.00  0.00    +0.031 C 
BRANCH  10  11
ATOM     11  CG  LYS A   2     -37.795  24.457   3.362  0.00  0.00    +0.000 C 
BRANCH  11  12
ATOM     12  CD  LYS A   2     -38.593  25.713   2.992  0.00  0.00    -0.024 C 
BRANCH  12  13
ATOM     13  CE  LYS A   2     -40.094  25.450   2.859  0.00  0.00    -0.086 C 
BRANCH  13  14
ATOM     14  NZ  LYS A   2     -40.869  26.208   3.833  0.00  0.00    +0.380 N 
ATOM     15  HZ1 LYS A   2     -40.688  25.844   4.769  0.00  0.00    -0.089 HD
ATOM     16  HZ2 LYS A   2     -41.863  26.120   3.620  0.00  0.00    -0.089 HD
ATOM     17  HZ3 LYS A   2     -40.599  27.191   3.792  0.00  0.00    -0.089 HD
ENDBRANCH  13  14
ENDBRANCH  12  13
ENDBRANCH  11  12
ENDBRANCH  10  11
ENDBRANCH   5  10
ENDBRANCH   2   5
BRANCH   3  18
ATOM     18  CA  TYR A   1     -35.798  20.466   2.466  0.00  0.00    +0.017 C 
BRANCH  18  19
ATOM     19  N   TYR A   1     -37.246  20.499   2.258  0.00  0.00    +0.388 N 
ATOM     20  H1  TYR A   1     -37.668  19.669   2.676  0.00  0.00    -0.089 HD
ATOM     21  H2  TYR A   1     -37.446  20.515   1.259  0.00  0.00    -0.089 HD
ATOM     22  H3  TYR A   1     -37.632  21.334   2.697  0.00  0.00    -0.089 HD
ENDBRANCH  18  19
BRANCH  18  23
ATOM     23  CB  TYR A   1     -35.077  20.952   1.199  0.00  0.00    +0.013 C 
BRANCH  23  24
ATOM     24  CG  TYR A   1     -33.774  20.230   0.952  0.00  0.00    -0.024 C 
ATOM     25  CD1 TYR A   1     -33.560  18.968   1.506  0.00  0.00    -0.001 C 
ATOM     26  CD2 TYR A   1     -32.785  20.825   0.169  0.00  0.00    -0.001 C 
ATOM     27  CE1 TYR A   1     -32.357  18.301   1.278  0.00  0.00    +0.036 C 
ATOM     28  CE2 TYR A   1     -31.582  20.158  -0.060  0.00  0.00    +0.036 C 
ATOM     29  CZ  TYR A   1     -31.367  18.896   0.495  0.00  0.00    +0.134 C 
BRANCH  29  30
ATOM     30  OH  TYR A   1     -30.193  18.245   0.271  0.00  0.00    -0.506 OA
ATOM     31  HH  TYR A   1     -29.774  18.309  -0.564  0.00  0.00    +0.292 HD
ENDBRANCH  29  30
ENDBRANCH  23  24
ENDBRANCH  18  23
ENDBRANCH   3  18
TORSDOF 13
ENDMDL
MODEL 9
REMARK VINA RESULT:      -5.2      4.353      7.062
REMARK  Name = 19786231
REMARK  13 active torsions:
REMARK  status: ('A' for Active; 'I' for Inactive)
REMARK    1  A    between atoms: N_2  and  CA_5
REMARK    2  A    between atoms: C_3  and  CA_18
REMARK    3  A    between atoms: CA_5  and  C_7
REMARK    4  A    between atoms: CA_5  and  CB_10
REMARK    5  A    between atoms: C_7  and  O_8
REMARK    6  A    between atoms: CB_10  and  CG_11
REMARK    7  A    between atoms: CG_11  and  CD_12
REMARK    8  A    between atoms: CD_12  and  CE_13
REMARK    9  A    between atoms: CE_13  and  NZ_14
REMARK   10  A    between atoms: CA_18  and  N_19
REMARK   11  A    between atoms: CA_18  and  CB_23
REMARK   12  A    between atoms: CB_23  and  CG_24
REMARK   13  A    between atoms: CZ_29  and  OH_30
REMARK                            x       y       z     vdW  Elec       q    Type
REMARK                         _______ _______ _______ _____ _____    ______ ____
ROOT
ATOM      1  O   TYR A   1     -32.396  27.203   3.334  0.00  0.00    -0.277 OA
ATOM      2  N   LYS A   2     -34.555  27.916   3.796  0.00  0.00    -0.298 N 
ATOM      3  C   TYR A   1     -33.404  27.175   4.038  0.00  0.00    +0.203 C 
ATOM      4  H   LYS A   2     -35.315  27.829   4.416  0.00  0.00    +0.150 HD
ENDROOT
BRANCH   2   5
ATOM      5  CA  LYS A   2     -34.672  28.807   2.671  0.00  0.00    +0.171 C 
BRANCH   5   7
ATOM      6  OXT LYS A   2     -36.633  29.297   1.308  0.00  0.00    -0.248 OA
ATOM      7  C   LYS A   2     -36.025  28.531   2.043  0.00  0.00    +0.332 C 
BRANCH   7   8
ATOM      8  O   LYS A   2     -36.528  27.330   2.433  0.00  0.00    -0.479 OA
ATOM      9  H   LYS A   2     -36.002  26.744   2.941  0.00  0.00    +0.295 HD
ENDBRANCH   7   8
ENDBRANCH   5   7
BRANCH   5  10
ATOM     10  CB  LYS A   2     -34.569  30.278   3.077  0.00  0.00    +0.031 C 
BRANCH  10  11
ATOM     11  CG  LYS A   2     -33.135  30.817   3.167  0.00  0.00    +0.000 C 
BRANCH  11  12
ATOM     12  CD  LYS A   2     -32.551  30.747   4.583  0.00  0.00    -0.024 C 
BRANCH  12  13
ATOM     13  CE  LYS A   2     -31.022  30.694   4.596  0.00  0.00    -0.086 C 
BRANCH  13  14
ATOM     14  NZ  LYS A   2     -30.514  29.467   3.995  0.00  0.00    +0.380 N 
ATOM     15  HZ1 LYS A   2     -29.656  29.186   4.471  0.00  0.00    -0.089 HD
ATOM     16  HZ2 LYS A   2     -30.318  29.628   3.007  0.00  0.00    -0.089 HD
ATOM     17  HZ3 LYS A   2     -31.212  28.729   4.087  0.00  0.00    -0.089 HD
ENDBRANCH  13  14
ENDBRANCH  12  13
ENDBRANCH  11  12
ENDBRANCH  10  11
ENDBRANCH   5  10
ENDBRANCH   2   5
BRANCH   3  18
ATOM     18  CA  TYR A   1     -33.507  26.326   5.300  0.00  0.00    +0.017 C 
BRANCH  18  19
ATOM     19  N   TYR A   1     -33.116  27.184   6.418  0.00  0.00    +0.388 N 
ATOM     20  H1  TYR A   1     -32.140  27.008   6.658  0.00  0.00    -0.089 HD
ATOM     21  H2  TYR A   1     -33.706  26.982   7.225  0.00  0.00    -0.089 HD
ATOM     22  H3  TYR A   1     -33.228  28.162   6.151  0.00  0.00    -0.089 HD
ENDBRANCH  18  19
BRANCH  18  23
ATOM     23  CB  TYR A   1     -34.945  25.825   5.503  0.00  0.00    +0.013 C 
BRANCH  23  24
ATOM     24  CG  TYR A   1     -35.147  24.410   5.017  0.00  0.00    -0.024 C 
ATOM     25  CD1 TYR A   1     -35.290  24.155   3.653  0.00  0.00    -0.001 C 
ATOM     26  CD2 TYR A   1     -35.190  23.357   5.931  0.00  0.00    -0.001 C 
ATOM     27  CE1 TYR A   1     -35.476  22.848   3.203  0.00  0.00    +0.036 C 
ATOM     28  CE2 TYR A   1     -35.376  22.050   5.481  0.00  0.00    +0.036 C 
ATOM     29  CZ  TYR A   1     -35.520  21.795   4.117  0.00  0.00    +0.134 C 
BRANCH  29  30
ATOM     30  OH  TYR A   1     -35.701  20.520   3.678  0.00  0.00    -0.506 OA
ATOM     31  HH  TYR A   1     -36.561  20.150   3.656  0.00  0.00    +0.292 HD
ENDBRANCH  29  30
ENDBRANCH  23  24
ENDBRANCH  18  23
ENDBRANCH   3  18
TORSDOF 13
ENDMDL
