MODEL 1
REMARK VINA RESULT:      -5.9      0.000      0.000
REMARK  Name = 537344
REMARK  11 active torsions:
REMARK  status: ('A' for Active; 'I' for Inactive)
REMARK    1  A    between atoms: C_6  and  O_12
REMARK    2  A    between atoms: C_8  and  O_19
REMARK    3  A    between atoms: C_10  and  C_26
REMARK    4  A    between atoms: O_12  and  C_14
REMARK    5  A    between atoms: C_14  and  C_15
REMARK    6  A    between atoms: C_15  and  C_16
REMARK    7  A    between atoms: O_19  and  C_21
REMARK    8  A    between atoms: C_21  and  C_22
REMARK    9  A    between atoms: C_22  and  C_23
REMARK   10  A    between atoms: C_26  and  O_27
REMARK   11  A    between atoms: O_27  and  C_29
REMARK                            x       y       z     vdW  Elec       q    Type
REMARK                         _______ _______ _______ _____ _____    ______ ____
ROOT
ATOM      1  O   UNL     1     -35.296  20.526   3.056  0.00  0.00    -0.349 OA
ATOM      2  O   UNL     1     -38.145  24.220   3.749  0.00  0.00    -0.440 OA
ATOM      3  C   UNL     1     -35.729  21.649   2.264  0.00  0.00    +0.171 C 
ATOM      4  C   UNL     1     -36.278  22.785   3.089  0.00  0.00    +0.138 C 
ATOM      5  C   UNL     1     -36.360  20.280   2.136  0.00  0.00    +0.174 C 
ATOM      6  C   UNL     1     -34.646  22.195   1.359  0.00  0.00    +0.218 C 
ATOM      7  C   UNL     1     -35.606  24.006   2.504  0.00  0.00    -0.011 C 
ATOM      8  C   UNL     1     -37.788  23.017   3.035  0.00  0.00    +0.349 C 
ATOM      9  C   UNL     1     -34.681  23.685   1.588  0.00  0.00    +0.015 C 
ATOM     10  C   UNL     1     -36.110  25.282   2.942  0.00  0.00    +0.055 C 
ATOM     11  C   UNL     1     -37.309  25.299   3.552  0.00  0.00    +0.175 C 
ENDROOT
BRANCH   6  12
ATOM     12  O   UNL     1     -34.941  21.906  -0.001  0.00  0.00    -0.445 OA
BRANCH  12  14
ATOM     13  O   UNL     1     -34.353  20.435  -1.677  0.00  0.00    -0.250 OA
ATOM     14  C   UNL     1     -34.129  20.982  -0.607  0.00  0.00    +0.317 C 
BRANCH  14  15
ATOM     15  C   UNL     1     -32.928  20.715   0.275  0.00  0.00    +0.110 C 
BRANCH  15  16
ATOM     16  C   UNL     1     -32.442  19.259   0.210  0.00  0.00    +0.011 C 
ATOM     17  C   UNL     1     -32.950  18.483   1.426  0.00  0.00    +0.001 C 
ATOM     18  C   UNL     1     -30.914  19.181   0.147  0.00  0.00    +0.001 C 
ENDBRANCH  15  16
ENDBRANCH  14  15
ENDBRANCH  12  14
ENDBRANCH   6  12
BRANCH   8  19
ATOM     19  O   UNL     1     -38.316  23.018   1.709  0.00  0.00    -0.413 OA
BRANCH  19  21
ATOM     20  O   UNL     1     -40.154  21.676   2.085  0.00  0.00    -0.250 OA
ATOM     21  C   UNL     1     -39.636  22.670   1.597  0.00  0.00    +0.319 C 
BRANCH  21  22
ATOM     22  C   UNL     1     -40.348  23.695   0.740  0.00  0.00    +0.110 C 
BRANCH  22  23
ATOM     23  C   UNL     1     -40.968  24.839   1.557  0.00  0.00    +0.011 C 
ATOM     24  C   UNL     1     -42.432  25.036   1.156  0.00  0.00    +0.001 C 
ATOM     25  C   UNL     1     -40.198  26.147   1.360  0.00  0.00    +0.001 C 
ENDBRANCH  22  23
ENDBRANCH  21  22
ENDBRANCH  19  21
ENDBRANCH   8  19
BRANCH  10  26
ATOM     26  C   UNL     1     -35.291  26.515   2.726  0.00  0.00    +0.238 C 
BRANCH  26  27
ATOM     27  O   UNL     1     -34.945  27.088   3.975  0.00  0.00    -0.443 OA
BRANCH  27  29
ATOM     28  O   UNL     1     -32.702  26.545   4.069  0.00  0.00    -0.250 OA
ATOM     29  C   UNL     1     -33.816  26.591   4.571  0.00  0.00    +0.318 C 
ATOM     30  C   UNL     1     -34.135  26.103   5.952  0.00  0.00    +0.121 C 
ENDBRANCH  27  29
ENDBRANCH  26  27
ENDBRANCH  10  26
TORSDOF 11
ENDMDL
MODEL 2
REMARK VINA RESULT:      -5.8      2.027      6.195
REMARK  Name = 537344
REMARK  11 active torsions:
REMARK  status: ('A' for Active; 'I' for Inactive)
REMARK    1  A    between atoms: C_6  and  O_12
REMARK    2  A    between atoms: C_8  and  O_19
REMARK    3  A    between atoms: C_10  and  C_26
REMARK    4  A    between atoms: O_12  and  C_14
REMARK    5  A    between atoms: C_14  and  C_15
REMARK    6  A    between atoms: C_15  and  C_16
REMARK    7  A    between atoms: O_19  and  C_21
REMARK    8  A    between atoms: C_21  and  C_22
REMARK    9  A    between atoms: C_22  and  C_23
REMARK   10  A    between atoms: C_26  and  O_27
REMARK   11  A    between atoms: O_27  and  C_29
REMARK                            x       y       z     vdW  Elec       q    Type
REMARK                         _______ _______ _______ _____ _____    ______ ____
ROOT
ATOM      1  O   UNL     1     -35.949  22.462   6.292  0.00  0.00    -0.349 OA
ATOM      2  O   UNL     1     -37.535  22.312   1.853  0.00  0.00    -0.440 OA
ATOM      3  C   UNL     1     -35.676  23.193   5.081  0.00  0.00    +0.171 C 
ATOM      4  C   UNL     1     -36.767  23.067   4.048  0.00  0.00    +0.138 C 
ATOM      5  C   UNL     1     -34.792  22.062   5.558  0.00  0.00    +0.174 C 
ATOM      6  C   UNL     1     -35.410  24.664   5.318  0.00  0.00    +0.218 C 
ATOM      7  C   UNL     1     -36.983  24.489   3.584  0.00  0.00    -0.011 C 
ATOM      8  C   UNL     1     -36.462  22.218   2.814  0.00  0.00    +0.349 C 
ATOM      9  C   UNL     1     -36.275  25.371   4.305  0.00  0.00    +0.015 C 
ATOM     10  C   UNL     1     -37.817  24.661   2.422  0.00  0.00    +0.055 C 
ATOM     11  C   UNL     1     -38.058  23.574   1.666  0.00  0.00    +0.175 C 
ENDROOT
BRANCH   6  12
ATOM     12  O   UNL     1     -34.042  24.967   5.083  0.00  0.00    -0.445 OA
BRANCH  12  14
ATOM     13  O   UNL     1     -33.580  26.898   6.256  0.00  0.00    -0.250 OA
ATOM     14  C   UNL     1     -33.692  26.288   5.203  0.00  0.00    +0.317 C 
BRANCH  14  15
ATOM     15  C   UNL     1     -33.502  26.884   3.824  0.00  0.00    +0.110 C 
BRANCH  15  16
ATOM     16  C   UNL     1     -32.926  25.885   2.808  0.00  0.00    +0.011 C 
ATOM     17  C   UNL     1     -31.550  26.355   2.335  0.00  0.00    +0.001 C 
ATOM     18  C   UNL     1     -33.856  25.713   1.605  0.00  0.00    +0.001 C 
ENDBRANCH  15  16
ENDBRANCH  14  15
ENDBRANCH  12  14
ENDBRANCH   6  12
BRANCH   8  19
ATOM     19  O   UNL     1     -35.198  22.512   2.221  0.00  0.00    -0.413 OA
BRANCH  19  21
ATOM     20  O   UNL     1     -34.623  22.045   0.036  0.00  0.00    -0.250 OA
ATOM     21  C   UNL     1     -34.822  21.693   1.190  0.00  0.00    +0.319 C 
BRANCH  21  22
ATOM     22  C   UNL     1     -34.726  20.269   1.697  0.00  0.00    +0.110 C 
BRANCH  22  23
ATOM     23  C   UNL     1     -33.984  19.333   0.730  0.00  0.00    +0.011 C 
ATOM     24  C   UNL     1     -34.983  18.425   0.010  0.00  0.00    +0.001 C 
ATOM     25  C   UNL     1     -32.946  18.480   1.464  0.00  0.00    +0.001 C 
ENDBRANCH  22  23
ENDBRANCH  21  22
ENDBRANCH  19  21
ENDBRANCH   8  19
BRANCH  10  26
ATOM     26  C   UNL     1     -38.390  26.007   2.114  0.00  0.00    +0.238 C 
BRANCH  26  27
ATOM     27  O   UNL     1     -39.383  26.338   3.069  0.00  0.00    -0.443 OA
BRANCH  27  29
ATOM     28  O   UNL     1     -41.047  25.735   1.584  0.00  0.00    -0.250 OA
ATOM     29  C   UNL     1     -40.682  26.185   2.661  0.00  0.00    +0.318 C 
ATOM     30  C   UNL     1     -41.617  26.653   3.736  0.00  0.00    +0.121 C 
ENDBRANCH  27  29
ENDBRANCH  26  27
ENDBRANCH  10  26
TORSDOF 11
ENDMDL
MODEL 3
REMARK VINA RESULT:      -5.7      4.256      8.316
REMARK  Name = 537344
REMARK  11 active torsions:
REMARK  status: ('A' for Active; 'I' for Inactive)
REMARK    1  A    between atoms: C_6  and  O_12
REMARK    2  A    between atoms: C_8  and  O_19
REMARK    3  A    between atoms: C_10  and  C_26
REMARK    4  A    between atoms: O_12  and  C_14
REMARK    5  A    between atoms: C_14  and  C_15
REMARK    6  A    between atoms: C_15  and  C_16
REMARK    7  A    between atoms: O_19  and  C_21
REMARK    8  A    between atoms: C_21  and  C_22
REMARK    9  A    between atoms: C_22  and  C_23
REMARK   10  A    between atoms: C_26  and  O_27
REMARK   11  A    between atoms: O_27  and  C_29
REMARK                            x       y       z     vdW  Elec       q    Type
REMARK                         _______ _______ _______ _____ _____    ______ ____
ROOT
ATOM      1  O   UNL     1     -31.210  27.951   2.867  0.00  0.00    -0.349 OA
ATOM      2  O   UNL     1     -35.722  26.716   2.265  0.00  0.00    -0.440 OA
ATOM      3  C   UNL     1     -32.423  28.096   3.631  0.00  0.00    +0.171 C 
ATOM      4  C   UNL     1     -33.508  27.136   3.216  0.00  0.00    +0.138 C 
ATOM      5  C   UNL     1     -31.872  29.213   2.771  0.00  0.00    +0.174 C 
ATOM      6  C   UNL     1     -32.209  27.960   5.123  0.00  0.00    +0.218 C 
ATOM      7  C   UNL     1     -34.019  26.588   4.529  0.00  0.00    -0.011 C 
ATOM      8  C   UNL     1     -34.703  27.720   2.462  0.00  0.00    +0.349 C 
ATOM      9  C   UNL     1     -33.284  27.002   5.571  0.00  0.00    +0.015 C 
ATOM     10  C   UNL     1     -35.227  25.806   4.467  0.00  0.00    +0.055 C 
ATOM     11  C   UNL     1     -35.967  25.897   3.347  0.00  0.00    +0.175 C 
ENDROOT
BRANCH   6  12
ATOM     12  O   UNL     1     -32.379  29.216   5.767  0.00  0.00    -0.445 OA
BRANCH  12  14
ATOM     13  O   UNL     1     -31.732  29.716   7.923  0.00  0.00    -0.250 OA
ATOM     14  C   UNL     1     -31.467  29.515   6.746  0.00  0.00    +0.317 C 
BRANCH  14  15
ATOM     15  C   UNL     1     -30.084  29.596   6.137  0.00  0.00    +0.110 C 
BRANCH  15  16
ATOM     16  C   UNL     1     -29.057  28.702   6.849  0.00  0.00    +0.011 C 
ATOM     17  C   UNL     1     -28.076  29.564   7.644  0.00  0.00    +0.001 C 
ATOM     18  C   UNL     1     -28.289  27.829   5.852  0.00  0.00    +0.001 C 
ENDBRANCH  15  16
ENDBRANCH  14  15
ENDBRANCH  12  14
ENDBRANCH   6  12
BRANCH   8  19
ATOM     19  O   UNL     1     -35.236  28.897   3.067  0.00  0.00    -0.413 OA
BRANCH  19  21
ATOM     20  O   UNL     1     -36.084  29.790   1.117  0.00  0.00    -0.250 OA
ATOM     21  C   UNL     1     -35.545  29.917   2.207  0.00  0.00    +0.319 C 
BRANCH  21  22
ATOM     22  C   UNL     1     -35.079  31.228   2.803  0.00  0.00    +0.110 C 
BRANCH  22  23
ATOM     23  C   UNL     1     -34.341  32.122   1.795  0.00  0.00    +0.011 C 
ATOM     24  C   UNL     1     -33.104  32.740   2.449  0.00  0.00    +0.001 C 
ATOM     25  C   UNL     1     -35.251  33.230   1.259  0.00  0.00    +0.001 C 
ENDBRANCH  22  23
ENDBRANCH  21  22
ENDBRANCH  19  21
ENDBRANCH   8  19
BRANCH  10  26
ATOM     26  C   UNL     1     -35.598  24.924   5.617  0.00  0.00    +0.238 C 
BRANCH  26  27
ATOM     27  O   UNL     1     -36.369  23.830   5.154  0.00  0.00    -0.443 OA
BRANCH  27  29
ATOM     28  O   UNL     1     -35.444  22.125   3.898  0.00  0.00    -0.250 OA
ATOM     29  C   UNL     1     -35.692  22.652   4.974  0.00  0.00    +0.318 C 
ATOM     30  C   UNL     1     -35.287  22.084   6.301  0.00  0.00    +0.121 C 
ENDBRANCH  27  29
ENDBRANCH  26  27
ENDBRANCH  10  26
TORSDOF 11
ENDMDL
MODEL 4
REMARK VINA RESULT:      -5.6      1.999      5.270
REMARK  Name = 537344
REMARK  11 active torsions:
REMARK  status: ('A' for Active; 'I' for Inactive)
REMARK    1  A    between atoms: C_6  and  O_12
REMARK    2  A    between atoms: C_8  and  O_19
REMARK    3  A    between atoms: C_10  and  C_26
REMARK    4  A    between atoms: O_12  and  C_14
REMARK    5  A    between atoms: C_14  and  C_15
REMARK    6  A    between atoms: C_15  and  C_16
REMARK    7  A    between atoms: O_19  and  C_21
REMARK    8  A    between atoms: C_21  and  C_22
REMARK    9  A    between atoms: C_22  and  C_23
REMARK   10  A    between atoms: C_26  and  O_27
REMARK   11  A    between atoms: O_27  and  C_29
REMARK                            x       y       z     vdW  Elec       q    Type
REMARK                         _______ _______ _______ _____ _____    ______ ____
ROOT
ATOM      1  O   UNL     1     -33.590  26.475  -0.346  0.00  0.00    -0.349 OA
ATOM      2  O   UNL     1     -36.820  26.618   3.089  0.00  0.00    -0.440 OA
ATOM      3  C   UNL     1     -34.179  25.510   0.548  0.00  0.00    +0.171 C 
ATOM      4  C   UNL     1     -35.485  25.969   1.145  0.00  0.00    +0.138 C 
ATOM      5  C   UNL     1     -32.829  26.140   0.816  0.00  0.00    +0.174 C 
ATOM      6  C   UNL     1     -34.396  24.157  -0.093  0.00  0.00    +0.218 C 
ATOM      7  C   UNL     1     -36.392  24.771   0.980  0.00  0.00    -0.011 C 
ATOM      8  C   UNL     1     -35.479  26.345   2.626  0.00  0.00    +0.349 C 
ATOM      9  C   UNL     1     -35.815  23.793   0.267  0.00  0.00    +0.015 C 
ATOM     10  C   UNL     1     -37.655  24.828   1.669  0.00  0.00    +0.055 C 
ATOM     11  C   UNL     1     -37.792  25.752   2.637  0.00  0.00    +0.175 C 
ENDROOT
BRANCH   6  12
ATOM     12  O   UNL     1     -33.497  23.199   0.451  0.00  0.00    -0.445 OA
BRANCH  12  14
ATOM     13  O   UNL     1     -32.492  22.751  -1.575  0.00  0.00    -0.250 OA
ATOM     14  C   UNL     1     -32.846  22.405  -0.458  0.00  0.00    +0.317 C 
BRANCH  14  15
ATOM     15  C   UNL     1     -32.669  21.018   0.124  0.00  0.00    +0.110 C 
BRANCH  15  16
ATOM     16  C   UNL     1     -33.972  20.425   0.681  0.00  0.00    +0.011 C 
ATOM     17  C   UNL     1     -33.668  19.165   1.492  0.00  0.00    +0.001 C 
ATOM     18  C   UNL     1     -34.960  20.094  -0.440  0.00  0.00    +0.001 C 
ENDBRANCH  15  16
ENDBRANCH  14  15
ENDBRANCH  12  14
ENDBRANCH   6  12
BRANCH   8  19
ATOM     19  O   UNL     1     -34.824  25.385   3.454  0.00  0.00    -0.413 OA
BRANCH  19  21
ATOM     20  O   UNL     1     -34.560  26.481   5.466  0.00  0.00    -0.250 OA
ATOM     21  C   UNL     1     -34.994  25.550   4.802  0.00  0.00    +0.319 C 
BRANCH  21  22
ATOM     22  C   UNL     1     -35.776  24.376   5.352  0.00  0.00    +0.110 C 
BRANCH  22  23
ATOM     23  C   UNL     1     -35.107  23.021   5.073  0.00  0.00    +0.011 C 
ATOM     24  C   UNL     1     -35.768  22.347   3.869  0.00  0.00    +0.001 C 
ATOM     25  C   UNL     1     -35.186  22.098   6.292  0.00  0.00    +0.001 C 
ENDBRANCH  22  23
ENDBRANCH  21  22
ENDBRANCH  19  21
ENDBRANCH   8  19
BRANCH  10  26
ATOM     26  C   UNL     1     -38.755  23.892   1.278  0.00  0.00    +0.238 C 
BRANCH  26  27
ATOM     27  O   UNL     1     -38.993  22.966   2.324  0.00  0.00    -0.443 OA
BRANCH  27  29
ATOM     28  O   UNL     1     -40.375  21.126   2.124  0.00  0.00    -0.250 OA
ATOM     29  C   UNL     1     -39.306  21.691   1.936  0.00  0.00    +0.318 C 
ATOM     30  C   UNL     1     -38.139  21.065   1.235  0.00  0.00    +0.121 C 
ENDBRANCH  27  29
ENDBRANCH  26  27
ENDBRANCH  10  26
TORSDOF 11
ENDMDL
MODEL 5
REMARK VINA RESULT:      -5.5      1.120      1.876
REMARK  Name = 537344
REMARK  11 active torsions:
REMARK  status: ('A' for Active; 'I' for Inactive)
REMARK    1  A    between atoms: C_6  and  O_12
REMARK    2  A    between atoms: C_8  and  O_19
REMARK    3  A    between atoms: C_10  and  C_26
REMARK    4  A    between atoms: O_12  and  C_14
REMARK    5  A    between atoms: C_14  and  C_15
REMARK    6  A    between atoms: C_15  and  C_16
REMARK    7  A    between atoms: O_19  and  C_21
REMARK    8  A    between atoms: C_21  and  C_22
REMARK    9  A    between atoms: C_22  and  C_23
REMARK   10  A    between atoms: C_26  and  O_27
REMARK   11  A    between atoms: O_27  and  C_29
REMARK                            x       y       z     vdW  Elec       q    Type
REMARK                         _______ _______ _______ _____ _____    ______ ____
ROOT
ATOM      1  O   UNL     1     -35.342  20.501   2.985  0.00  0.00    -0.349 OA
ATOM      2  O   UNL     1     -38.220  24.179   3.648  0.00  0.00    -0.440 OA
ATOM      3  C   UNL     1     -35.760  21.631   2.194  0.00  0.00    +0.171 C 
ATOM      4  C   UNL     1     -36.333  22.757   3.017  0.00  0.00    +0.138 C 
ATOM      5  C   UNL     1     -36.383  20.261   2.037  0.00  0.00    +0.174 C 
ATOM      6  C   UNL     1     -34.657  22.190   1.322  0.00  0.00    +0.218 C 
ATOM      7  C   UNL     1     -35.650  23.986   2.463  0.00  0.00    -0.011 C 
ATOM      8  C   UNL     1     -37.841  22.985   2.929  0.00  0.00    +0.349 C 
ATOM      9  C   UNL     1     -34.702  23.678   1.565  0.00  0.00    +0.015 C 
ATOM     10  C   UNL     1     -36.169  25.256   2.902  0.00  0.00    +0.055 C 
ATOM     11  C   UNL     1     -37.383  25.262   3.482  0.00  0.00    +0.175 C 
ENDROOT
BRANCH   6  12
ATOM     12  O   UNL     1     -34.917  21.915  -0.048  0.00  0.00    -0.445 OA
BRANCH  12  14
ATOM     13  O   UNL     1     -34.294  20.453  -1.719  0.00  0.00    -0.250 OA
ATOM     14  C   UNL     1     -34.093  20.993  -0.641  0.00  0.00    +0.317 C 
BRANCH  14  15
ATOM     15  C   UNL     1     -32.913  20.718   0.267  0.00  0.00    +0.110 C 
BRANCH  15  16
ATOM     16  C   UNL     1     -32.439  19.258   0.214  0.00  0.00    +0.011 C 
ATOM     17  C   UNL     1     -32.988  18.486   1.415  0.00  0.00    +0.001 C 
ATOM     18  C   UNL     1     -30.910  19.167   0.195  0.00  0.00    +0.001 C 
ENDBRANCH  15  16
ENDBRANCH  14  15
ENDBRANCH  12  14
ENDBRANCH   6  12
BRANCH   8  19
ATOM     19  O   UNL     1     -38.337  22.997   1.591  0.00  0.00    -0.413 OA
BRANCH  19  21
ATOM     20  O   UNL     1     -40.608  23.341   1.806  0.00  0.00    -0.250 OA
ATOM     21  C   UNL     1     -39.657  22.662   1.445  0.00  0.00    +0.319 C 
BRANCH  21  22
ATOM     22  C   UNL     1     -39.754  21.298   0.796  0.00  0.00    +0.110 C 
BRANCH  22  23
ATOM     23  C   UNL     1     -38.914  21.177  -0.485  0.00  0.00    +0.011 C 
ATOM     24  C   UNL     1     -39.633  21.860  -1.650  0.00  0.00    +0.001 C 
ATOM     25  C   UNL     1     -38.637  19.712  -0.834  0.00  0.00    +0.001 C 
ENDBRANCH  22  23
ENDBRANCH  21  22
ENDBRANCH  19  21
ENDBRANCH   8  19
BRANCH  10  26
ATOM     26  C   UNL     1     -35.350  26.493   2.719  0.00  0.00    +0.238 C 
BRANCH  26  27
ATOM     27  O   UNL     1     -35.031  27.050   3.982  0.00  0.00    -0.443 OA
BRANCH  27  29
ATOM     28  O   UNL     1     -32.758  26.646   4.055  0.00  0.00    -0.250 OA
ATOM     29  C   UNL     1     -33.872  26.604   4.559  0.00  0.00    +0.318 C 
ATOM     30  C   UNL     1     -34.157  26.047   5.922  0.00  0.00    +0.121 C 
ENDBRANCH  27  29
ENDBRANCH  26  27
ENDBRANCH  10  26
TORSDOF 11
ENDMDL
MODEL 6
REMARK VINA RESULT:      -5.5      2.178      6.385
REMARK  Name = 537344
REMARK  11 active torsions:
REMARK  status: ('A' for Active; 'I' for Inactive)
REMARK    1  A    between atoms: C_6  and  O_12
REMARK    2  A    between atoms: C_8  and  O_19
REMARK    3  A    between atoms: C_10  and  C_26
REMARK    4  A    between atoms: O_12  and  C_14
REMARK    5  A    between atoms: C_14  and  C_15
REMARK    6  A    between atoms: C_15  and  C_16
REMARK    7  A    between atoms: O_19  and  C_21
REMARK    8  A    between atoms: C_21  and  C_22
REMARK    9  A    between atoms: C_22  and  C_23
REMARK   10  A    between atoms: C_26  and  O_27
REMARK   11  A    between atoms: O_27  and  C_29
REMARK                            x       y       z     vdW  Elec       q    Type
REMARK                         _______ _______ _______ _____ _____    ______ ____
ROOT
ATOM      1  O   UNL     1     -35.986  22.416   6.280  0.00  0.00    -0.349 OA
ATOM      2  O   UNL     1     -37.399  22.129   1.789  0.00  0.00    -0.440 OA
ATOM      3  C   UNL     1     -35.676  23.119   5.061  0.00  0.00    +0.171 C 
ATOM      4  C   UNL     1     -36.725  22.951   3.992  0.00  0.00    +0.138 C 
ATOM      5  C   UNL     1     -34.797  22.013   5.601  0.00  0.00    +0.174 C 
ATOM      6  C   UNL     1     -35.438  24.599   5.269  0.00  0.00    +0.218 C 
ATOM      7  C   UNL     1     -36.942  24.358   3.482  0.00  0.00    -0.011 C 
ATOM      8  C   UNL     1     -36.363  22.075   2.793  0.00  0.00    +0.349 C 
ATOM      9  C   UNL     1     -36.273  25.268   4.206  0.00  0.00    +0.015 C 
ATOM     10  C   UNL     1     -37.733  24.488   2.286  0.00  0.00    +0.055 C 
ATOM     11  C   UNL     1     -37.931  23.379   1.550  0.00  0.00    +0.175 C 
ENDROOT
BRANCH   6  12
ATOM     12  O   UNL     1     -34.066  24.915   5.078  0.00  0.00    -0.445 OA
BRANCH  12  14
ATOM     13  O   UNL     1     -33.744  26.697   6.505  0.00  0.00    -0.250 OA
ATOM     14  C   UNL     1     -33.697  26.198   5.390  0.00  0.00    +0.317 C 
BRANCH  14  15
ATOM     15  C   UNL     1     -33.261  26.915   4.130  0.00  0.00    +0.110 C 
BRANCH  15  16
ATOM     16  C   UNL     1     -32.604  28.277   4.407  0.00  0.00    +0.011 C 
ATOM     17  C   UNL     1     -33.190  29.339   3.475  0.00  0.00    +0.001 C 
ATOM     18  C   UNL     1     -31.085  28.212   4.228  0.00  0.00    +0.001 C 
ENDBRANCH  15  16
ENDBRANCH  14  15
ENDBRANCH  12  14
ENDBRANCH   6  12
BRANCH   8  19
ATOM     19  O   UNL     1     -35.081  22.371   2.240  0.00  0.00    -0.413 OA
BRANCH  19  21
ATOM     20  O   UNL     1     -34.471  21.910   0.064  0.00  0.00    -0.250 OA
ATOM     21  C   UNL     1     -34.674  21.557   1.217  0.00  0.00    +0.319 C 
BRANCH  21  22
ATOM     22  C   UNL     1     -34.551  20.138   1.730  0.00  0.00    +0.110 C 
BRANCH  22  23
ATOM     23  C   UNL     1     -33.828  19.202   0.749  0.00  0.00    +0.011 C 
ATOM     24  C   UNL     1     -34.847  18.348  -0.009  0.00  0.00    +0.001 C 
ATOM     25  C   UNL     1     -32.830  18.296   1.475  0.00  0.00    +0.001 C 
ENDBRANCH  22  23
ENDBRANCH  21  22
ENDBRANCH  19  21
ENDBRANCH   8  19
BRANCH  10  26
ATOM     26  C   UNL     1     -38.311  25.818   1.921  0.00  0.00    +0.238 C 
BRANCH  26  27
ATOM     27  O   UNL     1     -37.620  26.353   0.806  0.00  0.00    -0.443 OA
BRANCH  27  29
ATOM     28  O   UNL     1     -37.690  28.660   0.921  0.00  0.00    -0.250 OA
ATOM     29  C   UNL     1     -37.080  27.601   0.976  0.00  0.00    +0.318 C 
ATOM     30  C   UNL     1     -35.609  27.493   1.246  0.00  0.00    +0.121 C 
ENDBRANCH  27  29
ENDBRANCH  26  27
ENDBRANCH  10  26
TORSDOF 11
ENDMDL
MODEL 7
REMARK VINA RESULT:      -5.4      2.041      5.767
REMARK  Name = 537344
REMARK  11 active torsions:
REMARK  status: ('A' for Active; 'I' for Inactive)
REMARK    1  A    between atoms: C_6  and  O_12
REMARK    2  A    between atoms: C_8  and  O_19
REMARK    3  A    between atoms: C_10  and  C_26
REMARK    4  A    between atoms: O_12  and  C_14
REMARK    5  A    between atoms: C_14  and  C_15
REMARK    6  A    between atoms: C_15  and  C_16
REMARK    7  A    between atoms: O_19  and  C_21
REMARK    8  A    between atoms: C_21  and  C_22
REMARK    9  A    between atoms: C_22  and  C_23
REMARK   10  A    between atoms: C_26  and  O_27
REMARK   11  A    between atoms: O_27  and  C_29
REMARK                            x       y       z     vdW  Elec       q    Type
REMARK                         _______ _______ _______ _____ _____    ______ ____
ROOT
ATOM      1  O   UNL     1     -35.846  24.749   1.594  0.00  0.00    -0.349 OA
ATOM      2  O   UNL     1     -37.761  21.269  -0.950  0.00  0.00    -0.440 OA
ATOM      3  C   UNL     1     -36.350  23.429   1.878  0.00  0.00    +0.171 C 
ATOM      4  C   UNL     1     -36.434  22.546   0.659  0.00  0.00    +0.138 C 
ATOM      5  C   UNL     1     -37.176  24.675   2.111  0.00  0.00    +0.174 C 
ATOM      6  C   UNL     1     -35.554  22.702   2.940  0.00  0.00    +0.218 C 
ATOM      7  C   UNL     1     -35.822  21.243   1.120  0.00  0.00    -0.011 C 
ATOM      8  C   UNL     1     -37.830  22.237   0.119  0.00  0.00    +0.349 C 
ATOM      9  C   UNL     1     -35.301  21.336   2.352  0.00  0.00    +0.015 C 
ATOM     10  C   UNL     1     -35.970  20.120   0.231  0.00  0.00    +0.055 C 
ATOM     11  C   UNL     1     -36.890  20.219  -0.745  0.00  0.00    +0.175 C 
ENDROOT
BRANCH   6  12
ATOM     12  O   UNL     1     -36.313  22.581   4.136  0.00  0.00    -0.445 OA
BRANCH  12  14
ATOM     13  O   UNL     1     -35.875  22.384   6.392  0.00  0.00    -0.250 OA
ATOM     14  C   UNL     1     -35.651  22.883   5.299  0.00  0.00    +0.317 C 
BRANCH  14  15
ATOM     15  C   UNL     1     -34.623  23.961   5.026  0.00  0.00    +0.110 C 
BRANCH  15  16
ATOM     16  C   UNL     1     -34.873  25.250   5.823  0.00  0.00    +0.011 C 
ATOM     17  C   UNL     1     -36.191  25.890   5.384  0.00  0.00    +0.001 C 
ATOM     18  C   UNL     1     -33.728  26.249   5.643  0.00  0.00    +0.001 C 
ENDBRANCH  15  16
ENDBRANCH  14  15
ENDBRANCH  12  14
ENDBRANCH   6  12
BRANCH   8  19
ATOM     19  O   UNL     1     -38.755  21.838   1.130  0.00  0.00    -0.413 OA
BRANCH  19  21
ATOM     20  O   UNL     1     -40.860  21.042   0.628  0.00  0.00    -0.250 OA
ATOM     21  C   UNL     1     -40.079  21.966   0.805  0.00  0.00    +0.319 C 
BRANCH  21  22
ATOM     22  C   UNL     1     -40.417  23.434   0.663  0.00  0.00    +0.110 C 
BRANCH  22  23
ATOM     23  C   UNL     1     -41.697  23.684  -0.149  0.00  0.00    +0.011 C 
ATOM     24  C   UNL     1     -41.339  24.112  -1.574  0.00  0.00    +0.001 C 
ATOM     25  C   UNL     1     -42.577  24.751   0.507  0.00  0.00    +0.001 C 
ENDBRANCH  22  23
ENDBRANCH  21  22
ENDBRANCH  19  21
ENDBRANCH   8  19
BRANCH  10  26
ATOM     26  C   UNL     1     -35.100  18.916   0.408  0.00  0.00    +0.238 C 
BRANCH  26  27
ATOM     27  O   UNL     1     -33.820  19.162  -0.146  0.00  0.00    -0.443 OA
BRANCH  27  29
ATOM     28  O   UNL     1     -32.728  18.244   1.671  0.00  0.00    -0.250 OA
ATOM     29  C   UNL     1     -32.756  18.985   0.698  0.00  0.00    +0.318 C 
ATOM     30  C   UNL     1     -31.604  19.839   0.260  0.00  0.00    +0.121 C 
ENDBRANCH  27  29
ENDBRANCH  26  27
ENDBRANCH  10  26
TORSDOF 11
ENDMDL
MODEL 8
REMARK VINA RESULT:      -5.4      3.537      7.526
REMARK  Name = 537344
REMARK  11 active torsions:
REMARK  status: ('A' for Active; 'I' for Inactive)
REMARK    1  A    between atoms: C_6  and  O_12
REMARK    2  A    between atoms: C_8  and  O_19
REMARK    3  A    between atoms: C_10  and  C_26
REMARK    4  A    between atoms: O_12  and  C_14
REMARK    5  A    between atoms: C_14  and  C_15
REMARK    6  A    between atoms: C_15  and  C_16
REMARK    7  A    between atoms: O_19  and  C_21
REMARK    8  A    between atoms: C_21  and  C_22
REMARK    9  A    between atoms: C_22  and  C_23
REMARK   10  A    between atoms: C_26  and  O_27
REMARK   11  A    between atoms: O_27  and  C_29
REMARK                            x       y       z     vdW  Elec       q    Type
REMARK                         _______ _______ _______ _____ _____    ______ ____
ROOT
ATOM      1  O   UNL     1     -36.125  22.082  -0.811  0.00  0.00    -0.349 OA
ATOM      2  O   UNL     1     -35.085  17.498  -1.202  0.00  0.00    -0.440 OA
ATOM      3  C   UNL     1     -36.047  20.967   0.099  0.00  0.00    +0.171 C 
ATOM      4  C   UNL     1     -35.235  19.815  -0.436  0.00  0.00    +0.138 C 
ATOM      5  C   UNL     1     -37.361  21.449  -0.477  0.00  0.00    +0.174 C 
ATOM      6  C   UNL     1     -35.504  21.344   1.460  0.00  0.00    +0.218 C 
ATOM      7  C   UNL     1     -34.342  19.441   0.725  0.00  0.00    -0.011 C 
ATOM      8  C   UNL     1     -35.999  18.560  -0.855  0.00  0.00    +0.349 C 
ATOM      9  C   UNL     1     -34.455  20.300   1.749  0.00  0.00    +0.015 C 
ATOM     10  C   UNL     1     -33.603  18.212   0.590  0.00  0.00    +0.055 C 
ATOM     11  C   UNL     1     -33.997  17.353  -0.367  0.00  0.00    +0.175 C 
ENDROOT
BRANCH   6  12
ATOM     12  O   UNL     1     -36.531  21.282   2.441  0.00  0.00    -0.445 OA
BRANCH  12  14
ATOM     13  O   UNL     1     -37.844  23.025   3.187  0.00  0.00    -0.250 OA
ATOM     14  C   UNL     1     -36.770  22.443   3.131  0.00  0.00    +0.317 C 
BRANCH  14  15
ATOM     15  C   UNL     1     -35.488  22.914   3.781  0.00  0.00    +0.110 C 
BRANCH  15  16
ATOM     16  C   UNL     1     -35.648  23.226   5.277  0.00  0.00    +0.011 C 
ATOM     17  C   UNL     1     -34.958  24.549   5.613  0.00  0.00    +0.001 C 
ATOM     18  C   UNL     1     -35.072  22.106   6.147  0.00  0.00    +0.001 C 
ENDBRANCH  15  16
ENDBRANCH  14  15
ENDBRANCH  12  14
ENDBRANCH   6  12
BRANCH   8  19
ATOM     19  O   UNL     1     -36.961  18.132   0.108  0.00  0.00    -0.413 OA
BRANCH  19  21
ATOM     20  O   UNL     1     -39.032  18.133  -0.908  0.00  0.00    -0.250 OA
ATOM     21  C   UNL     1     -38.088  17.544  -0.401  0.00  0.00    +0.319 C 
BRANCH  21  22
ATOM     22  C   UNL     1     -38.000  16.046  -0.202  0.00  0.00    +0.110 C 
BRANCH  22  23
ATOM     23  C   UNL     1     -38.140  15.254  -1.511  0.00  0.00    +0.011 C 
ATOM     24  C   UNL     1     -39.316  14.279  -1.411  0.00  0.00    +0.001 C 
ATOM     25  C   UNL     1     -36.857  14.485  -1.840  0.00  0.00    +0.001 C 
ENDBRANCH  22  23
ENDBRANCH  21  22
ENDBRANCH  19  21
ENDBRANCH   8  19
BRANCH  10  26
ATOM     26  C   UNL     1     -32.435  17.948   1.487  0.00  0.00    +0.238 C 
BRANCH  26  27
ATOM     27  O   UNL     1     -31.456  17.194   0.793  0.00  0.00    -0.443 OA
BRANCH  27  29
ATOM     28  O   UNL     1     -29.254  17.213   1.489  0.00  0.00    -0.250 OA
ATOM     29  C   UNL     1     -30.178  17.683   0.840  0.00  0.00    +0.318 C 
ATOM     30  C   UNL     1     -30.059  18.899  -0.030  0.00  0.00    +0.121 C 
ENDBRANCH  27  29
ENDBRANCH  26  27
ENDBRANCH  10  26
TORSDOF 11
ENDMDL
MODEL 9
REMARK VINA RESULT:      -5.4      2.095      6.147
REMARK  Name = 537344
REMARK  11 active torsions:
REMARK  status: ('A' for Active; 'I' for Inactive)
REMARK    1  A    between atoms: C_6  and  O_12
REMARK    2  A    between atoms: C_8  and  O_19
REMARK    3  A    between atoms: C_10  and  C_26
REMARK    4  A    between atoms: O_12  and  C_14
REMARK    5  A    between atoms: C_14  and  C_15
REMARK    6  A    between atoms: C_15  and  C_16
REMARK    7  A    between atoms: O_19  and  C_21
REMARK    8  A    between atoms: C_21  and  C_22
REMARK    9  A    between atoms: C_22  and  C_23
REMARK   10  A    between atoms: C_26  and  O_27
REMARK   11  A    between atoms: O_27  and  C_29
REMARK                            x       y       z     vdW  Elec       q    Type
REMARK                         _______ _______ _______ _____ _____    ______ ____
ROOT
ATOM      1  O   UNL     1     -35.863  22.301   6.363  0.00  0.00    -0.349 OA
ATOM      2  O   UNL     1     -37.389  22.354   1.900  0.00  0.00    -0.440 OA
ATOM      3  C   UNL     1     -35.579  23.092   5.191  0.00  0.00    +0.171 C 
ATOM      4  C   UNL     1     -36.655  23.008   4.139  0.00  0.00    +0.138 C 
ATOM      5  C   UNL     1     -34.692  21.944   5.625  0.00  0.00    +0.174 C 
ATOM      6  C   UNL     1     -35.327  24.551   5.503  0.00  0.00    +0.218 C 
ATOM      7  C   UNL     1     -36.876  24.449   3.741  0.00  0.00    -0.011 C 
ATOM      8  C   UNL     1     -36.327  22.222   2.870  0.00  0.00    +0.349 C 
ATOM      9  C   UNL     1     -36.184  25.300   4.513  0.00  0.00    +0.015 C 
ATOM     10  C   UNL     1     -37.695  24.671   2.578  0.00  0.00    +0.055 C 
ATOM     11  C   UNL     1     -37.918  23.621   1.767  0.00  0.00    +0.175 C 
ENDROOT
BRANCH   6  12
ATOM     12  O   UNL     1     -33.958  24.874   5.301  0.00  0.00    -0.445 OA
BRANCH  12  14
ATOM     13  O   UNL     1     -33.700  27.035   6.066  0.00  0.00    -0.250 OA
ATOM     14  C   UNL     1     -33.671  26.209   5.165  0.00  0.00    +0.317 C 
BRANCH  14  15
ATOM     15  C   UNL     1     -33.352  26.509   3.717  0.00  0.00    +0.110 C 
BRANCH  15  16
ATOM     16  C   UNL     1     -33.683  27.953   3.311  0.00  0.00    +0.011 C 
ATOM     17  C   UNL     1     -34.971  27.984   2.489  0.00  0.00    +0.001 C 
ATOM     18  C   UNL     1     -32.541  28.585   2.510  0.00  0.00    +0.001 C 
ENDBRANCH  15  16
ENDBRANCH  14  15
ENDBRANCH  12  14
ENDBRANCH   6  12
BRANCH   8  19
ATOM     19  O   UNL     1     -35.058  22.553   2.308  0.00  0.00    -0.413 OA
BRANCH  19  21
ATOM     20  O   UNL     1     -34.797  20.664   1.011  0.00  0.00    -0.250 OA
ATOM     21  C   UNL     1     -34.719  21.874   1.169  0.00  0.00    +0.319 C 
BRANCH  21  22
ATOM     22  C   UNL     1     -34.197  22.856   0.142  0.00  0.00    +0.110 C 
BRANCH  22  23
ATOM     23  C   UNL     1     -34.093  24.292   0.678  0.00  0.00    +0.011 C 
ATOM     24  C   UNL     1     -35.095  25.195  -0.045  0.00  0.00    +0.001 C 
ATOM     25  C   UNL     1     -32.678  24.851   0.510  0.00  0.00    +0.001 C 
ENDBRANCH  22  23
ENDBRANCH  21  22
ENDBRANCH  19  21
ENDBRANCH   8  19
BRANCH  10  26
ATOM     26  C   UNL     1     -38.275  26.027   2.328  0.00  0.00    +0.238 C 
BRANCH  26  27
ATOM     27  O   UNL     1     -39.122  25.987   1.193  0.00  0.00    -0.443 OA
BRANCH  27  29
ATOM     28  O   UNL     1     -40.788  27.576   1.380  0.00  0.00    -0.250 OA
ATOM     29  C   UNL     1     -40.408  26.413   1.389  0.00  0.00    +0.318 C 
ATOM     30  C   UNL     1     -41.311  25.238   1.620  0.00  0.00    +0.121 C 
ENDBRANCH  27  29
ENDBRANCH  26  27
ENDBRANCH  10  26
TORSDOF 11
ENDMDL
