MODEL 1
REMARK VINA RESULT:      -5.5      0.000      0.000
REMARK  Name = 5476620
REMARK  6 active torsions:
REMARK  status: ('A' for Active; 'I' for Inactive)
REMARK    1  A    between atoms: C_5  and  N_12
REMARK    2  A    between atoms: C_6  and  C_16
REMARK    3  A    between atoms: N_15  and  C_16
REMARK    4  A    between atoms: N_15  and  N_17
REMARK    5  A    between atoms: N_17  and  C_20
REMARK    6  A    between atoms: C_20  and  N_21
REMARK                            x       y       z     vdW  Elec       q    Type
REMARK                         _______ _______ _______ _____ _____    ______ ____
ROOT
ATOM      1  N   UNL     1     -34.502  25.729   5.423  0.00  0.00    -0.247 NA
ATOM      2  C   UNL     1     -35.060  23.460   3.853  0.00  0.00    +0.012 C 
ATOM      3  C   UNL     1     -34.646  24.662   3.243  0.00  0.00    +0.016 C 
ATOM      4  C   UNL     1     -35.186  23.416   5.246  0.00  0.00    -0.002 C 
ATOM      5  C   UNL     1     -35.331  22.343   3.046  0.00  0.00    +0.041 C 
ATOM      6  C   UNL     1     -34.385  25.752   4.076  0.00  0.00    +0.078 C 
ATOM      7  C   UNL     1     -34.513  24.728   1.846  0.00  0.00    +0.001 C 
ATOM      8  C   UNL     1     -35.197  22.419   1.659  0.00  0.00    +0.014 C 
ATOM      9  C   UNL     1     -34.900  24.562   5.972  0.00  0.00    +0.094 C 
ATOM     10  C   UNL     1     -34.788  23.609   1.060  0.00  0.00    +0.001 C 
ATOM     11  C   UNL     1     -35.612  22.222   6.035  0.00  0.00    +0.033 C 
ENDROOT
BRANCH   5  12
ATOM     12  N   UNL     1     -35.752  21.095   3.567  0.00  0.00    -0.357 N 
ATOM     13  H   UNL     1     -35.976  21.011   4.522  0.00  0.00    +0.142 HD
ATOM     14  H   UNL     1     -35.820  20.313   2.975  0.00  0.00    +0.142 HD
ENDBRANCH   5  12
BRANCH   6  15
ATOM     15  C   UNL     1     -33.951  27.043   3.557  0.00  0.00    +0.157 C 
BRANCH  15  16
ATOM     16  N   UNL     1     -33.584  28.020   4.333  0.00  0.00    -0.126 NA
BRANCH  16  17
ATOM     17  N   UNL     1     -32.352  27.873   4.877  0.00  0.00    -0.244 N 
ATOM     18  H   UNL     1     -31.616  27.523   4.325  0.00  0.00    +0.170 HD
BRANCH  17  20
ATOM     19  S   UNL     1     -31.465  29.685   6.612  0.00  0.00    -0.018 S 
ATOM     20  C   UNL     1     -32.116  28.205   6.189  0.00  0.00    +0.143 C 
BRANCH  20  21
ATOM     21  N   UNL     1     -32.439  27.267   7.133  0.00  0.00    -0.340 N 
ATOM     22  H   UNL     1     -31.909  27.198   7.959  0.00  0.00    +0.144 HD
ATOM     23  H   UNL     1     -33.201  26.661   6.985  0.00  0.00    +0.144 HD
ENDBRANCH  20  21
ENDBRANCH  17  20
ENDBRANCH  16  17
ENDBRANCH  15  16
ENDBRANCH   6  15
TORSDOF 6
ENDMDL
MODEL 2
REMARK VINA RESULT:      -5.4      1.141      2.745
REMARK  Name = 5476620
REMARK  6 active torsions:
REMARK  status: ('A' for Active; 'I' for Inactive)
REMARK    1  A    between atoms: C_5  and  N_12
REMARK    2  A    between atoms: C_6  and  C_16
REMARK    3  A    between atoms: N_15  and  C_16
REMARK    4  A    between atoms: N_15  and  N_17
REMARK    5  A    between atoms: N_17  and  C_20
REMARK    6  A    between atoms: C_20  and  N_21
REMARK                            x       y       z     vdW  Elec       q    Type
REMARK                         _______ _______ _______ _____ _____    ______ ____
ROOT
ATOM      1  N   UNL     1     -34.493  25.928   3.448  0.00  0.00    -0.247 NA
ATOM      2  C   UNL     1     -35.190  23.219   3.774  0.00  0.00    +0.012 C 
ATOM      3  C   UNL     1     -34.873  24.012   4.897  0.00  0.00    +0.016 C 
ATOM      4  C   UNL     1     -35.153  23.801   2.502  0.00  0.00    -0.002 C 
ATOM      5  C   UNL     1     -35.535  21.872   3.965  0.00  0.00    +0.041 C 
ATOM      6  C   UNL     1     -34.535  25.347   4.669  0.00  0.00    +0.078 C 
ATOM      7  C   UNL     1     -34.903  23.447   6.183  0.00  0.00    +0.001 C 
ATOM      8  C   UNL     1     -35.562  21.320   5.248  0.00  0.00    +0.014 C 
ATOM      9  C   UNL     1     -34.803  25.139   2.397  0.00  0.00    +0.094 C 
ATOM     10  C   UNL     1     -35.248  22.106   6.354  0.00  0.00    +0.001 C 
ATOM     11  C   UNL     1     -35.462  23.096   1.223  0.00  0.00    +0.033 C 
ENDROOT
BRANCH   5  12
ATOM     12  N   UNL     1     -35.868  20.999   2.902  0.00  0.00    -0.357 N 
ATOM     13  H   UNL     1     -35.669  21.257   1.973  0.00  0.00    +0.142 HD
ATOM     14  H   UNL     1     -36.299  20.135   3.090  0.00  0.00    +0.142 HD
ENDBRANCH   5  12
BRANCH   6  15
ATOM     15  C   UNL     1     -34.189  26.259   5.753  0.00  0.00    +0.157 C 
BRANCH  15  16
ATOM     16  N   UNL     1     -32.982  26.713   5.925  0.00  0.00    -0.126 NA
BRANCH  16  17
ATOM     17  N   UNL     1     -32.763  27.942   5.399  0.00  0.00    -0.244 N 
ATOM     18  H   UNL     1     -33.278  28.232   4.612  0.00  0.00    +0.170 HD
BRANCH  17  20
ATOM     19  S   UNL     1     -31.875  30.436   5.665  0.00  0.00    -0.018 S 
ATOM     20  C   UNL     1     -31.831  28.789   5.947  0.00  0.00    +0.143 C 
BRANCH  20  21
ATOM     21  N   UNL     1     -30.866  28.222   6.734  0.00  0.00    -0.340 N 
ATOM     22  H   UNL     1     -30.572  27.299   6.564  0.00  0.00    +0.144 HD
ATOM     23  H   UNL     1     -30.466  28.738   7.472  0.00  0.00    +0.144 HD
ENDBRANCH  20  21
ENDBRANCH  17  20
ENDBRANCH  16  17
ENDBRANCH  15  16
ENDBRANCH   6  15
TORSDOF 6
ENDMDL
MODEL 3
REMARK VINA RESULT:      -5.3      4.208      6.604
REMARK  Name = 5476620
REMARK  6 active torsions:
REMARK  status: ('A' for Active; 'I' for Inactive)
REMARK    1  A    between atoms: C_5  and  N_12
REMARK    2  A    between atoms: C_6  and  C_16
REMARK    3  A    between atoms: N_15  and  C_16
REMARK    4  A    between atoms: N_15  and  N_17
REMARK    5  A    between atoms: N_17  and  C_20
REMARK    6  A    between atoms: C_20  and  N_21
REMARK                            x       y       z     vdW  Elec       q    Type
REMARK                         _______ _______ _______ _____ _____    ______ ____
ROOT
ATOM      1  N   UNL     1     -34.585  22.014   0.750  0.00  0.00    -0.247 NA
ATOM      2  C   UNL     1     -32.267  20.535   0.147  0.00  0.00    +0.012 C 
ATOM      3  C   UNL     1     -33.279  19.973   0.951  0.00  0.00    +0.016 C 
ATOM      4  C   UNL     1     -32.435  21.834  -0.344  0.00  0.00    -0.002 C 
ATOM      5  C   UNL     1     -31.121  19.775  -0.139  0.00  0.00    +0.041 C 
ATOM      6  C   UNL     1     -34.404  20.757   1.214  0.00  0.00    +0.078 C 
ATOM      7  C   UNL     1     -33.130  18.669   1.454  0.00  0.00    +0.001 C 
ATOM      8  C   UNL     1     -30.982  18.481   0.366  0.00  0.00    +0.014 C 
ATOM      9  C   UNL     1     -33.595  22.520  -0.016  0.00  0.00    +0.094 C 
ATOM     10  C   UNL     1     -31.985  17.929   1.160  0.00  0.00    +0.001 C 
ATOM     11  C   UNL     1     -31.457  22.564  -1.204  0.00  0.00    +0.033 C 
ENDROOT
BRANCH   5  12
ATOM     12  N   UNL     1     -30.052  20.254  -0.935  0.00  0.00    -0.357 N 
ATOM     13  H   UNL     1     -29.233  20.592  -0.507  0.00  0.00    +0.142 HD
ATOM     14  H   UNL     1     -30.129  20.248  -1.916  0.00  0.00    +0.142 HD
ENDBRANCH   5  12
BRANCH   6  15
ATOM     15  C   UNL     1     -35.512  20.280   2.033  0.00  0.00    +0.157 C 
BRANCH  15  16
ATOM     16  N   UNL     1     -35.620  20.564   3.297  0.00  0.00    -0.126 NA
BRANCH  16  17
ATOM     17  N   UNL     1     -36.168  21.775   3.557  0.00  0.00    -0.244 N 
ATOM     18  H   UNL     1     -36.907  22.104   2.995  0.00  0.00    +0.170 HD
BRANCH  17  20
ATOM     19  S   UNL     1     -34.869  23.971   4.313  0.00  0.00    -0.018 S 
ATOM     20  C   UNL     1     -35.708  22.552   4.592  0.00  0.00    +0.143 C 
BRANCH  20  21
ATOM     21  N   UNL     1     -35.970  22.111   5.861  0.00  0.00    -0.340 N 
ATOM     22  H   UNL     1     -35.420  21.397   6.257  0.00  0.00    +0.144 HD
ATOM     23  H   UNL     1     -36.709  22.507   6.378  0.00  0.00    +0.144 HD
ENDBRANCH  20  21
ENDBRANCH  17  20
ENDBRANCH  16  17
ENDBRANCH  15  16
ENDBRANCH   6  15
TORSDOF 6
ENDMDL
MODEL 4
REMARK VINA RESULT:      -5.3      2.904      3.851
REMARK  Name = 5476620
REMARK  6 active torsions:
REMARK  status: ('A' for Active; 'I' for Inactive)
REMARK    1  A    between atoms: C_5  and  N_12
REMARK    2  A    between atoms: C_6  and  C_16
REMARK    3  A    between atoms: N_15  and  C_16
REMARK    4  A    between atoms: N_15  and  N_17
REMARK    5  A    between atoms: N_17  and  C_20
REMARK    6  A    between atoms: C_20  and  N_21
REMARK                            x       y       z     vdW  Elec       q    Type
REMARK                         _______ _______ _______ _____ _____    ______ ____
ROOT
ATOM      1  N   UNL     1     -37.949  24.844   3.882  0.00  0.00    -0.247 NA
ATOM      2  C   UNL     1     -37.689  22.401   2.506  0.00  0.00    +0.012 C 
ATOM      3  C   UNL     1     -36.683  22.825   3.399  0.00  0.00    +0.016 C 
ATOM      4  C   UNL     1     -38.813  23.213   2.319  0.00  0.00    -0.002 C 
ATOM      5  C   UNL     1     -37.534  21.179   1.833  0.00  0.00    +0.041 C 
ATOM      6  C   UNL     1     -36.870  24.045   4.050  0.00  0.00    +0.078 C 
ATOM      7  C   UNL     1     -35.545  22.025   3.601  0.00  0.00    +0.001 C 
ATOM      8  C   UNL     1     -36.400  20.392   2.041  0.00  0.00    +0.014 C 
ATOM      9  C   UNL     1     -38.892  24.407   3.020  0.00  0.00    +0.094 C 
ATOM     10  C   UNL     1     -35.408  20.814   2.923  0.00  0.00    +0.001 C 
ATOM     11  C   UNL     1     -39.958  22.904   1.411  0.00  0.00    +0.033 C 
ENDROOT
BRANCH   5  12
ATOM     12  N   UNL     1     -38.488  20.672   0.918  0.00  0.00    -0.357 N 
ATOM     13  H   UNL     1     -38.673  19.705   0.887  0.00  0.00    +0.142 HD
ATOM     14  H   UNL     1     -38.966  21.284   0.315  0.00  0.00    +0.142 HD
ENDBRANCH   5  12
BRANCH   6  15
ATOM     15  C   UNL     1     -35.897  24.582   4.994  0.00  0.00    +0.157 C 
BRANCH  15  16
ATOM     16  N   UNL     1     -36.006  25.773   5.508  0.00  0.00    -0.126 NA
BRANCH  16  17
ATOM     17  N   UNL     1     -35.729  26.783   4.648  0.00  0.00    -0.244 N 
ATOM     18  H   UNL     1     -36.440  27.416   4.398  0.00  0.00    +0.170 HD
BRANCH  17  20
ATOM     19  S   UNL     1     -34.174  26.717   2.489  0.00  0.00    -0.018 S 
ATOM     20  C   UNL     1     -34.470  26.936   4.120  0.00  0.00    +0.143 C 
BRANCH  20  21
ATOM     21  N   UNL     1     -33.471  27.277   4.991  0.00  0.00    -0.340 N 
ATOM     22  H   UNL     1     -33.596  28.029   5.613  0.00  0.00    +0.144 HD
ATOM     23  H   UNL     1     -32.626  26.770   4.994  0.00  0.00    +0.144 HD
ENDBRANCH  20  21
ENDBRANCH  17  20
ENDBRANCH  16  17
ENDBRANCH  15  16
ENDBRANCH   6  15
TORSDOF 6
ENDMDL
MODEL 5
REMARK VINA RESULT:      -5.2      1.985      3.527
REMARK  Name = 5476620
REMARK  6 active torsions:
REMARK  status: ('A' for Active; 'I' for Inactive)
REMARK    1  A    between atoms: C_5  and  N_12
REMARK    2  A    between atoms: C_6  and  C_16
REMARK    3  A    between atoms: N_15  and  C_16
REMARK    4  A    between atoms: N_15  and  N_17
REMARK    5  A    between atoms: N_17  and  C_20
REMARK    6  A    between atoms: C_20  and  N_21
REMARK                            x       y       z     vdW  Elec       q    Type
REMARK                         _______ _______ _______ _____ _____    ______ ____
ROOT
ATOM      1  N   UNL     1     -34.419  25.560   2.431  0.00  0.00    -0.247 NA
ATOM      2  C   UNL     1     -35.152  23.016   3.387  0.00  0.00    +0.012 C 
ATOM      3  C   UNL     1     -34.797  24.039   4.290  0.00  0.00    +0.016 C 
ATOM      4  C   UNL     1     -35.133  23.287   2.015  0.00  0.00    -0.002 C 
ATOM      5  C   UNL     1     -35.513  21.756   3.891  0.00  0.00    +0.041 C 
ATOM      6  C   UNL     1     -34.443  25.279   3.753  0.00  0.00    +0.078 C 
ATOM      7  C   UNL     1     -34.808  23.788   5.672  0.00  0.00    +0.001 C 
ATOM      8  C   UNL     1     -35.521  21.516   5.266  0.00  0.00    +0.014 C 
ATOM      9  C   UNL     1     -34.764  24.557   1.596  0.00  0.00    +0.094 C 
ATOM     10  C   UNL     1     -35.170  22.530   6.155  0.00  0.00    +0.001 C 
ATOM     11  C   UNL     1     -35.481  22.312   0.938  0.00  0.00    +0.033 C 
ENDROOT
BRANCH   5  12
ATOM     12  N   UNL     1     -35.884  20.668   3.064  0.00  0.00    -0.357 N 
ATOM     13  H   UNL     1     -36.801  20.608   2.713  0.00  0.00    +0.142 HD
ATOM     14  H   UNL     1     -35.225  19.972   2.842  0.00  0.00    +0.142 HD
ENDBRANCH   5  12
BRANCH   6  15
ATOM     15  C   UNL     1     -34.059  26.409   4.590  0.00  0.00    +0.157 C 
BRANCH  15  16
ATOM     16  N   UNL     1     -33.837  27.595   4.104  0.00  0.00    -0.126 NA
BRANCH  16  17
ATOM     17  N   UNL     1     -34.946  28.242   3.673  0.00  0.00    -0.244 N 
ATOM     18  H   UNL     1     -35.834  27.931   3.964  0.00  0.00    +0.170 HD
BRANCH  17  20
ATOM     19  S   UNL     1     -34.014  29.244   1.391  0.00  0.00    -0.018 S 
ATOM     20  C   UNL     1     -34.851  29.327   2.836  0.00  0.00    +0.143 C 
BRANCH  20  21
ATOM     21  N   UNL     1     -35.474  30.477   3.238  0.00  0.00    -0.340 N 
ATOM     22  H   UNL     1     -35.198  31.343   2.863  0.00  0.00    +0.144 HD
ATOM     23  H   UNL     1     -36.199  30.437   3.904  0.00  0.00    +0.144 HD
ENDBRANCH  20  21
ENDBRANCH  17  20
ENDBRANCH  16  17
ENDBRANCH  15  16
ENDBRANCH   6  15
TORSDOF 6
ENDMDL
MODEL 6
REMARK VINA RESULT:      -5.2      4.015      6.831
REMARK  Name = 5476620
REMARK  6 active torsions:
REMARK  status: ('A' for Active; 'I' for Inactive)
REMARK    1  A    between atoms: C_5  and  N_12
REMARK    2  A    between atoms: C_6  and  C_16
REMARK    3  A    between atoms: N_15  and  C_16
REMARK    4  A    between atoms: N_15  and  N_17
REMARK    5  A    between atoms: N_17  and  C_20
REMARK    6  A    between atoms: C_20  and  N_21
REMARK                            x       y       z     vdW  Elec       q    Type
REMARK                         _______ _______ _______ _____ _____    ______ ____
ROOT
ATOM      1  N   UNL     1     -37.479  22.368   1.488  0.00  0.00    -0.247 NA
ATOM      2  C   UNL     1     -36.707  23.961   3.677  0.00  0.00    +0.012 C 
ATOM      3  C   UNL     1     -36.251  22.630   3.570  0.00  0.00    +0.016 C 
ATOM      4  C   UNL     1     -37.545  24.471   2.680  0.00  0.00    -0.002 C 
ATOM      5  C   UNL     1     -36.306  24.733   4.779  0.00  0.00    +0.041 C 
ATOM      6  C   UNL     1     -36.670  21.893   2.461  0.00  0.00    +0.078 C 
ATOM      7  C   UNL     1     -35.409  22.097   4.561  0.00  0.00    +0.001 C 
ATOM      8  C   UNL     1     -35.469  24.194   5.758  0.00  0.00    +0.014 C 
ATOM      9  C   UNL     1     -37.896  23.645   1.624  0.00  0.00    +0.094 C 
ATOM     10  C   UNL     1     -35.021  22.879   5.648  0.00  0.00    +0.001 C 
ATOM     11  C   UNL     1     -38.108  25.855   2.653  0.00  0.00    +0.033 C 
ENDROOT
BRANCH   5  12
ATOM     12  N   UNL     1     -36.712  26.075   4.973  0.00  0.00    -0.357 N 
ATOM     13  H   UNL     1     -37.300  26.511   4.315  0.00  0.00    +0.142 HD
ATOM     14  H   UNL     1     -36.405  26.573   5.765  0.00  0.00    +0.142 HD
ENDBRANCH   5  12
BRANCH   6  15
ATOM     15  C   UNL     1     -36.262  20.509   2.246  0.00  0.00    +0.157 C 
BRANCH  15  16
ATOM     16  N   UNL     1     -35.361  20.175   1.369  0.00  0.00    -0.126 NA
BRANCH  16  17
ATOM     17  N   UNL     1     -34.312  19.483   1.876  0.00  0.00    -0.244 N 
ATOM     18  H   UNL     1     -34.152  19.487   2.848  0.00  0.00    +0.170 HD
BRANCH  17  20
ATOM     19  S   UNL     1     -32.052  19.447   0.472  0.00  0.00    -0.018 S 
ATOM     20  C   UNL     1     -33.469  18.777   1.054  0.00  0.00    +0.143 C 
BRANCH  20  21
ATOM     21  N   UNL     1     -33.841  17.499   0.735  0.00  0.00    -0.340 N 
ATOM     22  H   UNL     1     -33.728  17.169  -0.185  0.00  0.00    +0.144 HD
ATOM     23  H   UNL     1     -34.223  16.910   1.426  0.00  0.00    +0.144 HD
ENDBRANCH  20  21
ENDBRANCH  17  20
ENDBRANCH  16  17
ENDBRANCH  15  16
ENDBRANCH   6  15
TORSDOF 6
ENDMDL
MODEL 7
REMARK VINA RESULT:      -5.2      4.541      7.433
REMARK  Name = 5476620
REMARK  6 active torsions:
REMARK  status: ('A' for Active; 'I' for Inactive)
REMARK    1  A    between atoms: C_5  and  N_12
REMARK    2  A    between atoms: C_6  and  C_16
REMARK    3  A    between atoms: N_15  and  C_16
REMARK    4  A    between atoms: N_15  and  N_17
REMARK    5  A    between atoms: N_17  and  C_20
REMARK    6  A    between atoms: C_20  and  N_21
REMARK                            x       y       z     vdW  Elec       q    Type
REMARK                         _______ _______ _______ _____ _____    ______ ____
ROOT
ATOM      1  N   UNL     1     -36.652  22.326   1.289  0.00  0.00    -0.247 NA
ATOM      2  C   UNL     1     -36.357  23.897   3.607  0.00  0.00    +0.012 C 
ATOM      3  C   UNL     1     -35.910  22.560   3.593  0.00  0.00    +0.016 C 
ATOM      4  C   UNL     1     -36.947  24.426   2.453  0.00  0.00    -0.002 C 
ATOM      5  C   UNL     1     -36.198  24.658   4.776  0.00  0.00    +0.041 C 
ATOM      6  C   UNL     1     -36.085  21.833   2.413  0.00  0.00    +0.078 C 
ATOM      7  C   UNL     1     -35.316  22.009   4.741  0.00  0.00    +0.001 C 
ATOM      8  C   UNL     1     -35.607  24.101   5.911  0.00  0.00    +0.014 C 
ATOM      9  C   UNL     1     -37.068  23.609   1.339  0.00  0.00    +0.094 C 
ATOM     10  C   UNL     1     -35.167  22.780   5.893  0.00  0.00    +0.001 C 
ATOM     11  C   UNL     1     -37.468  25.818   2.312  0.00  0.00    +0.033 C 
ENDROOT
BRANCH   5  12
ATOM     12  N   UNL     1     -36.616  26.006   4.885  0.00  0.00    -0.357 N 
ATOM     13  H   UNL     1     -36.331  26.548   5.657  0.00  0.00    +0.142 HD
ATOM     14  H   UNL     1     -37.191  26.402   4.192  0.00  0.00    +0.142 HD
ENDBRANCH   5  12
BRANCH   6  15
ATOM     15  C   UNL     1     -35.661  20.444   2.284  0.00  0.00    +0.157 C 
BRANCH  15  16
ATOM     16  N   UNL     1     -35.692  19.807   1.150  0.00  0.00    -0.126 NA
BRANCH  16  17
ATOM     17  N   UNL     1     -36.752  18.978   1.000  0.00  0.00    -0.244 N 
ATOM     18  H   UNL     1     -36.885  18.239   1.637  0.00  0.00    +0.170 HD
BRANCH  17  20
ATOM     19  S   UNL     1     -37.526  18.274  -1.447  0.00  0.00    -0.018 S 
ATOM     20  C   UNL     1     -37.645  19.152  -0.029  0.00  0.00    +0.143 C 
BRANCH  20  21
ATOM     21  N   UNL     1     -38.637  20.075   0.161  0.00  0.00    -0.340 N 
ATOM     22  H   UNL     1     -39.461  20.030  -0.375  0.00  0.00    +0.144 HD
ATOM     23  H   UNL     1     -38.526  20.786   0.834  0.00  0.00    +0.144 HD
ENDBRANCH  20  21
ENDBRANCH  17  20
ENDBRANCH  16  17
ENDBRANCH  15  16
ENDBRANCH   6  15
TORSDOF 6
ENDMDL
MODEL 8
REMARK VINA RESULT:      -5.0      3.825      6.815
REMARK  Name = 5476620
REMARK  6 active torsions:
REMARK  status: ('A' for Active; 'I' for Inactive)
REMARK    1  A    between atoms: C_5  and  N_12
REMARK    2  A    between atoms: C_6  and  C_16
REMARK    3  A    between atoms: N_15  and  C_16
REMARK    4  A    between atoms: N_15  and  N_17
REMARK    5  A    between atoms: N_17  and  C_20
REMARK    6  A    between atoms: C_20  and  N_21
REMARK                            x       y       z     vdW  Elec       q    Type
REMARK                         _______ _______ _______ _____ _____    ______ ____
ROOT
ATOM      1  N   UNL     1     -35.835  23.057   1.260  0.00  0.00    -0.247 NA
ATOM      2  C   UNL     1     -35.533  23.850   3.945  0.00  0.00    +0.012 C 
ATOM      3  C   UNL     1     -35.512  22.482   3.601  0.00  0.00    +0.016 C 
ATOM      4  C   UNL     1     -35.706  24.800   2.932  0.00  0.00    -0.002 C 
ATOM      5  C   UNL     1     -35.380  24.217   5.291  0.00  0.00    +0.041 C 
ATOM      6  C   UNL     1     -35.667  22.154   2.253  0.00  0.00    +0.078 C 
ATOM      7  C   UNL     1     -35.339  21.512   4.602  0.00  0.00    +0.001 C 
ATOM      8  C   UNL     1     -35.210  23.245   6.279  0.00  0.00    +0.014 C 
ATOM      9  C   UNL     1     -35.851  24.356   1.627  0.00  0.00    +0.094 C 
ATOM     10  C   UNL     1     -35.189  21.895   5.934  0.00  0.00    +0.001 C 
ATOM     11  C   UNL     1     -35.751  26.278   3.137  0.00  0.00    +0.033 C 
ENDROOT
BRANCH   5  12
ATOM     12  N   UNL     1     -35.389  25.563   5.733  0.00  0.00    -0.357 N 
ATOM     13  H   UNL     1     -35.235  25.769   6.683  0.00  0.00    +0.142 HD
ATOM     14  H   UNL     1     -35.549  26.290   5.091  0.00  0.00    +0.142 HD
ENDBRANCH   5  12
BRANCH   6  15
ATOM     15  C   UNL     1     -35.660  20.774   1.781  0.00  0.00    +0.157 C 
BRANCH  15  16
ATOM     16  N   UNL     1     -36.751  20.134   1.478  0.00  0.00    -0.126 NA
BRANCH  16  17
ATOM     17  N   UNL     1     -37.870  20.622   2.065  0.00  0.00    -0.244 N 
ATOM     18  H   UNL     1     -37.922  20.669   3.047  0.00  0.00    +0.170 HD
BRANCH  17  20
ATOM     19  S   UNL     1     -38.820  21.212  -0.350  0.00  0.00    -0.018 S 
ATOM     20  C   UNL     1     -38.935  21.051   1.310  0.00  0.00    +0.143 C 
BRANCH  20  21
ATOM     21  N   UNL     1     -40.093  21.339   1.980  0.00  0.00    -0.340 N 
ATOM     22  H   UNL     1     -40.496  22.233   1.904  0.00  0.00    +0.144 HD
ATOM     23  H   UNL     1     -40.523  20.652   2.539  0.00  0.00    +0.144 HD
ENDBRANCH  20  21
ENDBRANCH  17  20
ENDBRANCH  16  17
ENDBRANCH  15  16
ENDBRANCH   6  15
TORSDOF 6
ENDMDL
MODEL 9
REMARK VINA RESULT:      -5.0      4.315      5.476
REMARK  Name = 5476620
REMARK  6 active torsions:
REMARK  status: ('A' for Active; 'I' for Inactive)
REMARK    1  A    between atoms: C_5  and  N_12
REMARK    2  A    between atoms: C_6  and  C_16
REMARK    3  A    between atoms: N_15  and  C_16
REMARK    4  A    between atoms: N_15  and  N_17
REMARK    5  A    between atoms: N_17  and  C_20
REMARK    6  A    between atoms: C_20  and  N_21
REMARK                            x       y       z     vdW  Elec       q    Type
REMARK                         _______ _______ _______ _____ _____    ______ ____
ROOT
ATOM      1  N   UNL     1     -36.941  23.950   1.357  0.00  0.00    -0.247 NA
ATOM      2  C   UNL     1     -35.916  22.816   3.721  0.00  0.00    +0.012 C 
ATOM      3  C   UNL     1     -36.139  24.205   3.639  0.00  0.00    +0.016 C 
ATOM      4  C   UNL     1     -36.212  22.015   2.612  0.00  0.00    -0.002 C 
ATOM      5  C   UNL     1     -35.403  22.276   4.912  0.00  0.00    +0.041 C 
ATOM      6  C   UNL     1     -36.649  24.707   2.439  0.00  0.00    +0.078 C 
ATOM      7  C   UNL     1     -35.848  25.027   4.741  0.00  0.00    +0.001 C 
ATOM      8  C   UNL     1     -35.117  23.101   6.001  0.00  0.00    +0.014 C 
ATOM      9  C   UNL     1     -36.714  22.624   1.472  0.00  0.00    +0.094 C 
ATOM     10  C   UNL     1     -35.340  24.474   5.915  0.00  0.00    +0.001 C 
ATOM     11  C   UNL     1     -36.030  20.534   2.544  0.00  0.00    +0.033 C 
ENDROOT
BRANCH   5  12
ATOM     12  N   UNL     1     -35.145  20.895   5.089  0.00  0.00    -0.357 N 
ATOM     13  H   UNL     1     -35.674  20.229   4.592  0.00  0.00    +0.142 HD
ATOM     14  H   UNL     1     -34.440  20.601   5.708  0.00  0.00    +0.142 HD
ENDBRANCH   5  12
BRANCH   6  15
ATOM     15  C   UNL     1     -36.920  26.126   2.241  0.00  0.00    +0.157 C 
BRANCH  15  16
ATOM     16  N   UNL     1     -38.125  26.615   2.255  0.00  0.00    -0.126 NA
BRANCH  16  17
ATOM     17  N   UNL     1     -38.919  26.126   3.238  0.00  0.00    -0.244 N 
ATOM     18  H   UNL     1     -38.539  25.959   4.131  0.00  0.00    +0.170 HD
BRANCH  17  20
ATOM     19  S   UNL     1     -40.739  24.954   1.690  0.00  0.00    -0.018 S 
ATOM     20  C   UNL     1     -40.246  25.859   3.006  0.00  0.00    +0.143 C 
BRANCH  20  21
ATOM     21  N   UNL     1     -41.146  26.368   3.904  0.00  0.00    -0.340 N 
ATOM     22  H   UNL     1     -42.110  26.220   3.772  0.00  0.00    +0.144 HD
ATOM     23  H   UNL     1     -40.829  26.882   4.682  0.00  0.00    +0.144 HD
ENDBRANCH  20  21
ENDBRANCH  17  20
ENDBRANCH  16  17
ENDBRANCH  15  16
ENDBRANCH   6  15
TORSDOF 6
ENDMDL
