MODEL 1
REMARK VINA RESULT:      -6.0      0.000      0.000
REMARK  Name = 56842232
REMARK  7 active torsions:
REMARK  status: ('A' for Active; 'I' for Inactive)
REMARK    1  A    between atoms: O_1  and  C_6
REMARK    2  A    between atoms: O_1  and  C_15
REMARK    3  A    between atoms: C_7  and  O_10
REMARK    4  A    between atoms: O_10  and  N_13
REMARK    5  A    between atoms: C_15  and  C_17
REMARK    6  A    between atoms: C_18  and  S_23
REMARK    7  A    between atoms: S_23  and  C_24
REMARK                            x       y       z     vdW  Elec       q    Type
REMARK                         _______ _______ _______ _____ _____    ______ ____
ROOT
ATOM      1  O   UNL     1     -32.119  26.826   3.625  0.00  0.00    -0.444 OA
ENDROOT
BRANCH   1   6
ATOM      2  O   UNL     1     -34.134  24.615   3.109  0.00  0.00    -0.346 OA
ATOM      3  O   UNL     1     -35.469  26.572   5.045  0.00  0.00    -0.346 OA
ATOM      4  C   UNL     1     -34.085  26.216   4.858  0.00  0.00    +0.188 C 
ATOM      5  C   UNL     1     -34.052  24.734   4.540  0.00  0.00    +0.191 C 
ATOM      6  C   UNL     1     -33.542  26.855   3.604  0.00  0.00    +0.228 C 
ATOM      7  C   UNL     1     -35.304  24.230   5.215  0.00  0.00    +0.259 C 
ATOM      8  C   UNL     1     -34.033  25.920   2.517  0.00  0.00    +0.188 C 
ATOM      9  C   UNL     1     -36.264  25.379   5.004  0.00  0.00    +0.191 C 
BRANCH   7  10
ATOM     10  O   UNL     1     -35.790  23.024   4.669  0.00  0.00    -0.334 OA
BRANCH  10  13
ATOM     11  O   UNL     1     -35.997  22.052   6.659  0.00  0.00    -0.090 OA
ATOM     12  O   UNL     1     -35.056  20.899   4.999  0.00  0.00    -0.090 OA
ATOM     13  N   UNL     1     -35.592  21.885   5.507  0.00  0.00    +0.218 N 
ENDBRANCH  10  13
ENDBRANCH   7  10
ENDBRANCH   1   6
BRANCH   1  15
ATOM     14  O   UNL     1     -31.083  28.424   2.310  0.00  0.00    -0.245 OA
ATOM     15  C   UNL     1     -31.501  28.013   3.381  0.00  0.00    +0.340 C 
BRANCH  15  17
ATOM     16  N   UNL     1     -30.811  28.994   6.999  0.00  0.00    -0.321 N 
ATOM     17  C   UNL     1     -31.401  28.766   4.634  0.00  0.00    +0.081 C 
ATOM     18  C   UNL     1     -30.625  28.184   5.798  0.00  0.00    +0.148 C 
ATOM     19  C   UNL     1     -32.075  29.928   4.699  0.00  0.00    +0.006 C 
ATOM     20  C   UNL     1     -32.092  30.693   5.929  0.00  0.00    +0.016 C 
ATOM     21  C   UNL     1     -31.480  30.192   7.009  0.00  0.00    +0.059 C 
ATOM     22  H   UNL     1     -30.437  28.662   7.847  0.00  0.00    +0.148 HD
BRANCH  18  23
ATOM     23  S   UNL     1     -28.847  28.109   5.399  0.00  0.00    -0.117 S 
BRANCH  23  24
ATOM     24  C   UNL     1     -28.227  27.766   7.062  0.00  0.00    +0.059 C 
ATOM     25  C   UNL     1     -27.407  26.491   7.072  0.00  0.00    +0.013 C 
ENDBRANCH  23  24
ENDBRANCH  18  23
ENDBRANCH  15  17
ENDBRANCH   1  15
TORSDOF 7
ENDMDL
MODEL 2
REMARK VINA RESULT:      -5.9      5.216      9.006
REMARK  Name = 56842232
REMARK  7 active torsions:
REMARK  status: ('A' for Active; 'I' for Inactive)
REMARK    1  A    between atoms: O_1  and  C_6
REMARK    2  A    between atoms: O_1  and  C_15
REMARK    3  A    between atoms: C_7  and  O_10
REMARK    4  A    between atoms: O_10  and  N_13
REMARK    5  A    between atoms: C_15  and  C_17
REMARK    6  A    between atoms: C_18  and  S_23
REMARK    7  A    between atoms: S_23  and  C_24
REMARK                            x       y       z     vdW  Elec       q    Type
REMARK                         _______ _______ _______ _____ _____    ______ ____
ROOT
ATOM      1  O   UNL     1     -35.608  21.924   2.750  0.00  0.00    -0.444 OA
ENDROOT
BRANCH   1   6
ATOM      2  O   UNL     1     -34.474  23.290   5.212  0.00  0.00    -0.346 OA
ATOM      3  O   UNL     1     -37.033  24.799   4.482  0.00  0.00    -0.346 OA
ATOM      4  C   UNL     1     -36.082  24.090   3.663  0.00  0.00    +0.188 C 
ATOM      5  C   UNL     1     -34.713  24.343   4.263  0.00  0.00    +0.191 C 
ATOM      6  C   UNL     1     -36.261  22.601   3.817  0.00  0.00    +0.228 C 
ATOM      7  C   UNL     1     -34.899  25.677   4.945  0.00  0.00    +0.259 C 
ATOM      8  C   UNL     1     -35.520  22.310   5.106  0.00  0.00    +0.188 C 
ATOM      9  C   UNL     1     -36.320  25.580   5.451  0.00  0.00    +0.191 C 
BRANCH   7  10
ATOM     10  O   UNL     1     -33.978  25.909   5.987  0.00  0.00    -0.334 OA
BRANCH  10  13
ATOM     11  O   UNL     1     -32.207  27.114   6.587  0.00  0.00    -0.090 OA
ATOM     12  O   UNL     1     -33.396  27.769   4.819  0.00  0.00    -0.090 OA
ATOM     13  N   UNL     1     -33.125  27.033   5.769  0.00  0.00    +0.218 N 
ENDBRANCH  10  13
ENDBRANCH   7  10
ENDBRANCH   1   6
BRANCH   1  15
ATOM     14  O   UNL     1     -37.584  21.014   1.958  0.00  0.00    -0.245 OA
ATOM     15  C   UNL     1     -36.368  21.024   2.069  0.00  0.00    +0.340 C 
BRANCH  15  17
ATOM     16  N   UNL     1     -35.041  18.138  -0.040  0.00  0.00    -0.321 N 
ATOM     17  C   UNL     1     -35.489  20.023   1.457  0.00  0.00    +0.081 C 
ATOM     18  C   UNL     1     -35.992  19.197   0.290  0.00  0.00    +0.148 C 
ATOM     19  C   UNL     1     -34.281  19.850   2.022  0.00  0.00    +0.006 C 
ATOM     20  C   UNL     1     -33.384  18.826   1.527  0.00  0.00    +0.016 C 
ATOM     21  C   UNL     1     -33.805  18.022   0.542  0.00  0.00    +0.059 C 
ATOM     22  H   UNL     1     -35.303  17.473  -0.717  0.00  0.00    +0.148 HD
BRANCH  18  23
ATOM     23  S   UNL     1     -36.239  20.255  -1.175  0.00  0.00    -0.117 S 
BRANCH  23  24
ATOM     24  C   UNL     1     -38.014  19.987  -1.386  0.00  0.00    +0.059 C 
ATOM     25  C   UNL     1     -38.444  18.706  -0.697  0.00  0.00    +0.013 C 
ENDBRANCH  23  24
ENDBRANCH  18  23
ENDBRANCH  15  17
ENDBRANCH   1  15
TORSDOF 7
ENDMDL
MODEL 3
REMARK VINA RESULT:      -5.9      3.204      7.296
REMARK  Name = 56842232
REMARK  7 active torsions:
REMARK  status: ('A' for Active; 'I' for Inactive)
REMARK    1  A    between atoms: O_1  and  C_6
REMARK    2  A    between atoms: O_1  and  C_15
REMARK    3  A    between atoms: C_7  and  O_10
REMARK    4  A    between atoms: O_10  and  N_13
REMARK    5  A    between atoms: C_15  and  C_17
REMARK    6  A    between atoms: C_18  and  S_23
REMARK    7  A    between atoms: S_23  and  C_24
REMARK                            x       y       z     vdW  Elec       q    Type
REMARK                         _______ _______ _______ _____ _____    ______ ____
ROOT
ATOM      1  O   UNL     1     -35.773  26.029   4.258  0.00  0.00    -0.444 OA
ENDROOT
BRANCH   1   6
ATOM      2  O   UNL     1     -34.137  28.546   3.813  0.00  0.00    -0.346 OA
ATOM      3  O   UNL     1     -32.425  26.210   2.826  0.00  0.00    -0.346 OA
ATOM      4  C   UNL     1     -33.422  26.285   3.864  0.00  0.00    +0.188 C 
ATOM      5  C   UNL     1     -33.270  27.643   4.521  0.00  0.00    +0.191 C 
ATOM      6  C   UNL     1     -34.804  26.339   3.264  0.00  0.00    +0.228 C 
ATOM      7  C   UNL     1     -31.814  27.961   4.276  0.00  0.00    +0.259 C 
ATOM      8  C   UNL     1     -34.944  27.800   2.887  0.00  0.00    +0.188 C 
ATOM      9  C   UNL     1     -31.586  27.372   2.903  0.00  0.00    +0.191 C 
BRANCH   7  10
ATOM     10  O   UNL     1     -31.525  29.340   4.318  0.00  0.00    -0.334 OA
BRANCH  10  13
ATOM     11  O   UNL     1     -32.443  30.674   5.843  0.00  0.00    -0.090 OA
ATOM     12  O   UNL     1     -30.605  29.534   6.387  0.00  0.00    -0.090 OA
ATOM     13  N   UNL     1     -31.514  29.892   5.634  0.00  0.00    +0.218 N 
ENDBRANCH  10  13
ENDBRANCH   7  10
ENDBRANCH   1   6
BRANCH   1  15
ATOM     14  O   UNL     1     -37.722  25.142   3.378  0.00  0.00    -0.245 OA
ATOM     15  C   UNL     1     -36.645  25.033   3.942  0.00  0.00    +0.340 C 
BRANCH  15  17
ATOM     16  N   UNL     1     -35.747  21.337   4.194  0.00  0.00    -0.321 N 
ATOM     17  C   UNL     1     -36.089  23.753   4.390  0.00  0.00    +0.081 C 
ATOM     18  C   UNL     1     -36.180  22.539   3.487  0.00  0.00    +0.148 C 
ATOM     19  C   UNL     1     -35.577  23.716   5.633  0.00  0.00    +0.006 C 
ATOM     20  C   UNL     1     -35.080  22.470   6.181  0.00  0.00    +0.016 C 
ATOM     21  C   UNL     1     -35.198  21.353   5.452  0.00  0.00    +0.059 C 
ATOM     22  H   UNL     1     -35.855  20.468   3.744  0.00  0.00    +0.148 HD
BRANCH  18  23
ATOM     23  S   UNL     1     -35.137  22.770   2.009  0.00  0.00    -0.117 S 
BRANCH  23  24
ATOM     24  C   UNL     1     -35.005  21.036   1.517  0.00  0.00    +0.059 C 
ATOM     25  C   UNL     1     -33.774  20.819   0.658  0.00  0.00    +0.013 C 
ENDBRANCH  23  24
ENDBRANCH  18  23
ENDBRANCH  15  17
ENDBRANCH   1  15
TORSDOF 7
ENDMDL
MODEL 4
REMARK VINA RESULT:      -5.8      4.910      8.637
REMARK  Name = 56842232
REMARK  7 active torsions:
REMARK  status: ('A' for Active; 'I' for Inactive)
REMARK    1  A    between atoms: O_1  and  C_6
REMARK    2  A    between atoms: O_1  and  C_15
REMARK    3  A    between atoms: C_7  and  O_10
REMARK    4  A    between atoms: O_10  and  N_13
REMARK    5  A    between atoms: C_15  and  C_17
REMARK    6  A    between atoms: C_18  and  S_23
REMARK    7  A    between atoms: S_23  and  C_24
REMARK                            x       y       z     vdW  Elec       q    Type
REMARK                         _______ _______ _______ _____ _____    ______ ____
ROOT
ATOM      1  O   UNL     1     -35.556  21.829   2.954  0.00  0.00    -0.444 OA
ENDROOT
BRANCH   1   6
ATOM      2  O   UNL     1     -34.443  23.298   5.365  0.00  0.00    -0.346 OA
ATOM      3  O   UNL     1     -36.991  24.781   4.545  0.00  0.00    -0.346 OA
ATOM      4  C   UNL     1     -36.034  24.034   3.768  0.00  0.00    +0.188 C 
ATOM      5  C   UNL     1     -34.669  24.310   4.369  0.00  0.00    +0.191 C 
ATOM      6  C   UNL     1     -36.218  22.554   3.984  0.00  0.00    +0.228 C 
ATOM      7  C   UNL     1     -34.858  25.673   4.991  0.00  0.00    +0.259 C 
ATOM      8  C   UNL     1     -35.490  22.317   5.291  0.00  0.00    +0.188 C 
ATOM      9  C   UNL     1     -36.285  25.601   5.487  0.00  0.00    +0.191 C 
BRANCH   7  10
ATOM     10  O   UNL     1     -33.947  25.948   6.031  0.00  0.00    -0.334 OA
BRANCH  10  13
ATOM     11  O   UNL     1     -32.154  27.147   6.572  0.00  0.00    -0.090 OA
ATOM     12  O   UNL     1     -33.363  27.770   4.806  0.00  0.00    -0.090 OA
ATOM     13  N   UNL     1     -33.085  27.056   5.771  0.00  0.00    +0.218 N 
ENDBRANCH  10  13
ENDBRANCH   7  10
ENDBRANCH   1   6
BRANCH   1  15
ATOM     14  O   UNL     1     -37.561  21.127   2.034  0.00  0.00    -0.245 OA
ATOM     15  C   UNL     1     -36.352  21.041   2.181  0.00  0.00    +0.340 C 
BRANCH  15  17
ATOM     16  N   UNL     1     -35.200  18.090   0.061  0.00  0.00    -0.321 N 
ATOM     17  C   UNL     1     -35.524  20.029   1.520  0.00  0.00    +0.081 C 
ATOM     18  C   UNL     1     -36.131  19.147   0.448  0.00  0.00    +0.148 C 
ATOM     19  C   UNL     1     -34.259  19.898   1.959  0.00  0.00    +0.006 C 
ATOM     20  C   UNL     1     -33.400  18.869   1.412  0.00  0.00    +0.016 C 
ATOM     21  C   UNL     1     -33.906  18.017   0.511  0.00  0.00    +0.059 C 
ATOM     22  H   UNL     1     -35.519  17.392  -0.557  0.00  0.00    +0.148 HD
BRANCH  18  23
ATOM     23  S   UNL     1     -36.554  20.138  -1.024  0.00  0.00    -0.117 S 
BRANCH  23  24
ATOM     24  C   UNL     1     -34.947  20.925  -1.272  0.00  0.00    +0.059 C 
ATOM     25  C   UNL     1     -35.091  22.434  -1.298  0.00  0.00    +0.013 C 
ENDBRANCH  23  24
ENDBRANCH  18  23
ENDBRANCH  15  17
ENDBRANCH   1  15
TORSDOF 7
ENDMDL
MODEL 5
REMARK VINA RESULT:      -5.8      1.563      2.539
REMARK  Name = 56842232
REMARK  7 active torsions:
REMARK  status: ('A' for Active; 'I' for Inactive)
REMARK    1  A    between atoms: O_1  and  C_6
REMARK    2  A    between atoms: O_1  and  C_15
REMARK    3  A    between atoms: C_7  and  O_10
REMARK    4  A    between atoms: O_10  and  N_13
REMARK    5  A    between atoms: C_15  and  C_17
REMARK    6  A    between atoms: C_18  and  S_23
REMARK    7  A    between atoms: S_23  and  C_24
REMARK                            x       y       z     vdW  Elec       q    Type
REMARK                         _______ _______ _______ _____ _____    ______ ____
ROOT
ATOM      1  O   UNL     1     -32.216  27.365   5.035  0.00  0.00    -0.444 OA
ENDROOT
BRANCH   1   6
ATOM      2  O   UNL     1     -33.530  24.915   3.818  0.00  0.00    -0.346 OA
ATOM      3  O   UNL     1     -35.766  26.535   5.135  0.00  0.00    -0.346 OA
ATOM      4  C   UNL     1     -34.369  26.400   5.465  0.00  0.00    +0.188 C 
ATOM      5  C   UNL     1     -33.989  24.960   5.180  0.00  0.00    +0.191 C 
ATOM      6  C   UNL     1     -33.520  27.185   4.497  0.00  0.00    +0.228 C 
ATOM      7  C   UNL     1     -35.303  24.238   5.352  0.00  0.00    +0.259 C 
ATOM      8  C   UNL     1     -33.431  26.253   3.305  0.00  0.00    +0.188 C 
ATOM      9  C   UNL     1     -36.292  25.242   4.806  0.00  0.00    +0.191 C 
BRANCH   7  10
ATOM     10  O   UNL     1     -35.362  23.007   4.665  0.00  0.00    -0.334 OA
BRANCH  10  13
ATOM     11  O   UNL     1     -35.983  22.116   6.606  0.00  0.00    -0.090 OA
ATOM     12  O   UNL     1     -35.008  20.803   5.090  0.00  0.00    -0.090 OA
ATOM     13  N   UNL     1     -35.454  21.869   5.521  0.00  0.00    +0.218 N 
ENDBRANCH  10  13
ENDBRANCH   7  10
ENDBRANCH   1   6
BRANCH   1  15
ATOM     14  O   UNL     1     -32.599  29.622   5.378  0.00  0.00    -0.245 OA
ATOM     15  C   UNL     1     -31.864  28.649   5.313  0.00  0.00    +0.340 C 
BRANCH  15  17
ATOM     16  N   UNL     1     -28.095  28.228   4.926  0.00  0.00    -0.321 N 
ATOM     17  C   UNL     1     -30.416  28.710   5.535  0.00  0.00    +0.081 C 
ATOM     18  C   UNL     1     -29.470  28.272   4.436  0.00  0.00    +0.148 C 
ATOM     19  C   UNL     1     -30.006  29.102   6.755  0.00  0.00    +0.006 C 
ATOM     20  C   UNL     1     -28.595  29.113   7.080  0.00  0.00    +0.016 C 
ATOM     21  C   UNL     1     -27.719  28.670   6.169  0.00  0.00    +0.059 C 
ATOM     22  H   UNL     1     -27.401  27.861   4.332  0.00  0.00    +0.148 HD
BRANCH  18  23
ATOM     23  S   UNL     1     -29.564  29.421   3.023  0.00  0.00    -0.117 S 
BRANCH  23  24
ATOM     24  C   UNL     1     -30.358  28.309   1.842  0.00  0.00    +0.059 C 
ATOM     25  C   UNL     1     -30.017  26.865   2.158  0.00  0.00    +0.013 C 
ENDBRANCH  23  24
ENDBRANCH  18  23
ENDBRANCH  15  17
ENDBRANCH   1  15
TORSDOF 7
ENDMDL
MODEL 6
REMARK VINA RESULT:      -5.7      5.649      7.787
REMARK  Name = 56842232
REMARK  7 active torsions:
REMARK  status: ('A' for Active; 'I' for Inactive)
REMARK    1  A    between atoms: O_1  and  C_6
REMARK    2  A    between atoms: O_1  and  C_15
REMARK    3  A    between atoms: C_7  and  O_10
REMARK    4  A    between atoms: O_10  and  N_13
REMARK    5  A    between atoms: C_15  and  C_17
REMARK    6  A    between atoms: C_18  and  S_23
REMARK    7  A    between atoms: S_23  and  C_24
REMARK                            x       y       z     vdW  Elec       q    Type
REMARK                         _______ _______ _______ _____ _____    ______ ____
ROOT
ATOM      1  O   UNL     1     -38.023  24.834   3.907  0.00  0.00    -0.444 OA
ENDROOT
BRANCH   1   6
ATOM      2  O   UNL     1     -39.084  24.586   1.075  0.00  0.00    -0.346 OA
ATOM      3  O   UNL     1     -40.617  26.891   2.378  0.00  0.00    -0.346 OA
ATOM      4  C   UNL     1     -40.041  25.694   2.940  0.00  0.00    +0.188 C 
ATOM      5  C   UNL     1     -40.246  24.589   1.922  0.00  0.00    +0.191 C 
ATOM      6  C   UNL     1     -38.541  25.820   3.023  0.00  0.00    +0.228 C 
ATOM      7  C   UNL     1     -41.476  25.055   1.181  0.00  0.00    +0.259 C 
ATOM      8  C   UNL     1     -38.103  25.488   1.611  0.00  0.00    +0.188 C 
ATOM      9  C   UNL     1     -41.282  26.554   1.153  0.00  0.00    +0.191 C 
BRANCH   7  10
ATOM     10  O   UNL     1     -41.592  24.509  -0.114  0.00  0.00    -0.334 OA
BRANCH  10  13
ATOM     11  O   UNL     1     -43.559  23.472  -0.066  0.00  0.00    -0.090 OA
ATOM     12  O   UNL     1     -41.711  22.248  -0.308  0.00  0.00    -0.090 OA
ATOM     13  N   UNL     1     -42.344  23.297  -0.168  0.00  0.00    +0.218 N 
ENDBRANCH  10  13
ENDBRANCH   7  10
ENDBRANCH   1   6
BRANCH   1  15
ATOM     14  O   UNL     1     -36.163  26.095   4.465  0.00  0.00    -0.245 OA
ATOM     15  C   UNL     1     -36.742  25.029   4.324  0.00  0.00    +0.340 C 
BRANCH  15  17
ATOM     16  N   UNL     1     -35.707  21.367   4.098  0.00  0.00    -0.321 N 
ATOM     17  C   UNL     1     -36.124  23.728   4.595  0.00  0.00    +0.081 C 
ATOM     18  C   UNL     1     -36.211  22.627   3.557  0.00  0.00    +0.148 C 
ATOM     19  C   UNL     1     -35.558  23.564   5.804  0.00  0.00    +0.006 C 
ATOM     20  C   UNL     1     -34.995  22.284   6.179  0.00  0.00    +0.016 C 
ATOM     21  C   UNL     1     -35.106  21.257   5.327  0.00  0.00    +0.059 C 
ATOM     22  H   UNL     1     -35.804  20.554   3.552  0.00  0.00    +0.148 HD
BRANCH  18  23
ATOM     23  S   UNL     1     -35.241  23.072   2.078  0.00  0.00    -0.117 S 
BRANCH  23  24
ATOM     24  C   UNL     1     -34.874  21.399   1.502  0.00  0.00    +0.059 C 
ATOM     25  C   UNL     1     -33.831  21.432   0.402  0.00  0.00    +0.013 C 
ENDBRANCH  23  24
ENDBRANCH  18  23
ENDBRANCH  15  17
ENDBRANCH   1  15
TORSDOF 7
ENDMDL
MODEL 7
REMARK VINA RESULT:      -5.7      1.595      2.099
REMARK  Name = 56842232
REMARK  7 active torsions:
REMARK  status: ('A' for Active; 'I' for Inactive)
REMARK    1  A    between atoms: O_1  and  C_6
REMARK    2  A    between atoms: O_1  and  C_15
REMARK    3  A    between atoms: C_7  and  O_10
REMARK    4  A    between atoms: O_10  and  N_13
REMARK    5  A    between atoms: C_15  and  C_17
REMARK    6  A    between atoms: C_18  and  S_23
REMARK    7  A    between atoms: S_23  and  C_24
REMARK                            x       y       z     vdW  Elec       q    Type
REMARK                         _______ _______ _______ _____ _____    ______ ____
ROOT
ATOM      1  O   UNL     1     -32.247  27.235   4.732  0.00  0.00    -0.444 OA
ENDROOT
BRANCH   1   6
ATOM      2  O   UNL     1     -33.756  24.847   3.621  0.00  0.00    -0.346 OA
ATOM      3  O   UNL     1     -35.796  26.518   5.172  0.00  0.00    -0.346 OA
ATOM      4  C   UNL     1     -34.379  26.334   5.361  0.00  0.00    +0.188 C 
ATOM      5  C   UNL     1     -34.076  24.887   5.022  0.00  0.00    +0.191 C 
ATOM      6  C   UNL     1     -33.604  27.105   4.323  0.00  0.00    +0.228 C 
ATOM      7  C   UNL     1     -35.390  24.204   5.314  0.00  0.00    +0.259 C 
ATOM      8  C   UNL     1     -33.664  26.190   3.117  0.00  0.00    +0.188 C 
ATOM      9  C   UNL     1     -36.395  25.248   4.881  0.00  0.00    +0.191 C 
BRANCH   7  10
ATOM     10  O   UNL     1     -35.557  22.986   4.622  0.00  0.00    -0.334 OA
BRANCH  10  13
ATOM     11  O   UNL     1     -35.870  22.043   6.612  0.00  0.00    -0.090 OA
ATOM     12  O   UNL     1     -35.089  20.786   4.944  0.00  0.00    -0.090 OA
ATOM     13  N   UNL     1     -35.496  21.830   5.457  0.00  0.00    +0.218 N 
ENDBRANCH  10  13
ENDBRANCH   7  10
ENDBRANCH   1   6
BRANCH   1  15
ATOM     14  O   UNL     1     -32.493  29.348   5.647  0.00  0.00    -0.245 OA
ATOM     15  C   UNL     1     -31.847  28.494   5.058  0.00  0.00    +0.340 C 
BRANCH  15  17
ATOM     16  N   UNL     1     -28.354  29.917   4.507  0.00  0.00    -0.321 N 
ATOM     17  C   UNL     1     -30.474  28.696   4.587  0.00  0.00    +0.081 C 
ATOM     18  C   UNL     1     -29.602  29.746   5.246  0.00  0.00    +0.148 C 
ATOM     19  C   UNL     1     -30.082  27.963   3.530  0.00  0.00    +0.006 C 
ATOM     20  C   UNL     1     -28.768  28.159   2.954  0.00  0.00    +0.016 C 
ATOM     21  C   UNL     1     -27.982  29.122   3.453  0.00  0.00    +0.059 C 
ATOM     22  H   UNL     1     -27.748  30.643   4.781  0.00  0.00    +0.148 HD
BRANCH  18  23
ATOM     23  S   UNL     1     -29.218  29.264   6.963  0.00  0.00    -0.117 S 
BRANCH  23  24
ATOM     24  C   UNL     1     -28.608  27.596   6.628  0.00  0.00    +0.059 C 
ATOM     25  C   UNL     1     -27.130  27.496   6.952  0.00  0.00    +0.013 C 
ENDBRANCH  23  24
ENDBRANCH  18  23
ENDBRANCH  15  17
ENDBRANCH   1  15
TORSDOF 7
ENDMDL
MODEL 8
REMARK VINA RESULT:      -5.6      3.864      8.206
REMARK  Name = 56842232
REMARK  7 active torsions:
REMARK  status: ('A' for Active; 'I' for Inactive)
REMARK    1  A    between atoms: O_1  and  C_6
REMARK    2  A    between atoms: O_1  and  C_15
REMARK    3  A    between atoms: C_7  and  O_10
REMARK    4  A    between atoms: O_10  and  N_13
REMARK    5  A    between atoms: C_15  and  C_17
REMARK    6  A    between atoms: C_18  and  S_23
REMARK    7  A    between atoms: S_23  and  C_24
REMARK                            x       y       z     vdW  Elec       q    Type
REMARK                         _______ _______ _______ _____ _____    ______ ____
ROOT
ATOM      1  O   UNL     1     -35.756  24.994   3.031  0.00  0.00    -0.444 OA
ENDROOT
BRANCH   1   6
ATOM      2  O   UNL     1     -32.993  25.582   4.142  0.00  0.00    -0.346 OA
ATOM      3  O   UNL     1     -34.345  28.290   3.695  0.00  0.00    -0.346 OA
ATOM      4  C   UNL     1     -34.491  27.031   3.009  0.00  0.00    +0.188 C 
ATOM      5  C   UNL     1     -33.115  26.395   2.962  0.00  0.00    +0.191 C 
ATOM      6  C   UNL     1     -35.294  26.066   3.844  0.00  0.00    +0.228 C 
ATOM      7  C   UNL     1     -32.201  27.595   3.014  0.00  0.00    +0.259 C 
ATOM      8  C   UNL     1     -34.261  25.531   4.815  0.00  0.00    +0.188 C 
ATOM      9  C   UNL     1     -32.951  28.527   3.940  0.00  0.00    +0.191 C 
BRANCH   7  10
ATOM     10  O   UNL     1     -30.908  27.297   3.493  0.00  0.00    -0.334 OA
BRANCH  10  13
ATOM     11  O   UNL     1     -30.128  27.455   1.417  0.00  0.00    -0.090 OA
ATOM     12  O   UNL     1     -29.227  25.943   2.785  0.00  0.00    -0.090 OA
ATOM     13  N   UNL     1     -30.004  26.851   2.484  0.00  0.00    +0.218 N 
ENDBRANCH  10  13
ENDBRANCH   7  10
ENDBRANCH   1   6
BRANCH   1  15
ATOM     14  O   UNL     1     -37.582  24.577   4.392  0.00  0.00    -0.245 OA
ATOM     15  C   UNL     1     -36.751  24.235   3.565  0.00  0.00    +0.340 C 
BRANCH  15  17
ATOM     16  N   UNL     1     -37.708  20.840   2.120  0.00  0.00    -0.321 N 
ATOM     17  C   UNL     1     -36.689  22.890   2.986  0.00  0.00    +0.081 C 
ATOM     18  C   UNL     1     -37.955  22.235   2.472  0.00  0.00    +0.148 C 
ATOM     19  C   UNL     1     -35.492  22.276   3.005  0.00  0.00    +0.006 C 
ATOM     20  C   UNL     1     -35.362  20.916   2.524  0.00  0.00    +0.016 C 
ATOM     21  C   UNL     1     -36.462  20.267   2.123  0.00  0.00    +0.059 C 
ATOM     22  H   UNL     1     -38.478  20.280   1.868  0.00  0.00    +0.148 HD
BRANCH  18  23
ATOM     23  S   UNL     1     -38.575  23.121   1.003  0.00  0.00    -0.117 S 
BRANCH  23  24
ATOM     24  C   UNL     1     -40.122  23.733   1.708  0.00  0.00    +0.059 C 
ATOM     25  C   UNL     1     -40.062  25.236   1.899  0.00  0.00    +0.013 C 
ENDBRANCH  23  24
ENDBRANCH  18  23
ENDBRANCH  15  17
ENDBRANCH   1  15
TORSDOF 7
ENDMDL
MODEL 9
REMARK VINA RESULT:      -5.6      1.882      3.103
REMARK  Name = 56842232
REMARK  7 active torsions:
REMARK  status: ('A' for Active; 'I' for Inactive)
REMARK    1  A    between atoms: O_1  and  C_6
REMARK    2  A    between atoms: O_1  and  C_15
REMARK    3  A    between atoms: C_7  and  O_10
REMARK    4  A    between atoms: O_10  and  N_13
REMARK    5  A    between atoms: C_15  and  C_17
REMARK    6  A    between atoms: C_18  and  S_23
REMARK    7  A    between atoms: S_23  and  C_24
REMARK                            x       y       z     vdW  Elec       q    Type
REMARK                         _______ _______ _______ _____ _____    ______ ____
ROOT
ATOM      1  O   UNL     1     -32.346  26.610   3.777  0.00  0.00    -0.444 OA
ENDROOT
BRANCH   1   6
ATOM      2  O   UNL     1     -34.316  24.362   3.251  0.00  0.00    -0.346 OA
ATOM      3  O   UNL     1     -35.862  26.540   4.743  0.00  0.00    -0.346 OA
ATOM      4  C   UNL     1     -34.473  26.159   4.790  0.00  0.00    +0.188 C 
ATOM      5  C   UNL     1     -34.427  24.650   4.655  0.00  0.00    +0.191 C 
ATOM      6  C   UNL     1     -33.752  26.643   3.558  0.00  0.00    +0.228 C 
ATOM      7  C   UNL     1     -35.769  24.234   5.206  0.00  0.00    +0.259 C 
ATOM      8  C   UNL     1     -34.109  25.588   2.530  0.00  0.00    +0.188 C 
ATOM      9  C   UNL     1     -36.668  25.353   4.733  0.00  0.00    +0.191 C 
BRANCH   7  10
ATOM     10  O   UNL     1     -36.201  22.973   4.744  0.00  0.00    -0.334 OA
BRANCH  10  13
ATOM     11  O   UNL     1     -35.926  21.960   6.704  0.00  0.00    -0.090 OA
ATOM     12  O   UNL     1     -35.099  20.990   4.875  0.00  0.00    -0.090 OA
ATOM     13  N   UNL     1     -35.693  21.873   5.497  0.00  0.00    +0.218 N 
ENDBRANCH  10  13
ENDBRANCH   7  10
ENDBRANCH   1   6
BRANCH   1  15
ATOM     14  O   UNL     1     -31.034  27.824   2.305  0.00  0.00    -0.245 OA
ATOM     15  C   UNL     1     -31.657  27.702   3.349  0.00  0.00    +0.340 C 
BRANCH  15  17
ATOM     16  N   UNL     1     -31.846  31.108   5.052  0.00  0.00    -0.321 N 
ATOM     17  C   UNL     1     -31.768  28.762   4.355  0.00  0.00    +0.081 C 
ATOM     18  C   UNL     1     -31.952  30.200   3.912  0.00  0.00    +0.148 C 
ATOM     19  C   UNL     1     -31.634  28.394   5.642  0.00  0.00    +0.006 C 
ATOM     20  C   UNL     1     -31.652  29.391   6.692  0.00  0.00    +0.016 C 
ATOM     21  C   UNL     1     -31.743  30.683   6.352  0.00  0.00    +0.059 C 
ATOM     22  H   UNL     1     -31.848  32.076   4.876  0.00  0.00    +0.148 HD
BRANCH  18  23
ATOM     23  S   UNL     1     -33.583  30.417   3.126  0.00  0.00    -0.117 S 
BRANCH  23  24
ATOM     24  C   UNL     1     -33.097  31.606   1.855  0.00  0.00    +0.059 C 
ATOM     25  C   UNL     1     -33.634  32.986   2.183  0.00  0.00    +0.013 C 
ENDBRANCH  23  24
ENDBRANCH  18  23
ENDBRANCH  15  17
ENDBRANCH   1  15
TORSDOF 7
ENDMDL
