MODEL 1
REMARK VINA RESULT:      -6.3      0.000      0.000
REMARK  Name = 2006
REMARK  4 active torsions:
REMARK  status: ('A' for Active; 'I' for Inactive)
REMARK    1  A    between atoms: C_1  and  C_11
REMARK    2  A    between atoms: C_2  and  N_14
REMARK    3  A    between atoms: C_15  and  C_18
REMARK    4  A    between atoms: C_18  and  O_19
REMARK                            x       y       z     vdW  Elec       q    Type
REMARK                         _______ _______ _______ _____ _____    ______ ____
ROOT
ATOM      1  C   UNL     1     -34.555  25.584   5.266  0.00  0.00    +0.067 C 
ATOM      2  C   UNL     1     -36.735  24.859   4.518  0.00  0.00    +0.051 C 
ATOM      3  C   UNL     1     -35.870  25.882   4.908  0.00  0.00    +0.025 C 
ATOM      4  C   UNL     1     -34.106  24.263   5.235  0.00  0.00    +0.010 C 
ATOM      5  C   UNL     1     -36.286  23.540   4.487  0.00  0.00    +0.015 C 
ATOM      6  C   UNL     1     -34.972  23.241   4.846  0.00  0.00    +0.002 C 
ENDROOT
BRANCH   1  11
ATOM      7  N   UNL     1     -33.054  26.670   6.853  0.00  0.00    -0.110 NA
ATOM      8  N   UNL     1     -33.372  27.690   4.857  0.00  0.00    -0.087 NA
ATOM      9  N   UNL     1     -32.373  27.815   6.710  0.00  0.00    -0.140 N 
ATOM     10  N   UNL     1     -32.531  28.454   5.543  0.00  0.00    -0.022 NA
ATOM     11  C   UNL     1     -33.664  26.636   5.668  0.00  0.00    +0.074 C 
ATOM     12  H   UNL     1     -31.790  28.167   7.421  0.00  0.00    +0.197 HD
ENDBRANCH   1  11
BRANCH   2  14
ATOM     13  O   UNL     1     -37.950  25.512   1.825  0.00  0.00    -0.263 OA
ATOM     14  N   UNL     1     -38.050  25.157   4.158  0.00  0.00    -0.275 N 
ATOM     15  C   UNL     1     -38.543  25.451   2.889  0.00  0.00    +0.325 C 
ATOM     16  H   UNL     1     -38.708  25.159   4.890  0.00  0.00    +0.155 HD
BRANCH  15  18
ATOM     17  O   UNL     1     -40.823  25.128   2.189  0.00  0.00    -0.240 OA
ATOM     18  C   UNL     1     -40.036  25.722   2.898  0.00  0.00    +0.393 C 
BRANCH  18  19
ATOM     19  O   UNL     1     -40.327  26.685   3.786  0.00  0.00    -0.474 OA
ATOM     20  H   UNL     1     -41.196  26.760   4.127  0.00  0.00    +0.296 HD
ENDBRANCH  18  19
ENDBRANCH  15  18
ENDBRANCH   2  14
TORSDOF 4
ENDMDL
MODEL 2
REMARK VINA RESULT:      -6.0      3.628      4.557
REMARK  Name = 2006
REMARK  4 active torsions:
REMARK  status: ('A' for Active; 'I' for Inactive)
REMARK    1  A    between atoms: C_1  and  C_11
REMARK    2  A    between atoms: C_2  and  N_14
REMARK    3  A    between atoms: C_15  and  C_18
REMARK    4  A    between atoms: C_18  and  O_19
REMARK                            x       y       z     vdW  Elec       q    Type
REMARK                         _______ _______ _______ _____ _____    ______ ____
ROOT
ATOM      1  C   UNL     1     -35.017  24.079   4.700  0.00  0.00    +0.067 C 
ATOM      2  C   UNL     1     -35.748  21.987   3.739  0.00  0.00    +0.051 C 
ATOM      3  C   UNL     1     -35.522  23.358   3.618  0.00  0.00    +0.025 C 
ATOM      4  C   UNL     1     -34.739  23.429   5.902  0.00  0.00    +0.010 C 
ATOM      5  C   UNL     1     -35.470  21.337   4.940  0.00  0.00    +0.015 C 
ATOM      6  C   UNL     1     -34.966  22.058   6.023  0.00  0.00    +0.002 C 
ENDROOT
BRANCH   1  11
ATOM      7  N   UNL     1     -35.680  26.343   4.077  0.00  0.00    -0.110 NA
ATOM      8  N   UNL     1     -33.614  26.071   4.964  0.00  0.00    -0.087 NA
ATOM      9  N   UNL     1     -34.978  27.480   4.187  0.00  0.00    -0.140 N 
ATOM     10  N   UNL     1     -33.749  27.366   4.708  0.00  0.00    -0.022 NA
ATOM     11  C   UNL     1     -34.784  25.491   4.576  0.00  0.00    +0.074 C 
ATOM     12  H   UNL     1     -35.344  28.348   3.901  0.00  0.00    +0.197 HD
ENDBRANCH   1  11
BRANCH   2  14
ATOM     13  O   UNL     1     -34.457  19.880   1.992  0.00  0.00    -0.263 OA
ATOM     14  N   UNL     1     -36.252  21.264   2.656  0.00  0.00    -0.275 N 
ATOM     15  C   UNL     1     -35.597  20.303   1.891  0.00  0.00    +0.325 C 
ATOM     16  H   UNL     1     -37.183  21.458   2.403  0.00  0.00    +0.155 HD
BRANCH  15  18
ATOM     17  O   UNL     1     -36.683  20.310  -0.257  0.00  0.00    -0.240 OA
ATOM     18  C   UNL     1     -36.479  19.737   0.795  0.00  0.00    +0.393 C 
BRANCH  18  19
ATOM     19  O   UNL     1     -36.974  18.546   1.166  0.00  0.00    -0.474 OA
ATOM     20  H   UNL     1     -37.783  18.241   0.805  0.00  0.00    +0.296 HD
ENDBRANCH  18  19
ENDBRANCH  15  18
ENDBRANCH   2  14
TORSDOF 4
ENDMDL
MODEL 3
REMARK VINA RESULT:      -5.9      3.984      6.083
REMARK  Name = 2006
REMARK  4 active torsions:
REMARK  status: ('A' for Active; 'I' for Inactive)
REMARK    1  A    between atoms: C_1  and  C_11
REMARK    2  A    between atoms: C_2  and  N_14
REMARK    3  A    between atoms: C_15  and  C_18
REMARK    4  A    between atoms: C_18  and  O_19
REMARK                            x       y       z     vdW  Elec       q    Type
REMARK                         _______ _______ _______ _____ _____    ______ ____
ROOT
ATOM      1  C   UNL     1     -35.476  21.821   3.726  0.00  0.00    +0.067 C 
ATOM      2  C   UNL     1     -35.286  24.133   4.400  0.00  0.00    +0.051 C 
ATOM      3  C   UNL     1     -35.453  23.176   3.398  0.00  0.00    +0.025 C 
ATOM      4  C   UNL     1     -35.331  21.422   5.055  0.00  0.00    +0.010 C 
ATOM      5  C   UNL     1     -35.141  23.734   5.728  0.00  0.00    +0.015 C 
ATOM      6  C   UNL     1     -35.163  22.379   6.056  0.00  0.00    +0.002 C 
ENDROOT
BRANCH   1  11
ATOM      7  N   UNL     1     -34.698  19.968   2.342  0.00  0.00    -0.110 NA
ATOM      8  N   UNL     1     -36.808  20.713   1.993  0.00  0.00    -0.087 NA
ATOM      9  N   UNL     1     -35.358  19.310   1.379  0.00  0.00    -0.140 N 
ATOM     10  N   UNL     1     -36.612  19.717   1.138  0.00  0.00    -0.022 NA
ATOM     11  C   UNL     1     -35.648  20.835   2.696  0.00  0.00    +0.074 C 
ATOM     12  H   UNL     1     -34.945  18.571   0.876  0.00  0.00    +0.197 HD
ENDBRANCH   1  11
BRANCH   2  14
ATOM     13  O   UNL     1     -32.970  26.000   3.851  0.00  0.00    -0.263 OA
ATOM     14  N   UNL     1     -35.265  25.489   4.073  0.00  0.00    -0.275 N 
ATOM     15  C   UNL     1     -34.154  26.293   3.833  0.00  0.00    +0.325 C 
ATOM     16  H   UNL     1     -36.142  25.931   4.005  0.00  0.00    +0.155 HD
BRANCH  15  18
ATOM     17  O   UNL     1     -33.813  28.674   3.731  0.00  0.00    -0.240 OA
ATOM     18  C   UNL     1     -34.536  27.725   3.506  0.00  0.00    +0.393 C 
BRANCH  18  19
ATOM     19  O   UNL     1     -35.755  27.763   2.946  0.00  0.00    -0.474 OA
ATOM     20  H   UNL     1     -36.035  28.528   2.484  0.00  0.00    +0.296 HD
ENDBRANCH  18  19
ENDBRANCH  15  18
ENDBRANCH   2  14
TORSDOF 4
ENDMDL
MODEL 4
REMARK VINA RESULT:      -5.9      4.636      6.557
REMARK  Name = 2006
REMARK  4 active torsions:
REMARK  status: ('A' for Active; 'I' for Inactive)
REMARK    1  A    between atoms: C_1  and  C_11
REMARK    2  A    between atoms: C_2  and  N_14
REMARK    3  A    between atoms: C_15  and  C_18
REMARK    4  A    between atoms: C_18  and  O_19
REMARK                            x       y       z     vdW  Elec       q    Type
REMARK                         _______ _______ _______ _____ _____    ______ ____
ROOT
ATOM      1  C   UNL     1     -34.370  24.930   4.036  0.00  0.00    +0.067 C 
ATOM      2  C   UNL     1     -33.325  27.087   4.340  0.00  0.00    +0.051 C 
ATOM      3  C   UNL     1     -34.029  26.001   4.862  0.00  0.00    +0.025 C 
ATOM      4  C   UNL     1     -34.009  24.946   2.689  0.00  0.00    +0.010 C 
ATOM      5  C   UNL     1     -32.964  27.103   2.994  0.00  0.00    +0.015 C 
ATOM      6  C   UNL     1     -33.306  26.032   2.168  0.00  0.00    +0.002 C 
ENDROOT
BRANCH   1  11
ATOM      7  N   UNL     1     -35.753  22.933   3.817  0.00  0.00    -0.110 NA
ATOM      8  N   UNL     1     -35.163  23.565   5.910  0.00  0.00    -0.087 NA
ATOM      9  N   UNL     1     -36.228  22.135   4.783  0.00  0.00    -0.140 N 
ATOM     10  N   UNL     1     -35.903  22.471   6.039  0.00  0.00    -0.022 NA
ATOM     11  C   UNL     1     -35.094  23.812   4.572  0.00  0.00    +0.074 C 
ATOM     12  H   UNL     1     -36.784  21.347   4.582  0.00  0.00    +0.197 HD
ENDBRANCH   1  11
BRANCH   2  14
ATOM     13  O   UNL     1     -30.712  27.780   5.700  0.00  0.00    -0.263 OA
ATOM     14  N   UNL     1     -32.981  28.158   5.166  0.00  0.00    -0.275 N 
ATOM     15  C   UNL     1     -31.750  28.417   5.763  0.00  0.00    +0.325 C 
ATOM     16  H   UNL     1     -33.696  28.810   5.349  0.00  0.00    +0.155 HD
BRANCH  15  18
ATOM     17  O   UNL     1     -32.021  30.780   6.134  0.00  0.00    -0.240 OA
ATOM     18  C   UNL     1     -31.766  29.685   6.595  0.00  0.00    +0.393 C 
BRANCH  18  19
ATOM     19  O   UNL     1     -31.466  29.405   7.873  0.00  0.00    -0.474 OA
ATOM     20  H   UNL     1     -31.694  28.572   8.236  0.00  0.00    +0.296 HD
ENDBRANCH  18  19
ENDBRANCH  15  18
ENDBRANCH   2  14
TORSDOF 4
ENDMDL
MODEL 5
REMARK VINA RESULT:      -5.8      2.131      2.685
REMARK  Name = 2006
REMARK  4 active torsions:
REMARK  status: ('A' for Active; 'I' for Inactive)
REMARK    1  A    between atoms: C_1  and  C_11
REMARK    2  A    between atoms: C_2  and  N_14
REMARK    3  A    between atoms: C_15  and  C_18
REMARK    4  A    between atoms: C_18  and  O_19
REMARK                            x       y       z     vdW  Elec       q    Type
REMARK                         _______ _______ _______ _____ _____    ______ ____
ROOT
ATOM      1  C   UNL     1     -35.050  25.542   4.272  0.00  0.00    +0.067 C 
ATOM      2  C   UNL     1     -36.735  23.847   3.919  0.00  0.00    +0.051 C 
ATOM      3  C   UNL     1     -36.273  25.149   3.728  0.00  0.00    +0.025 C 
ATOM      4  C   UNL     1     -34.290  24.633   5.010  0.00  0.00    +0.010 C 
ATOM      5  C   UNL     1     -35.976  22.939   4.656  0.00  0.00    +0.015 C 
ATOM      6  C   UNL     1     -34.753  23.331   5.202  0.00  0.00    +0.002 C 
ENDROOT
BRANCH   1  11
ATOM      7  N   UNL     1     -35.180  27.770   3.287  0.00  0.00    -0.110 NA
ATOM      8  N   UNL     1     -33.450  27.351   4.688  0.00  0.00    -0.087 NA
ATOM      9  N   UNL     1     -34.352  28.810   3.460  0.00  0.00    -0.140 N 
ATOM     10  N   UNL     1     -33.313  28.607   4.282  0.00  0.00    -0.022 NA
ATOM     11  C   UNL     1     -34.573  26.882   4.076  0.00  0.00    +0.074 C 
ATOM     12  H   UNL     1     -34.498  29.673   3.009  0.00  0.00    +0.197 HD
ENDBRANCH   1  11
BRANCH   2  14
ATOM     13  O   UNL     1     -37.381  21.804   1.783  0.00  0.00    -0.263 OA
ATOM     14  N   UNL     1     -37.957  23.452   3.374  0.00  0.00    -0.275 N 
ATOM     15  C   UNL     1     -38.183  22.499   2.384  0.00  0.00    +0.325 C 
ATOM     16  H   UNL     1     -38.755  23.904   3.731  0.00  0.00    +0.155 HD
BRANCH  15  18
ATOM     17  O   UNL     1     -40.372  23.285   1.765  0.00  0.00    -0.240 OA
ATOM     18  C   UNL     1     -39.656  22.348   2.053  0.00  0.00    +0.393 C 
BRANCH  18  19
ATOM     19  O   UNL     1     -40.018  21.058   2.127  0.00  0.00    -0.474 OA
ATOM     20  H   UNL     1     -40.513  20.670   1.433  0.00  0.00    +0.296 HD
ENDBRANCH  18  19
ENDBRANCH  15  18
ENDBRANCH   2  14
TORSDOF 4
ENDMDL
MODEL 6
REMARK VINA RESULT:      -5.8      4.271      7.201
REMARK  Name = 2006
REMARK  4 active torsions:
REMARK  status: ('A' for Active; 'I' for Inactive)
REMARK    1  A    between atoms: C_1  and  C_11
REMARK    2  A    between atoms: C_2  and  N_14
REMARK    3  A    between atoms: C_15  and  C_18
REMARK    4  A    between atoms: C_18  and  O_19
REMARK                            x       y       z     vdW  Elec       q    Type
REMARK                         _______ _______ _______ _____ _____    ______ ____
ROOT
ATOM      1  C   UNL     1     -37.890  21.405   1.729  0.00  0.00    +0.067 C 
ATOM      2  C   UNL     1     -36.407  22.759   3.072  0.00  0.00    +0.051 C 
ATOM      3  C   UNL     1     -37.626  22.591   2.414  0.00  0.00    +0.025 C 
ATOM      4  C   UNL     1     -36.936  20.387   1.701  0.00  0.00    +0.010 C 
ATOM      5  C   UNL     1     -35.453  21.742   3.044  0.00  0.00    +0.015 C 
ATOM      6  C   UNL     1     -35.717  20.556   2.359  0.00  0.00    +0.002 C 
ENDROOT
BRANCH   1  11
ATOM      7  N   UNL     1     -40.231  21.956   1.318  0.00  0.00    -0.110 NA
ATOM      8  N   UNL     1     -39.318  20.299   0.073  0.00  0.00    -0.087 NA
ATOM      9  N   UNL     1     -41.078  21.404   0.438  0.00  0.00    -0.140 N 
ATOM     10  N   UNL     1     -40.579  20.418  -0.322  0.00  0.00    -0.022 NA
ATOM     11  C   UNL     1     -39.144  21.231   1.051  0.00  0.00    +0.074 C 
ATOM     12  H   UNL     1     -42.011  21.704   0.354  0.00  0.00    +0.197 HD
ENDBRANCH   1  11
BRANCH   2  14
ATOM     13  O   UNL     1     -35.873  23.269   6.006  0.00  0.00    -0.263 OA
ATOM     14  N   UNL     1     -36.142  23.944   3.759  0.00  0.00    -0.275 N 
ATOM     15  C   UNL     1     -35.905  24.108   5.121  0.00  0.00    +0.325 C 
ATOM     16  H   UNL     1     -36.121  24.764   3.214  0.00  0.00    +0.155 HD
BRANCH  15  18
ATOM     17  O   UNL     1     -34.612  25.949   5.976  0.00  0.00    -0.240 OA
ATOM     18  C   UNL     1     -35.655  25.557   5.494  0.00  0.00    +0.393 C 
BRANCH  18  19
ATOM     19  O   UNL     1     -36.736  26.301   5.212  0.00  0.00    -0.474 OA
ATOM     20  H   UNL     1     -36.769  27.199   5.477  0.00  0.00    +0.296 HD
ENDBRANCH  18  19
ENDBRANCH  15  18
ENDBRANCH   2  14
TORSDOF 4
ENDMDL
MODEL 7
REMARK VINA RESULT:      -5.7      3.438      6.208
REMARK  Name = 2006
REMARK  4 active torsions:
REMARK  status: ('A' for Active; 'I' for Inactive)
REMARK    1  A    between atoms: C_1  and  C_11
REMARK    2  A    between atoms: C_2  and  N_14
REMARK    3  A    between atoms: C_15  and  C_18
REMARK    4  A    between atoms: C_18  and  O_19
REMARK                            x       y       z     vdW  Elec       q    Type
REMARK                         _______ _______ _______ _____ _____    ______ ____
ROOT
ATOM      1  C   UNL     1     -36.789  24.919   4.170  0.00  0.00    +0.067 C 
ATOM      2  C   UNL     1     -34.758  25.582   5.297  0.00  0.00    +0.051 C 
ATOM      3  C   UNL     1     -35.939  25.922   4.635  0.00  0.00    +0.025 C 
ATOM      4  C   UNL     1     -36.459  23.578   4.364  0.00  0.00    +0.010 C 
ATOM      5  C   UNL     1     -34.428  24.242   5.491  0.00  0.00    +0.015 C 
ATOM      6  C   UNL     1     -35.279  23.239   5.025  0.00  0.00    +0.002 C 
ENDROOT
BRANCH   1  11
ATOM      7  N   UNL     1     -38.143  26.368   2.748  0.00  0.00    -0.110 NA
ATOM      8  N   UNL     1     -39.121  24.489   3.550  0.00  0.00    -0.087 NA
ATOM      9  N   UNL     1     -39.417  26.208   2.364  0.00  0.00    -0.140 N 
ATOM     10  N   UNL     1     -40.036  25.108   2.814  0.00  0.00    -0.022 NA
ATOM     11  C   UNL     1     -38.005  25.267   3.488  0.00  0.00    +0.074 C 
ATOM     12  H   UNL     1     -39.872  26.861   1.784  0.00  0.00    +0.197 HD
ENDBRANCH   1  11
BRANCH   2  14
ATOM     13  O   UNL     1     -32.417  26.968   3.973  0.00  0.00    -0.263 OA
ATOM     14  N   UNL     1     -33.907  26.584   5.764  0.00  0.00    -0.275 N 
ATOM     15  C   UNL     1     -32.840  27.180   5.097  0.00  0.00    +0.325 C 
ATOM     16  H   UNL     1     -34.082  26.909   6.678  0.00  0.00    +0.155 HD
BRANCH  15  18
ATOM     17  O   UNL     1     -32.380  29.424   5.836  0.00  0.00    -0.240 OA
ATOM     18  C   UNL     1     -32.149  28.236   5.938  0.00  0.00    +0.393 C 
BRANCH  18  19
ATOM     19  O   UNL     1     -31.278  27.661   6.781  0.00  0.00    -0.474 OA
ATOM     20  H   UNL     1     -31.452  27.653   7.701  0.00  0.00    +0.296 HD
ENDBRANCH  18  19
ENDBRANCH  15  18
ENDBRANCH   2  14
TORSDOF 4
ENDMDL
MODEL 8
REMARK VINA RESULT:      -5.5      3.410      4.491
REMARK  Name = 2006
REMARK  4 active torsions:
REMARK  status: ('A' for Active; 'I' for Inactive)
REMARK    1  A    between atoms: C_1  and  C_11
REMARK    2  A    between atoms: C_2  and  N_14
REMARK    3  A    between atoms: C_15  and  C_18
REMARK    4  A    between atoms: C_18  and  O_19
REMARK                            x       y       z     vdW  Elec       q    Type
REMARK                         _______ _______ _______ _____ _____    ______ ____
ROOT
ATOM      1  C   UNL     1     -35.003  25.363   4.394  0.00  0.00    +0.067 C 
ATOM      2  C   UNL     1     -35.648  23.451   3.067  0.00  0.00    +0.051 C 
ATOM      3  C   UNL     1     -34.653  24.244   3.639  0.00  0.00    +0.025 C 
ATOM      4  C   UNL     1     -36.347  25.691   4.575  0.00  0.00    +0.010 C 
ATOM      5  C   UNL     1     -36.991  23.778   3.247  0.00  0.00    +0.015 C 
ATOM      6  C   UNL     1     -37.341  24.898   4.001  0.00  0.00    +0.002 C 
ENDROOT
BRANCH   1  11
ATOM      7  N   UNL     1     -33.943  26.491   6.281  0.00  0.00    -0.110 NA
ATOM      8  N   UNL     1     -32.958  26.707   4.252  0.00  0.00    -0.087 NA
ATOM      9  N   UNL     1     -32.832  27.241   6.289  0.00  0.00    -0.140 N 
ATOM     10  N   UNL     1     -32.215  27.395   5.110  0.00  0.00    -0.022 NA
ATOM     11  C   UNL     1     -33.980  26.181   4.984  0.00  0.00    +0.074 C 
ATOM     12  H   UNL     1     -32.489  27.654   7.114  0.00  0.00    +0.197 HD
ENDBRANCH   1  11
BRANCH   2  14
ATOM     13  O   UNL     1     -35.326  20.550   3.866  0.00  0.00    -0.263 OA
ATOM     14  N   UNL     1     -35.299  22.329   2.313  0.00  0.00    -0.275 N 
ATOM     15  C   UNL     1     -35.167  21.013   2.749  0.00  0.00    +0.325 C 
ATOM     16  H   UNL     1     -35.124  22.488   1.357  0.00  0.00    +0.155 HD
BRANCH  15  18
ATOM     17  O   UNL     1     -33.671  20.074   1.114  0.00  0.00    -0.240 OA
ATOM     18  C   UNL     1     -34.771  20.070   1.629  0.00  0.00    +0.393 C 
BRANCH  18  19
ATOM     19  O   UNL     1     -35.797  19.263   1.318  0.00  0.00    -0.474 OA
ATOM     20  H   UNL     1     -36.459  19.080   1.955  0.00  0.00    +0.296 HD
ENDBRANCH  18  19
ENDBRANCH  15  18
ENDBRANCH   2  14
TORSDOF 4
ENDMDL
MODEL 9
REMARK VINA RESULT:      -5.5      3.098      4.185
REMARK  Name = 2006
REMARK  4 active torsions:
REMARK  status: ('A' for Active; 'I' for Inactive)
REMARK    1  A    between atoms: C_1  and  C_11
REMARK    2  A    between atoms: C_2  and  N_14
REMARK    3  A    between atoms: C_15  and  C_18
REMARK    4  A    between atoms: C_18  and  O_19
REMARK                            x       y       z     vdW  Elec       q    Type
REMARK                         _______ _______ _______ _____ _____    ______ ____
ROOT
ATOM      1  C   UNL     1     -33.386  27.277   3.746  0.00  0.00    +0.067 C 
ATOM      2  C   UNL     1     -34.104  24.970   3.778  0.00  0.00    +0.051 C 
ATOM      3  C   UNL     1     -33.726  26.127   4.460  0.00  0.00    +0.025 C 
ATOM      4  C   UNL     1     -33.422  27.268   2.352  0.00  0.00    +0.010 C 
ATOM      5  C   UNL     1     -34.141  24.962   2.384  0.00  0.00    +0.015 C 
ATOM      6  C   UNL     1     -33.800  26.111   1.671  0.00  0.00    +0.002 C 
ENDROOT
BRANCH   1  11
ATOM      7  N   UNL     1     -33.212  29.699   3.981  0.00  0.00    -0.110 NA
ATOM      8  N   UNL     1     -32.368  28.428   5.655  0.00  0.00    -0.087 NA
ATOM      9  N   UNL     1     -32.673  30.405   4.985  0.00  0.00    -0.140 N 
ATOM     10  N   UNL     1     -32.162  29.693   5.999  0.00  0.00    -0.022 NA
ATOM     11  C   UNL     1     -32.996  28.468   4.447  0.00  0.00    +0.074 C 
ATOM     12  H   UNL     1     -32.654  31.389   4.978  0.00  0.00    +0.197 HD
ENDBRANCH   1  11
BRANCH   2  14
ATOM     13  O   UNL     1     -36.802  23.724   4.348  0.00  0.00    -0.263 OA
ATOM     14  N   UNL     1     -34.446  23.821   4.491  0.00  0.00    -0.275 N 
ATOM     15  C   UNL     1     -35.718  23.301   4.716  0.00  0.00    +0.325 C 
ATOM     16  H   UNL     1     -33.697  23.315   4.882  0.00  0.00    +0.155 HD
BRANCH  15  18
ATOM     17  O   UNL     1     -35.953  21.997   6.725  0.00  0.00    -0.240 OA
ATOM     18  C   UNL     1     -35.685  22.029   5.541  0.00  0.00    +0.393 C 
BRANCH  18  19
ATOM     19  O   UNL     1     -35.329  20.988   4.773  0.00  0.00    -0.474 OA
ATOM     20  H   UNL     1     -35.197  20.144   5.159  0.00  0.00    +0.296 HD
ENDBRANCH  18  19
ENDBRANCH  15  18
ENDBRANCH   2  14
TORSDOF 4
ENDMDL
