MODEL 1
REMARK VINA RESULT:      -5.5      0.000      0.000
REMARK  Name = 196432
REMARK  16 active torsions:
REMARK  status: ('A' for Active; 'I' for Inactive)
REMARK    1  A    between atoms: C_2  and  C_9
REMARK    2  A    between atoms: C_3  and  C_20
REMARK    3  A    between atoms: C_4  and  O_7
REMARK    4  A    between atoms: C_10  and  C_11
REMARK    5  A    between atoms: C_11  and  O_12
REMARK    6  A    between atoms: C_11  and  C_15
REMARK    7  A    between atoms: O_12  and  O_13
REMARK    8  A    between atoms: C_15  and  C_16
REMARK    9  A    between atoms: C_16  and  C_17
REMARK   10  A    between atoms: C_17  and  C_18
REMARK   11  A    between atoms: C_20  and  C_21
REMARK   12  A    between atoms: C_22  and  C_23
REMARK   13  A    between atoms: C_23  and  C_24
REMARK   14  A    between atoms: C_24  and  C_25
REMARK   15  A    between atoms: C_25  and  C_27
REMARK   16  A    between atoms: C_27  and  O_28
REMARK                            x       y       z     vdW  Elec       q    Type
REMARK                         _______ _______ _______ _____ _____    ______ ____
ROOT
ATOM      1  O   UNL     1     -41.066  23.363   0.397  0.00  0.00    -0.296 OA
ATOM      2  C   UNL     1     -39.290  24.707   3.141  0.00  0.00    +0.056 C 
ATOM      3  C   UNL     1     -39.207  23.817   1.891  0.00  0.00    +0.068 C 
ATOM      4  C   UNL     1     -40.125  25.909   2.682  0.00  0.00    +0.122 C 
ATOM      5  C   UNL     1     -41.227  25.302   1.817  0.00  0.00    +0.094 C 
ATOM      6  C   UNL     1     -40.563  24.068   1.263  0.00  0.00    +0.153 C 
ENDROOT
BRANCH   4   7
ATOM      7  O   UNL     1     -40.682  26.574   3.804  0.00  0.00    -0.384 OA
ATOM      8  H   UNL     1     -40.014  27.157   4.200  0.00  0.00    +0.210 HD
ENDBRANCH   4   7
BRANCH   2   9
ATOM      9  C   UNL     1     -37.942  25.096   3.659  0.00  0.00    -0.026 C 
ATOM     10  C   UNL     1     -37.069  25.849   2.975  0.00  0.00    +0.002 C 
BRANCH  10  11
ATOM     11  C   UNL     1     -35.714  26.237   3.499  0.00  0.00    +0.173 C 
BRANCH  11  12
ATOM     12  O   UNL     1     -35.439  27.577   3.084  0.00  0.00    -0.222 OA
BRANCH  12  13
ATOM     13  O   UNL     1     -34.219  27.940   3.781  0.00  0.00    -0.249 OA
ATOM     14  H   UNL     1     -34.352  27.846   4.736  0.00  0.00    +0.253 HD
ENDBRANCH  12  13
ENDBRANCH  11  12
BRANCH  11  15
ATOM     15  C   UNL     1     -35.635  26.205   5.031  0.00  0.00    +0.037 C 
BRANCH  15  16
ATOM     16  C   UNL     1     -34.625  25.185   5.563  0.00  0.00    +0.003 C 
BRANCH  16  17
ATOM     17  C   UNL     1     -34.576  23.893   4.741  0.00  0.00    +0.000 C 
BRANCH  17  18
ATOM     18  C   UNL     1     -35.616  22.857   5.171  0.00  0.00    +0.000 C 
ATOM     19  C   UNL     1     -35.156  22.086   6.399  0.00  0.00    +0.000 C 
ENDBRANCH  17  18
ENDBRANCH  16  17
ENDBRANCH  15  16
ENDBRANCH  11  15
ENDBRANCH  10  11
ENDBRANCH   2   9
BRANCH   3  20
ATOM     20  C   UNL     1     -38.977  22.350   2.210  0.00  0.00    +0.033 C 
BRANCH  20  21
ATOM     21  C   UNL     1     -37.553  21.864   2.199  0.00  0.00    -0.030 C 
ATOM     22  C   UNL     1     -36.519  22.404   1.536  0.00  0.00    -0.031 C 
BRANCH  22  23
ATOM     23  C   UNL     1     -35.121  21.860   1.589  0.00  0.00    +0.026 C 
BRANCH  23  24
ATOM     24  C   UNL     1     -35.034  20.437   2.156  0.00  0.00    +0.016 C 
BRANCH  24  25
ATOM     25  C   UNL     1     -34.535  19.396   1.148  0.00  0.00    +0.110 C 
BRANCH  25  27
ATOM     26  O   UNL     1     -32.270  20.082   0.574  0.00  0.00    -0.250 OA
ATOM     27  C   UNL     1     -33.028  19.275   1.094  0.00  0.00    +0.314 C 
BRANCH  27  28
ATOM     28  O   UNL     1     -32.596  18.119   1.665  0.00  0.00    -0.480 OA
ATOM     29  H   UNL     1     -31.714  18.048   1.970  0.00  0.00    +0.295 HD
ENDBRANCH  27  28
ENDBRANCH  25  27
ENDBRANCH  24  25
ENDBRANCH  23  24
ENDBRANCH  22  23
ENDBRANCH  20  21
ENDBRANCH   3  20
TORSDOF 16
ENDMDL
MODEL 2
REMARK VINA RESULT:      -5.2      2.632      4.751
REMARK  Name = 196432
REMARK  16 active torsions:
REMARK  status: ('A' for Active; 'I' for Inactive)
REMARK    1  A    between atoms: C_2  and  C_9
REMARK    2  A    between atoms: C_3  and  C_20
REMARK    3  A    between atoms: C_4  and  O_7
REMARK    4  A    between atoms: C_10  and  C_11
REMARK    5  A    between atoms: C_11  and  O_12
REMARK    6  A    between atoms: C_11  and  C_15
REMARK    7  A    between atoms: O_12  and  O_13
REMARK    8  A    between atoms: C_15  and  C_16
REMARK    9  A    between atoms: C_16  and  C_17
REMARK   10  A    between atoms: C_17  and  C_18
REMARK   11  A    between atoms: C_20  and  C_21
REMARK   12  A    between atoms: C_22  and  C_23
REMARK   13  A    between atoms: C_23  and  C_24
REMARK   14  A    between atoms: C_24  and  C_25
REMARK   15  A    between atoms: C_25  and  C_27
REMARK   16  A    between atoms: C_27  and  O_28
REMARK                            x       y       z     vdW  Elec       q    Type
REMARK                         _______ _______ _______ _____ _____    ______ ____
ROOT
ATOM      1  O   UNL     1     -35.302  19.754  -1.646  0.00  0.00    -0.296 OA
ATOM      2  C   UNL     1     -35.383  21.280   1.542  0.00  0.00    +0.056 C 
ATOM      3  C   UNL     1     -35.060  21.473   0.052  0.00  0.00    +0.068 C 
ATOM      4  C   UNL     1     -36.699  20.489   1.533  0.00  0.00    +0.122 C 
ATOM      5  C   UNL     1     -36.523  19.468   0.411  0.00  0.00    +0.094 C 
ATOM      6  C   UNL     1     -35.587  20.178  -0.533  0.00  0.00    +0.153 C 
ENDROOT
BRANCH   4   7
ATOM      7  O   UNL     1     -36.882  19.834   2.778  0.00  0.00    -0.384 OA
ATOM      8  H   UNL     1     -37.750  20.071   3.143  0.00  0.00    +0.210 HD
ENDBRANCH   4   7
BRANCH   2   9
ATOM      9  C   UNL     1     -35.488  22.576   2.279  0.00  0.00    -0.026 C 
ATOM     10  C   UNL     1     -36.599  23.326   2.316  0.00  0.00    +0.002 C 
BRANCH  10  11
ATOM     11  C   UNL     1     -36.699  24.630   3.058  0.00  0.00    +0.173 C 
BRANCH  11  12
ATOM     12  O   UNL     1     -37.674  24.484   4.092  0.00  0.00    -0.222 OA
BRANCH  12  13
ATOM     13  O   UNL     1     -38.910  24.178   3.397  0.00  0.00    -0.249 OA
ATOM     14  H   UNL     1     -39.636  24.690   3.785  0.00  0.00    +0.253 HD
ENDBRANCH  12  13
ENDBRANCH  11  12
BRANCH  11  15
ATOM     15  C   UNL     1     -35.379  25.040   3.726  0.00  0.00    +0.037 C 
BRANCH  15  16
ATOM     16  C   UNL     1     -35.417  24.940   5.253  0.00  0.00    +0.003 C 
BRANCH  16  17
ATOM     17  C   UNL     1     -34.668  23.721   5.801  0.00  0.00    +0.000 C 
BRANCH  17  18
ATOM     18  C   UNL     1     -35.582  22.538   6.124  0.00  0.00    +0.000 C 
ATOM     19  C   UNL     1     -34.994  21.229   5.619  0.00  0.00    +0.000 C 
ENDBRANCH  17  18
ENDBRANCH  16  17
ENDBRANCH  15  16
ENDBRANCH  11  15
ENDBRANCH  10  11
ENDBRANCH   2   9
BRANCH   3  20
ATOM     20  C   UNL     1     -33.580  21.674  -0.222  0.00  0.00    +0.033 C 
BRANCH  20  21
ATOM     21  C   UNL     1     -32.650  20.570   0.206  0.00  0.00    -0.030 C 
ATOM     22  C   UNL     1     -31.516  20.188  -0.399  0.00  0.00    -0.031 C 
BRANCH  22  23
ATOM     23  C   UNL     1     -30.637  19.080   0.104  0.00  0.00    +0.026 C 
BRANCH  23  24
ATOM     24  C   UNL     1     -31.368  18.073   1.003  0.00  0.00    +0.016 C 
BRANCH  24  25
ATOM     25  C   UNL     1     -31.820  16.803   0.274  0.00  0.00    +0.110 C 
BRANCH  25  27
ATOM     26  O   UNL     1     -33.337  17.129  -1.602  0.00  0.00    -0.250 OA
ATOM     27  C   UNL     1     -33.165  16.938  -0.407  0.00  0.00    +0.314 C 
BRANCH  27  28
ATOM     28  O   UNL     1     -34.188  16.863   0.484  0.00  0.00    -0.480 OA
ATOM     29  H   UNL     1     -34.166  17.377   1.268  0.00  0.00    +0.295 HD
ENDBRANCH  27  28
ENDBRANCH  25  27
ENDBRANCH  24  25
ENDBRANCH  23  24
ENDBRANCH  22  23
ENDBRANCH  20  21
ENDBRANCH   3  20
TORSDOF 16
ENDMDL
MODEL 3
REMARK VINA RESULT:      -5.1      3.385      4.674
REMARK  Name = 196432
REMARK  16 active torsions:
REMARK  status: ('A' for Active; 'I' for Inactive)
REMARK    1  A    between atoms: C_2  and  C_9
REMARK    2  A    between atoms: C_3  and  C_20
REMARK    3  A    between atoms: C_4  and  O_7
REMARK    4  A    between atoms: C_10  and  C_11
REMARK    5  A    between atoms: C_11  and  O_12
REMARK    6  A    between atoms: C_11  and  C_15
REMARK    7  A    between atoms: O_12  and  O_13
REMARK    8  A    between atoms: C_15  and  C_16
REMARK    9  A    between atoms: C_16  and  C_17
REMARK   10  A    between atoms: C_17  and  C_18
REMARK   11  A    between atoms: C_20  and  C_21
REMARK   12  A    between atoms: C_22  and  C_23
REMARK   13  A    between atoms: C_23  and  C_24
REMARK   14  A    between atoms: C_24  and  C_25
REMARK   15  A    between atoms: C_25  and  C_27
REMARK   16  A    between atoms: C_27  and  O_28
REMARK                            x       y       z     vdW  Elec       q    Type
REMARK                         _______ _______ _______ _____ _____    ______ ____
ROOT
ATOM      1  O   UNL     1     -36.962  22.346  -1.425  0.00  0.00    -0.296 OA
ATOM      2  C   UNL     1     -35.614  21.531   1.739  0.00  0.00    +0.056 C 
ATOM      3  C   UNL     1     -35.769  22.625   0.671  0.00  0.00    +0.068 C 
ATOM      4  C   UNL     1     -37.004  20.885   1.809  0.00  0.00    +0.122 C 
ATOM      5  C   UNL     1     -37.459  20.799   0.354  0.00  0.00    +0.094 C 
ATOM      6  C   UNL     1     -36.751  21.970  -0.278  0.00  0.00    +0.153 C 
ENDROOT
BRANCH   4   7
ATOM      7  O   UNL     1     -36.912  19.590   2.379  0.00  0.00    -0.384 OA
ATOM      8  H   UNL     1     -36.525  19.654   3.267  0.00  0.00    +0.210 HD
ENDBRANCH   4   7
BRANCH   2   9
ATOM      9  C   UNL     1     -35.157  22.074   3.056  0.00  0.00    -0.026 C 
ATOM     10  C   UNL     1     -35.985  22.379   4.065  0.00  0.00    +0.002 C 
BRANCH  10  11
ATOM     11  C   UNL     1     -35.521  22.926   5.387  0.00  0.00    +0.173 C 
BRANCH  11  12
ATOM     12  O   UNL     1     -34.732  21.926   6.034  0.00  0.00    -0.222 OA
BRANCH  12  13
ATOM     13  O   UNL     1     -35.548  20.727   5.999  0.00  0.00    -0.249 OA
ATOM     14  H   UNL     1     -36.419  20.938   5.629  0.00  0.00    +0.253 HD
ENDBRANCH  12  13
ENDBRANCH  11  12
BRANCH  11  15
ATOM     15  C   UNL     1     -34.647  24.179   5.240  0.00  0.00    +0.037 C 
BRANCH  15  16
ATOM     16  C   UNL     1     -35.452  25.446   4.942  0.00  0.00    +0.003 C 
BRANCH  16  17
ATOM     17  C   UNL     1     -34.654  26.507   4.177  0.00  0.00    +0.000 C 
BRANCH  17  18
ATOM     18  C   UNL     1     -35.411  27.100   2.988  0.00  0.00    +0.000 C 
ATOM     19  C   UNL     1     -36.094  26.016   2.169  0.00  0.00    +0.000 C 
ENDBRANCH  17  18
ENDBRANCH  16  17
ENDBRANCH  15  16
ENDBRANCH  11  15
ENDBRANCH  10  11
ENDBRANCH   2   9
BRANCH   3  20
ATOM     20  C   UNL     1     -34.462  22.993  -0.008  0.00  0.00    +0.033 C 
BRANCH  20  21
ATOM     21  C   UNL     1     -33.630  21.861  -0.549  0.00  0.00    -0.030 C 
ATOM     22  C   UNL     1     -32.486  21.382  -0.038  0.00  0.00    -0.031 C 
BRANCH  22  23
ATOM     23  C   UNL     1     -31.722  20.237  -0.636  0.00  0.00    +0.026 C 
BRANCH  23  24
ATOM     24  C   UNL     1     -31.465  19.087   0.347  0.00  0.00    +0.016 C 
BRANCH  24  25
ATOM     25  C   UNL     1     -32.662  18.757   1.245  0.00  0.00    +0.110 C 
BRANCH  25  27
ATOM     26  O   UNL     1     -33.261  16.658   0.167  0.00  0.00    -0.250 OA
ATOM     27  C   UNL     1     -33.600  17.726   0.656  0.00  0.00    +0.314 C 
BRANCH  27  28
ATOM     28  O   UNL     1     -34.892  18.144   0.694  0.00  0.00    -0.480 OA
ATOM     29  H   UNL     1     -35.502  17.842   0.050  0.00  0.00    +0.295 HD
ENDBRANCH  27  28
ENDBRANCH  25  27
ENDBRANCH  24  25
ENDBRANCH  23  24
ENDBRANCH  22  23
ENDBRANCH  20  21
ENDBRANCH   3  20
TORSDOF 16
ENDMDL
MODEL 4
REMARK VINA RESULT:      -5.1      2.916      6.103
REMARK  Name = 196432
REMARK  16 active torsions:
REMARK  status: ('A' for Active; 'I' for Inactive)
REMARK    1  A    between atoms: C_2  and  C_9
REMARK    2  A    between atoms: C_3  and  C_20
REMARK    3  A    between atoms: C_4  and  O_7
REMARK    4  A    between atoms: C_10  and  C_11
REMARK    5  A    between atoms: C_11  and  O_12
REMARK    6  A    between atoms: C_11  and  C_15
REMARK    7  A    between atoms: O_12  and  O_13
REMARK    8  A    between atoms: C_15  and  C_16
REMARK    9  A    between atoms: C_16  and  C_17
REMARK   10  A    between atoms: C_17  and  C_18
REMARK   11  A    between atoms: C_20  and  C_21
REMARK   12  A    between atoms: C_22  and  C_23
REMARK   13  A    between atoms: C_23  and  C_24
REMARK   14  A    between atoms: C_24  and  C_25
REMARK   15  A    between atoms: C_25  and  C_27
REMARK   16  A    between atoms: C_27  and  O_28
REMARK                            x       y       z     vdW  Elec       q    Type
REMARK                         _______ _______ _______ _____ _____    ______ ____
ROOT
ATOM      1  O   UNL     1     -35.488  21.276  -1.850  0.00  0.00    -0.296 OA
ATOM      2  C   UNL     1     -35.479  21.520   1.676  0.00  0.00    +0.056 C 
ATOM      3  C   UNL     1     -35.292  22.278   0.352  0.00  0.00    +0.068 C 
ATOM      4  C   UNL     1     -36.703  20.630   1.420  0.00  0.00    +0.122 C 
ATOM      5  C   UNL     1     -36.511  20.115  -0.004  0.00  0.00    +0.094 C 
ATOM      6  C   UNL     1     -35.728  21.229  -0.650  0.00  0.00    +0.153 C 
ENDROOT
BRANCH   4   7
ATOM      7  O   UNL     1     -36.723  19.552   2.341  0.00  0.00    -0.384 OA
ATOM      8  H   UNL     1     -37.595  19.125   2.321  0.00  0.00    +0.210 HD
ENDBRANCH   4   7
BRANCH   2   9
ATOM      9  C   UNL     1     -35.658  22.437   2.843  0.00  0.00    -0.026 C 
ATOM     10  C   UNL     1     -35.551  22.047   4.122  0.00  0.00    +0.002 C 
BRANCH  10  11
ATOM     11  C   UNL     1     -35.733  22.973   5.292  0.00  0.00    +0.173 C 
BRANCH  11  12
ATOM     12  O   UNL     1     -35.876  22.181   6.473  0.00  0.00    -0.222 OA
BRANCH  12  13
ATOM     13  O   UNL     1     -35.472  20.845   6.076  0.00  0.00    -0.249 OA
ATOM     14  H   UNL     1     -35.659  20.223   6.795  0.00  0.00    +0.253 HD
ENDBRANCH  12  13
ENDBRANCH  11  12
BRANCH  11  15
ATOM     15  C   UNL     1     -34.535  23.907   5.507  0.00  0.00    +0.037 C 
BRANCH  15  16
ATOM     16  C   UNL     1     -34.914  25.390   5.486  0.00  0.00    +0.003 C 
BRANCH  16  17
ATOM     17  C   UNL     1     -36.366  25.641   5.066  0.00  0.00    +0.000 C 
BRANCH  17  18
ATOM     18  C   UNL     1     -36.516  26.032   3.595  0.00  0.00    +0.000 C 
ATOM     19  C   UNL     1     -37.761  25.411   2.980  0.00  0.00    +0.000 C 
ENDBRANCH  17  18
ENDBRANCH  16  17
ENDBRANCH  15  16
ENDBRANCH  11  15
ENDBRANCH  10  11
ENDBRANCH   2   9
BRANCH   3  20
ATOM     20  C   UNL     1     -33.865  22.745   0.122  0.00  0.00    +0.033 C 
BRANCH  20  21
ATOM     21  C   UNL     1     -33.523  24.141   0.569  0.00  0.00    -0.030 C 
ATOM     22  C   UNL     1     -34.345  25.200   0.615  0.00  0.00    -0.031 C 
BRANCH  22  23
ATOM     23  C   UNL     1     -33.924  26.561   1.087  0.00  0.00    +0.026 C 
BRANCH  23  24
ATOM     24  C   UNL     1     -33.167  26.543   2.422  0.00  0.00    +0.016 C 
BRANCH  24  25
ATOM     25  C   UNL     1     -33.030  27.922   3.077  0.00  0.00    +0.110 C 
BRANCH  25  27
ATOM     26  O   UNL     1     -32.760  28.129   5.488  0.00  0.00    -0.250 OA
ATOM     27  C   UNL     1     -32.276  27.900   4.389  0.00  0.00    +0.314 C 
BRANCH  27  28
ATOM     28  O   UNL     1     -30.956  27.633   4.204  0.00  0.00    -0.480 OA
ATOM     29  H   UNL     1     -30.642  26.754   4.276  0.00  0.00    +0.295 HD
ENDBRANCH  27  28
ENDBRANCH  25  27
ENDBRANCH  24  25
ENDBRANCH  23  24
ENDBRANCH  22  23
ENDBRANCH  20  21
ENDBRANCH   3  20
TORSDOF 16
ENDMDL
MODEL 5
REMARK VINA RESULT:      -5.1      2.431      6.819
REMARK  Name = 196432
REMARK  16 active torsions:
REMARK  status: ('A' for Active; 'I' for Inactive)
REMARK    1  A    between atoms: C_2  and  C_9
REMARK    2  A    between atoms: C_3  and  C_20
REMARK    3  A    between atoms: C_4  and  O_7
REMARK    4  A    between atoms: C_10  and  C_11
REMARK    5  A    between atoms: C_11  and  O_12
REMARK    6  A    between atoms: C_11  and  C_15
REMARK    7  A    between atoms: O_12  and  O_13
REMARK    8  A    between atoms: C_15  and  C_16
REMARK    9  A    between atoms: C_16  and  C_17
REMARK   10  A    between atoms: C_17  and  C_18
REMARK   11  A    between atoms: C_20  and  C_21
REMARK   12  A    between atoms: C_22  and  C_23
REMARK   13  A    between atoms: C_23  and  C_24
REMARK   14  A    between atoms: C_24  and  C_25
REMARK   15  A    between atoms: C_25  and  C_27
REMARK   16  A    between atoms: C_27  and  O_28
REMARK                            x       y       z     vdW  Elec       q    Type
REMARK                         _______ _______ _______ _____ _____    ______ ____
ROOT
ATOM      1  O   UNL     1     -37.861  20.857  -0.727  0.00  0.00    -0.296 OA
ATOM      2  C   UNL     1     -35.495  21.791   1.729  0.00  0.00    +0.056 C 
ATOM      3  C   UNL     1     -36.845  22.128   1.076  0.00  0.00    +0.068 C 
ATOM      4  C   UNL     1     -35.535  20.265   1.887  0.00  0.00    +0.122 C 
ATOM      5  C   UNL     1     -36.168  19.762   0.592  0.00  0.00    +0.094 C 
ATOM      6  C   UNL     1     -37.056  20.913   0.196  0.00  0.00    +0.153 C 
ENDROOT
BRANCH   4   7
ATOM      7  O   UNL     1     -34.219  19.755   2.029  0.00  0.00    -0.384 OA
ATOM      8  H   UNL     1     -33.883  19.969   2.914  0.00  0.00    +0.210 HD
ENDBRANCH   4   7
BRANCH   2   9
ATOM      9  C   UNL     1     -35.290  22.507   3.025  0.00  0.00    -0.026 C 
ATOM     10  C   UNL     1     -35.921  22.185   4.164  0.00  0.00    +0.002 C 
BRANCH  10  11
ATOM     11  C   UNL     1     -35.712  22.909   5.465  0.00  0.00    +0.173 C 
BRANCH  11  12
ATOM     12  O   UNL     1     -35.045  22.024   6.368  0.00  0.00    -0.222 OA
BRANCH  12  13
ATOM     13  O   UNL     1     -35.372  20.693   5.894  0.00  0.00    -0.249 OA
ATOM     14  H   UNL     1     -35.757  20.750   5.006  0.00  0.00    +0.253 HD
ENDBRANCH  12  13
ENDBRANCH  11  12
BRANCH  11  15
ATOM     15  C   UNL     1     -34.837  24.161   5.318  0.00  0.00    +0.037 C 
BRANCH  15  16
ATOM     16  C   UNL     1     -35.645  25.461   5.283  0.00  0.00    +0.003 C 
BRANCH  16  17
ATOM     17  C   UNL     1     -35.433  26.275   4.002  0.00  0.00    +0.000 C 
BRANCH  17  18
ATOM     18  C   UNL     1     -34.070  26.040   3.349  0.00  0.00    +0.000 C 
ATOM     19  C   UNL     1     -34.210  25.742   1.865  0.00  0.00    +0.000 C 
ENDBRANCH  17  18
ENDBRANCH  16  17
ENDBRANCH  15  16
ENDBRANCH  11  15
ENDBRANCH  10  11
ENDBRANCH   2   9
BRANCH   3  20
ATOM     20  C   UNL     1     -36.824  23.424   0.283  0.00  0.00    +0.033 C 
BRANCH  20  21
ATOM     21  C   UNL     1     -37.573  24.592   0.864  0.00  0.00    -0.030 C 
ATOM     22  C   UNL     1     -38.176  24.652   2.061  0.00  0.00    -0.031 C 
BRANCH  22  23
ATOM     23  C   UNL     1     -38.896  25.867   2.571  0.00  0.00    +0.026 C 
BRANCH  23  24
ATOM     24  C   UNL     1     -40.164  25.542   3.372  0.00  0.00    +0.016 C 
BRANCH  24  25
ATOM     25  C   UNL     1     -41.443  26.143   2.781  0.00  0.00    +0.110 C 
BRANCH  25  27
ATOM     26  O   UNL     1     -43.442  26.996   3.881  0.00  0.00    -0.250 OA
ATOM     27  C   UNL     1     -42.225  26.993   3.759  0.00  0.00    +0.314 C 
BRANCH  27  28
ATOM     28  O   UNL     1     -41.409  27.807   4.479  0.00  0.00    -0.480 OA
ATOM     29  H   UNL     1     -40.877  27.451   5.164  0.00  0.00    +0.295 HD
ENDBRANCH  27  28
ENDBRANCH  25  27
ENDBRANCH  24  25
ENDBRANCH  23  24
ENDBRANCH  22  23
ENDBRANCH  20  21
ENDBRANCH   3  20
TORSDOF 16
ENDMDL
MODEL 6
REMARK VINA RESULT:      -5.1      3.210      4.314
REMARK  Name = 196432
REMARK  16 active torsions:
REMARK  status: ('A' for Active; 'I' for Inactive)
REMARK    1  A    between atoms: C_2  and  C_9
REMARK    2  A    between atoms: C_3  and  C_20
REMARK    3  A    between atoms: C_4  and  O_7
REMARK    4  A    between atoms: C_10  and  C_11
REMARK    5  A    between atoms: C_11  and  O_12
REMARK    6  A    between atoms: C_11  and  C_15
REMARK    7  A    between atoms: O_12  and  O_13
REMARK    8  A    between atoms: C_15  and  C_16
REMARK    9  A    between atoms: C_16  and  C_17
REMARK   10  A    between atoms: C_17  and  C_18
REMARK   11  A    between atoms: C_20  and  C_21
REMARK   12  A    between atoms: C_22  and  C_23
REMARK   13  A    between atoms: C_23  and  C_24
REMARK   14  A    between atoms: C_24  and  C_25
REMARK   15  A    between atoms: C_25  and  C_27
REMARK   16  A    between atoms: C_27  and  O_28
REMARK                            x       y       z     vdW  Elec       q    Type
REMARK                         _______ _______ _______ _____ _____    ______ ____
ROOT
ATOM      1  O   UNL     1     -36.809  22.624  -1.700  0.00  0.00    -0.296 OA
ATOM      2  C   UNL     1     -36.867  22.275   1.817  0.00  0.00    +0.056 C 
ATOM      3  C   UNL     1     -36.288  23.061   0.631  0.00  0.00    +0.068 C 
ATOM      4  C   UNL     1     -38.349  22.101   1.454  0.00  0.00    +0.122 C 
ATOM      5  C   UNL     1     -38.342  21.788  -0.040  0.00  0.00    +0.094 C 
ATOM      6  C   UNL     1     -37.104  22.504  -0.517  0.00  0.00    +0.153 C 
ENDROOT
BRANCH   4   7
ATOM      7  O   UNL     1     -38.907  21.022   2.186  0.00  0.00    -0.384 OA
ATOM      8  H   UNL     1     -38.307  20.260   2.147  0.00  0.00    +0.210 HD
ENDBRANCH   4   7
BRANCH   2   9
ATOM      9  C   UNL     1     -36.666  22.974   3.124  0.00  0.00    -0.026 C 
ATOM     10  C   UNL     1     -36.040  22.425   4.175  0.00  0.00    +0.002 C 
BRANCH  10  11
ATOM     11  C   UNL     1     -35.841  23.132   5.487  0.00  0.00    +0.173 C 
BRANCH  11  12
ATOM     12  O   UNL     1     -35.809  22.150   6.525  0.00  0.00    -0.222 OA
BRANCH  12  13
ATOM     13  O   UNL     1     -35.392  20.926   5.867  0.00  0.00    -0.249 OA
ATOM     14  H   UNL     1     -34.434  20.945   5.723  0.00  0.00    +0.253 HD
ENDBRANCH  12  13
ENDBRANCH  11  12
BRANCH  11  15
ATOM     15  C   UNL     1     -34.521  23.912   5.551  0.00  0.00    +0.037 C 
BRANCH  15  16
ATOM     16  C   UNL     1     -34.717  25.429   5.589  0.00  0.00    +0.003 C 
BRANCH  16  17
ATOM     17  C   UNL     1     -34.621  26.090   4.210  0.00  0.00    +0.000 C 
BRANCH  17  18
ATOM     18  C   UNL     1     -33.741  25.319   3.224  0.00  0.00    +0.000 C 
ATOM     19  C   UNL     1     -33.673  26.020   1.876  0.00  0.00    +0.000 C 
ENDBRANCH  17  18
ENDBRANCH  16  17
ENDBRANCH  15  16
ENDBRANCH  11  15
ENDBRANCH  10  11
ENDBRANCH   2   9
BRANCH   3  20
ATOM     20  C   UNL     1     -34.796  22.850   0.440  0.00  0.00    +0.033 C 
BRANCH  20  21
ATOM     21  C   UNL     1     -34.234  21.520   0.866  0.00  0.00    -0.030 C 
ATOM     22  C   UNL     1     -33.828  20.521   0.068  0.00  0.00    -0.031 C 
BRANCH  22  23
ATOM     23  C   UNL     1     -33.267  19.225   0.578  0.00  0.00    +0.026 C 
BRANCH  23  24
ATOM     24  C   UNL     1     -34.124  18.002   0.227  0.00  0.00    +0.016 C 
BRANCH  24  25
ATOM     25  C   UNL     1     -35.359  18.330  -0.619  0.00  0.00    +0.110 C 
BRANCH  25  27
ATOM     26  O   UNL     1     -37.460  17.151  -0.263  0.00  0.00    -0.250 OA
ATOM     27  C   UNL     1     -36.670  18.022   0.071  0.00  0.00    +0.314 C 
BRANCH  27  28
ATOM     28  O   UNL     1     -36.901  18.870   1.108  0.00  0.00    -0.480 OA
ATOM     29  H   UNL     1     -36.726  18.595   1.986  0.00  0.00    +0.295 HD
ENDBRANCH  27  28
ENDBRANCH  25  27
ENDBRANCH  24  25
ENDBRANCH  23  24
ENDBRANCH  22  23
ENDBRANCH  20  21
ENDBRANCH   3  20
TORSDOF 16
ENDMDL
MODEL 7
REMARK VINA RESULT:      -5.0      2.198      5.814
REMARK  Name = 196432
REMARK  16 active torsions:
REMARK  status: ('A' for Active; 'I' for Inactive)
REMARK    1  A    between atoms: C_2  and  C_9
REMARK    2  A    between atoms: C_3  and  C_20
REMARK    3  A    between atoms: C_4  and  O_7
REMARK    4  A    between atoms: C_10  and  C_11
REMARK    5  A    between atoms: C_11  and  O_12
REMARK    6  A    between atoms: C_11  and  C_15
REMARK    7  A    between atoms: O_12  and  O_13
REMARK    8  A    between atoms: C_15  and  C_16
REMARK    9  A    between atoms: C_16  and  C_17
REMARK   10  A    between atoms: C_17  and  C_18
REMARK   11  A    between atoms: C_20  and  C_21
REMARK   12  A    between atoms: C_22  and  C_23
REMARK   13  A    between atoms: C_23  and  C_24
REMARK   14  A    between atoms: C_24  and  C_25
REMARK   15  A    between atoms: C_25  and  C_27
REMARK   16  A    between atoms: C_27  and  O_28
REMARK                            x       y       z     vdW  Elec       q    Type
REMARK                         _______ _______ _______ _____ _____    ______ ____
ROOT
ATOM      1  O   UNL     1     -32.933  26.888   4.962  0.00  0.00    -0.296 OA
ATOM      2  C   UNL     1     -35.821  25.756   3.266  0.00  0.00    +0.056 C 
ATOM      3  C   UNL     1     -35.279  26.430   4.537  0.00  0.00    +0.068 C 
ATOM      4  C   UNL     1     -35.021  26.413   2.133  0.00  0.00    +0.122 C 
ATOM      5  C   UNL     1     -33.598  26.515   2.678  0.00  0.00    +0.094 C 
ATOM      6  C   UNL     1     -33.826  26.638   4.162  0.00  0.00    +0.153 C 
ENDROOT
BRANCH   4   7
ATOM      7  O   UNL     1     -35.054  25.594   0.975  0.00  0.00    -0.384 OA
ATOM      8  H   UNL     1     -35.793  25.865   0.408  0.00  0.00    +0.210 HD
ENDBRANCH   4   7
BRANCH   2   9
ATOM      9  C   UNL     1     -37.298  25.925   3.111  0.00  0.00    -0.026 C 
ATOM     10  C   UNL     1     -38.186  24.938   3.299  0.00  0.00    +0.002 C 
BRANCH  10  11
ATOM     11  C   UNL     1     -39.671  25.112   3.141  0.00  0.00    +0.173 C 
BRANCH  11  12
ATOM     12  O   UNL     1     -39.933  26.486   2.853  0.00  0.00    -0.222 OA
BRANCH  12  13
ATOM     13  O   UNL     1     -40.831  26.923   3.906  0.00  0.00    -0.249 OA
ATOM     14  H   UNL     1     -40.316  27.162   4.692  0.00  0.00    +0.253 HD
ENDBRANCH  12  13
ENDBRANCH  11  12
BRANCH  11  15
ATOM     15  C   UNL     1     -40.249  24.281   1.987  0.00  0.00    +0.037 C 
BRANCH  15  16
ATOM     16  C   UNL     1     -39.461  24.426   0.683  0.00  0.00    +0.003 C 
BRANCH  16  17
ATOM     17  C   UNL     1     -40.112  25.386  -0.317  0.00  0.00    +0.000 C 
BRANCH  17  18
ATOM     18  C   UNL     1     -39.102  26.168  -1.159  0.00  0.00    +0.000 C 
ATOM     19  C   UNL     1     -38.167  26.988  -0.283  0.00  0.00    +0.000 C 
ENDBRANCH  17  18
ENDBRANCH  16  17
ENDBRANCH  15  16
ENDBRANCH  11  15
ENDBRANCH  10  11
ENDBRANCH   2   9
BRANCH   3  20
ATOM     20  C   UNL     1     -35.442  25.581   5.785  0.00  0.00    +0.033 C 
BRANCH  20  21
ATOM     21  C   UNL     1     -34.961  24.157   5.710  0.00  0.00    -0.030 C 
ATOM     22  C   UNL     1     -35.715  23.049   5.680  0.00  0.00    -0.031 C 
BRANCH  22  23
ATOM     23  C   UNL     1     -35.152  21.660   5.593  0.00  0.00    +0.026 C 
BRANCH  23  24
ATOM     24  C   UNL     1     -35.163  21.079   4.172  0.00  0.00    +0.016 C 
BRANCH  24  25
ATOM     25  C   UNL     1     -35.986  21.898   3.172  0.00  0.00    +0.110 C 
BRANCH  25  27
ATOM     26  O   UNL     1     -37.541  21.483   1.345  0.00  0.00    -0.250 OA
ATOM     27  C   UNL     1     -36.823  21.053   2.236  0.00  0.00    +0.314 C 
BRANCH  27  28
ATOM     28  O   UNL     1     -36.721  19.730   2.529  0.00  0.00    -0.480 OA
ATOM     29  H   UNL     1     -35.885  19.307   2.500  0.00  0.00    +0.295 HD
ENDBRANCH  27  28
ENDBRANCH  25  27
ENDBRANCH  24  25
ENDBRANCH  23  24
ENDBRANCH  22  23
ENDBRANCH  20  21
ENDBRANCH   3  20
TORSDOF 16
ENDMDL
MODEL 8
REMARK VINA RESULT:      -5.0      2.131      6.574
REMARK  Name = 196432
REMARK  16 active torsions:
REMARK  status: ('A' for Active; 'I' for Inactive)
REMARK    1  A    between atoms: C_2  and  C_9
REMARK    2  A    between atoms: C_3  and  C_20
REMARK    3  A    between atoms: C_4  and  O_7
REMARK    4  A    between atoms: C_10  and  C_11
REMARK    5  A    between atoms: C_11  and  O_12
REMARK    6  A    between atoms: C_11  and  C_15
REMARK    7  A    between atoms: O_12  and  O_13
REMARK    8  A    between atoms: C_15  and  C_16
REMARK    9  A    between atoms: C_16  and  C_17
REMARK   10  A    between atoms: C_17  and  C_18
REMARK   11  A    between atoms: C_20  and  C_21
REMARK   12  A    between atoms: C_22  and  C_23
REMARK   13  A    between atoms: C_23  and  C_24
REMARK   14  A    between atoms: C_24  and  C_25
REMARK   15  A    between atoms: C_25  and  C_27
REMARK   16  A    between atoms: C_27  and  O_28
REMARK                            x       y       z     vdW  Elec       q    Type
REMARK                         _______ _______ _______ _____ _____    ______ ____
ROOT
ATOM      1  O   UNL     1     -34.627  27.075   4.431  0.00  0.00    -0.296 OA
ATOM      2  C   UNL     1     -35.660  23.743   3.858  0.00  0.00    +0.056 C 
ATOM      3  C   UNL     1     -34.988  24.984   3.250  0.00  0.00    +0.068 C 
ATOM      4  C   UNL     1     -35.060  23.653   5.267  0.00  0.00    +0.122 C 
ATOM      5  C   UNL     1     -35.011  25.100   5.755  0.00  0.00    +0.094 C 
ATOM      6  C   UNL     1     -34.852  25.871   4.471  0.00  0.00    +0.153 C 
ENDROOT
BRANCH   4   7
ATOM      7  O   UNL     1     -35.897  22.873   6.105  0.00  0.00    -0.384 OA
ATOM      8  H   UNL     1     -35.775  23.146   7.028  0.00  0.00    +0.210 HD
ENDBRANCH   4   7
BRANCH   2   9
ATOM      9  C   UNL     1     -35.429  22.509   3.046  0.00  0.00    -0.026 C 
ATOM     10  C   UNL     1     -36.357  21.562   2.847  0.00  0.00    +0.002 C 
BRANCH  10  11
ATOM     11  C   UNL     1     -36.120  20.322   2.031  0.00  0.00    +0.173 C 
BRANCH  11  12
ATOM     12  O   UNL     1     -36.571  20.569   0.698  0.00  0.00    -0.222 OA
BRANCH  12  13
ATOM     13  O   UNL     1     -37.853  19.895   0.607  0.00  0.00    -0.249 OA
ATOM     14  H   UNL     1     -38.435  20.387   0.008  0.00  0.00    +0.253 HD
ENDBRANCH  12  13
ENDBRANCH  11  12
BRANCH  11  15
ATOM     15  C   UNL     1     -34.637  19.935   1.951  0.00  0.00    +0.037 C 
BRANCH  15  16
ATOM     16  C   UNL     1     -34.110  19.855   0.516  0.00  0.00    +0.003 C 
BRANCH  16  17
ATOM     17  C   UNL     1     -32.743  20.523   0.333  0.00  0.00    +0.000 C 
BRANCH  17  18
ATOM     18  C   UNL     1     -31.613  19.532   0.046  0.00  0.00    +0.000 C 
ATOM     19  C   UNL     1     -31.699  18.315   0.955  0.00  0.00    +0.000 C 
ENDBRANCH  17  18
ENDBRANCH  16  17
ENDBRANCH  15  16
ENDBRANCH  11  15
ENDBRANCH  10  11
ENDBRANCH   2   9
BRANCH   3  20
ATOM     20  C   UNL     1     -35.807  25.634   2.148  0.00  0.00    +0.033 C 
BRANCH  20  21
ATOM     21  C   UNL     1     -37.291  25.744   2.375  0.00  0.00    -0.030 C 
ATOM     22  C   UNL     1     -38.220  26.125   1.484  0.00  0.00    -0.031 C 
BRANCH  22  23
ATOM     23  C   UNL     1     -39.687  26.196   1.791  0.00  0.00    +0.026 C 
BRANCH  23  24
ATOM     24  C   UNL     1     -40.258  24.898   2.378  0.00  0.00    +0.016 C 
BRANCH  24  25
ATOM     25  C   UNL     1     -40.621  23.846   1.324  0.00  0.00    +0.110 C 
BRANCH  25  27
ATOM     26  O   UNL     1     -39.960  21.632   2.092  0.00  0.00    -0.250 OA
ATOM     27  C   UNL     1     -39.757  22.605   1.380  0.00  0.00    +0.314 C 
BRANCH  27  28
ATOM     28  O   UNL     1     -38.677  22.708   0.562  0.00  0.00    -0.480 OA
ATOM     29  H   UNL     1     -37.851  22.984   0.908  0.00  0.00    +0.295 HD
ENDBRANCH  27  28
ENDBRANCH  25  27
ENDBRANCH  24  25
ENDBRANCH  23  24
ENDBRANCH  22  23
ENDBRANCH  20  21
ENDBRANCH   3  20
TORSDOF 16
ENDMDL
MODEL 9
REMARK VINA RESULT:      -5.0      3.557      5.288
REMARK  Name = 196432
REMARK  16 active torsions:
REMARK  status: ('A' for Active; 'I' for Inactive)
REMARK    1  A    between atoms: C_2  and  C_9
REMARK    2  A    between atoms: C_3  and  C_20
REMARK    3  A    between atoms: C_4  and  O_7
REMARK    4  A    between atoms: C_10  and  C_11
REMARK    5  A    between atoms: C_11  and  O_12
REMARK    6  A    between atoms: C_11  and  C_15
REMARK    7  A    between atoms: O_12  and  O_13
REMARK    8  A    between atoms: C_15  and  C_16
REMARK    9  A    between atoms: C_16  and  C_17
REMARK   10  A    between atoms: C_17  and  C_18
REMARK   11  A    between atoms: C_20  and  C_21
REMARK   12  A    between atoms: C_22  and  C_23
REMARK   13  A    between atoms: C_23  and  C_24
REMARK   14  A    between atoms: C_24  and  C_25
REMARK   15  A    between atoms: C_25  and  C_27
REMARK   16  A    between atoms: C_27  and  O_28
REMARK                            x       y       z     vdW  Elec       q    Type
REMARK                         _______ _______ _______ _____ _____    ______ ____
ROOT
ATOM      1  O   UNL     1     -35.184  20.758  -1.931  0.00  0.00    -0.296 OA
ATOM      2  C   UNL     1     -35.367  21.210   1.570  0.00  0.00    +0.056 C 
ATOM      3  C   UNL     1     -34.969  21.846   0.229  0.00  0.00    +0.068 C 
ATOM      4  C   UNL     1     -36.704  20.520   1.267  0.00  0.00    +0.122 C 
ATOM      5  C   UNL     1     -36.507  19.895  -0.113  0.00  0.00    +0.094 C 
ATOM      6  C   UNL     1     -35.508  20.824  -0.751  0.00  0.00    +0.153 C 
ENDROOT
BRANCH   4   7
ATOM      7  O   UNL     1     -36.966  19.518   2.235  0.00  0.00    -0.384 OA
ATOM      8  H   UNL     1     -36.713  19.842   3.114  0.00  0.00    +0.210 HD
ENDBRANCH   4   7
BRANCH   2   9
ATOM      9  C   UNL     1     -35.466  22.214   2.674  0.00  0.00    -0.026 C 
ATOM     10  C   UNL     1     -35.560  21.889   3.971  0.00  0.00    +0.002 C 
BRANCH  10  11
ATOM     11  C   UNL     1     -35.661  22.901   5.078  0.00  0.00    +0.173 C 
BRANCH  11  12
ATOM     12  O   UNL     1     -35.830  22.202   6.313  0.00  0.00    -0.222 OA
BRANCH  12  13
ATOM     13  O   UNL     1     -35.493  20.824   6.009  0.00  0.00    -0.249 OA
ATOM     14  H   UNL     1     -36.094  20.485   5.328  0.00  0.00    +0.253 HD
ENDBRANCH  12  13
ENDBRANCH  11  12
BRANCH  11  15
ATOM     15  C   UNL     1     -34.402  23.769   5.210  0.00  0.00    +0.037 C 
BRANCH  15  16
ATOM     16  C   UNL     1     -34.709  25.265   5.329  0.00  0.00    +0.003 C 
BRANCH  16  17
ATOM     17  C   UNL     1     -36.102  25.642   4.814  0.00  0.00    +0.000 C 
BRANCH  17  18
ATOM     18  C   UNL     1     -36.085  26.298   3.433  0.00  0.00    +0.000 C 
ATOM     19  C   UNL     1     -34.919  27.264   3.292  0.00  0.00    +0.000 C 
ENDBRANCH  17  18
ENDBRANCH  16  17
ENDBRANCH  15  16
ENDBRANCH  11  15
ENDBRANCH  10  11
ENDBRANCH   2   9
BRANCH   3  20
ATOM     20  C   UNL     1     -33.472  22.058   0.083  0.00  0.00    +0.033 C 
BRANCH  20  21
ATOM     21  C   UNL     1     -32.586  20.868   0.340  0.00  0.00    -0.030 C 
ATOM     22  C   UNL     1     -31.521  20.483  -0.378  0.00  0.00    -0.031 C 
BRANCH  22  23
ATOM     23  C   UNL     1     -30.681  19.284  -0.044  0.00  0.00    +0.026 C 
BRANCH  23  24
ATOM     24  C   UNL     1     -31.493  18.083   0.461  0.00  0.00    +0.016 C 
BRANCH  24  25
ATOM     25  C   UNL     1     -31.608  16.941  -0.554  0.00  0.00    +0.110 C 
BRANCH  25  27
ATOM     26  O   UNL     1     -33.715  15.830  -0.047  0.00  0.00    -0.250 OA
ATOM     27  C   UNL     1     -32.493  15.804  -0.093  0.00  0.00    +0.314 C 
BRANCH  27  28
ATOM     28  O   UNL     1     -31.763  14.734   0.316  0.00  0.00    -0.480 OA
ATOM     29  H   UNL     1     -30.830  14.800   0.381  0.00  0.00    +0.295 HD
ENDBRANCH  27  28
ENDBRANCH  25  27
ENDBRANCH  24  25
ENDBRANCH  23  24
ENDBRANCH  22  23
ENDBRANCH  20  21
ENDBRANCH   3  20
TORSDOF 16
ENDMDL
