MODEL 1
REMARK VINA RESULT:      -4.4      0.000      0.000
REMARK  Name = 18949
REMARK  10 active torsions:
REMARK  status: ('A' for Active; 'I' for Inactive)
REMARK    1  A    between atoms: N_1  and  C_4
REMARK    2  A    between atoms: N_1  and  C_12
REMARK    3  A    between atoms: C_4  and  C_5
REMARK    4  A    between atoms: C_5  and  C_6
REMARK    5  A    between atoms: C_6  and  O_7
REMARK    6  A    between atoms: O_7  and  S_8
REMARK    7  A    between atoms: C_12  and  C_13
REMARK    8  A    between atoms: C_13  and  C_14
REMARK    9  A    between atoms: C_14  and  O_15
REMARK   10  A    between atoms: O_15  and  S_16
REMARK                            x       y       z     vdW  Elec       q    Type
REMARK                         _______ _______ _______ _____ _____    ______ ____
ROOT
ATOM      1  N   UNL     1     -35.609  27.028   4.411  0.00  0.00    +0.384 N 
ATOM      2  H   UNL     1     -35.507  27.927   4.880  0.00  0.00    -0.085 HD
ATOM      3  H   UNL     1     -36.573  26.895   4.103  0.00  0.00    -0.085 HD
ENDROOT
BRANCH   1   4
ATOM      4  C   UNL     1     -35.267  25.962   5.344  0.00  0.00    -0.079 C 
BRANCH   4   5
ATOM      5  C   UNL     1     -34.788  24.728   4.586  0.00  0.00    +0.011 C 
BRANCH   5   6
ATOM      6  C   UNL     1     -35.928  23.748   4.336  0.00  0.00    +0.170 C 
BRANCH   6   7
ATOM      7  O   UNL     1     -37.163  24.421   4.532  0.00  0.00    -0.242 OA
BRANCH   7   8
ATOM      8  S   UNL     1     -38.189  24.560   3.268  0.00  0.00    -0.005 S 
ATOM      9  O   UNL     1     -37.685  25.559   2.348  0.00  0.00    -0.072 OA
ATOM     10  O   UNL     1     -39.553  24.582   3.756  0.00  0.00    -0.072 OA
ATOM     11  C   UNL     1     -37.876  22.959   2.571  0.00  0.00    +0.181 C 
ENDBRANCH   7   8
ENDBRANCH   6   7
ENDBRANCH   5   6
ENDBRANCH   4   5
ENDBRANCH   1   4
BRANCH   1  12
ATOM     12  C   UNL     1     -34.739  26.996   3.243  0.00  0.00    -0.079 C 
BRANCH  12  13
ATOM     13  C   UNL     1     -34.408  28.415   2.792  0.00  0.00    +0.011 C 
BRANCH  13  14
ATOM     14  C   UNL     1     -33.013  28.831   3.236  0.00  0.00    +0.170 C 
BRANCH  14  15
ATOM     15  O   UNL     1     -32.513  27.865   4.150  0.00  0.00    -0.242 OA
BRANCH  15  16
ATOM     16  S   UNL     1     -31.878  28.377   5.565  0.00  0.00    -0.005 S 
ATOM     17  O   UNL     1     -31.897  27.289   6.522  0.00  0.00    -0.072 OA
ATOM     18  O   UNL     1     -32.406  29.688   5.882  0.00  0.00    -0.072 OA
ATOM     19  C   UNL     1     -30.213  28.575   4.986  0.00  0.00    +0.181 C 
ENDBRANCH  15  16
ENDBRANCH  14  15
ENDBRANCH  13  14
ENDBRANCH  12  13
ENDBRANCH   1  12
TORSDOF 10
ENDMDL
MODEL 2
REMARK VINA RESULT:      -4.4      4.937      7.271
REMARK  Name = 18949
REMARK  10 active torsions:
REMARK  status: ('A' for Active; 'I' for Inactive)
REMARK    1  A    between atoms: N_1  and  C_4
REMARK    2  A    between atoms: N_1  and  C_12
REMARK    3  A    between atoms: C_4  and  C_5
REMARK    4  A    between atoms: C_5  and  C_6
REMARK    5  A    between atoms: C_6  and  O_7
REMARK    6  A    between atoms: O_7  and  S_8
REMARK    7  A    between atoms: C_12  and  C_13
REMARK    8  A    between atoms: C_13  and  C_14
REMARK    9  A    between atoms: C_14  and  O_15
REMARK   10  A    between atoms: O_15  and  S_16
REMARK                            x       y       z     vdW  Elec       q    Type
REMARK                         _______ _______ _______ _____ _____    ______ ____
ROOT
ATOM      1  N   UNL     1     -36.470  22.217   4.012  0.00  0.00    +0.384 N 
ATOM      2  H   UNL     1     -36.475  23.226   4.163  0.00  0.00    -0.085 HD
ATOM      3  H   UNL     1     -37.361  21.810   4.299  0.00  0.00    -0.085 HD
ENDROOT
BRANCH   1   4
ATOM      4  C   UNL     1     -35.407  21.621   4.811  0.00  0.00    -0.079 C 
BRANCH   4   5
ATOM      5  C   UNL     1     -35.290  22.333   6.154  0.00  0.00    +0.011 C 
BRANCH   5   6
ATOM      6  C   UNL     1     -35.356  23.847   5.992  0.00  0.00    +0.170 C 
BRANCH   6   7
ATOM      7  O   UNL     1     -34.337  24.256   5.091  0.00  0.00    -0.242 OA
BRANCH   7   8
ATOM      8  S   UNL     1     -34.423  25.752   4.439  0.00  0.00    -0.005 S 
ATOM      9  O   UNL     1     -33.846  25.729   3.110  0.00  0.00    -0.072 OA
ATOM     10  O   UNL     1     -34.032  26.732   5.431  0.00  0.00    -0.072 OA
ATOM     11  C   UNL     1     -36.189  25.805   4.274  0.00  0.00    +0.181 C 
ENDBRANCH   7   8
ENDBRANCH   6   7
ENDBRANCH   5   6
ENDBRANCH   4   5
ENDBRANCH   1   4
BRANCH   1  12
ATOM     12  C   UNL     1     -36.270  21.947   2.595  0.00  0.00    -0.079 C 
BRANCH  12  13
ATOM     13  C   UNL     1     -35.911  20.480   2.382  0.00  0.00    +0.011 C 
BRANCH  13  14
ATOM     14  C   UNL     1     -34.724  20.327   1.441  0.00  0.00    +0.170 C 
BRANCH  14  15
ATOM     15  O   UNL     1     -33.897  19.272   1.911  0.00  0.00    -0.242 OA
BRANCH  15  16
ATOM     16  S   UNL     1     -32.615  18.816   1.007  0.00  0.00    -0.005 S 
ATOM     17  O   UNL     1     -31.941  17.709   1.654  0.00  0.00    -0.072 OA
ATOM     18  O   UNL     1     -31.902  19.993   0.556  0.00  0.00    -0.072 OA
ATOM     19  C   UNL     1     -33.545  18.174  -0.361  0.00  0.00    +0.181 C 
ENDBRANCH  15  16
ENDBRANCH  14  15
ENDBRANCH  13  14
ENDBRANCH  12  13
ENDBRANCH   1  12
TORSDOF 10
ENDMDL
MODEL 3
REMARK VINA RESULT:      -4.3      2.782      6.498
REMARK  Name = 18949
REMARK  10 active torsions:
REMARK  status: ('A' for Active; 'I' for Inactive)
REMARK    1  A    between atoms: N_1  and  C_4
REMARK    2  A    between atoms: N_1  and  C_12
REMARK    3  A    between atoms: C_4  and  C_5
REMARK    4  A    between atoms: C_5  and  C_6
REMARK    5  A    between atoms: C_6  and  O_7
REMARK    6  A    between atoms: O_7  and  S_8
REMARK    7  A    between atoms: C_12  and  C_13
REMARK    8  A    between atoms: C_13  and  C_14
REMARK    9  A    between atoms: C_14  and  O_15
REMARK   10  A    between atoms: O_15  and  S_16
REMARK                            x       y       z     vdW  Elec       q    Type
REMARK                         _______ _______ _______ _____ _____    ______ ____
ROOT
ATOM      1  N   UNL     1     -36.122  21.691   4.130  0.00  0.00    +0.384 N 
ATOM      2  H   UNL     1     -36.197  22.693   3.953  0.00  0.00    -0.085 HD
ATOM      3  H   UNL     1     -37.029  21.309   4.399  0.00  0.00    -0.085 HD
ENDROOT
BRANCH   1   4
ATOM      4  C   UNL     1     -35.180  21.468   5.219  0.00  0.00    -0.079 C 
BRANCH   4   5
ATOM      5  C   UNL     1     -35.180  22.658   6.172  0.00  0.00    +0.011 C 
BRANCH   5   6
ATOM      6  C   UNL     1     -35.598  23.941   5.463  0.00  0.00    +0.170 C 
BRANCH   6   7
ATOM      7  O   UNL     1     -34.571  24.321   4.558  0.00  0.00    -0.242 OA
BRANCH   7   8
ATOM      8  S   UNL     1     -34.112  25.888   4.506  0.00  0.00    -0.005 S 
ATOM      9  O   UNL     1     -32.868  25.999   3.772  0.00  0.00    -0.072 OA
ATOM     10  O   UNL     1     -34.290  26.485   5.814  0.00  0.00    -0.072 OA
ATOM     11  C   UNL     1     -35.426  26.453   3.456  0.00  0.00    +0.181 C 
ENDBRANCH   7   8
ENDBRANCH   6   7
ENDBRANCH   5   6
ENDBRANCH   4   5
ENDBRANCH   1   4
BRANCH   1  12
ATOM     12  C   UNL     1     -35.679  21.023   2.914  0.00  0.00    -0.079 C 
BRANCH  12  13
ATOM     13  C   UNL     1     -36.651  21.303   1.773  0.00  0.00    +0.011 C 
BRANCH  13  14
ATOM     14  C   UNL     1     -37.843  22.124   2.242  0.00  0.00    +0.170 C 
BRANCH  14  15
ATOM     15  O   UNL     1     -37.525  23.504   2.129  0.00  0.00    -0.242 OA
BRANCH  15  16
ATOM     16  S   UNL     1     -38.695  24.607   2.416  0.00  0.00    -0.005 S 
ATOM     17  O   UNL     1     -38.437  25.796   1.629  0.00  0.00    -0.072 OA
ATOM     18  O   UNL     1     -38.961  24.668   3.838  0.00  0.00    -0.072 OA
ATOM     19  C   UNL     1     -40.017  23.710   1.644  0.00  0.00    +0.181 C 
ENDBRANCH  15  16
ENDBRANCH  14  15
ENDBRANCH  13  14
ENDBRANCH  12  13
ENDBRANCH   1  12
TORSDOF 10
ENDMDL
MODEL 4
REMARK VINA RESULT:      -4.3      2.993      4.644
REMARK  Name = 18949
REMARK  10 active torsions:
REMARK  status: ('A' for Active; 'I' for Inactive)
REMARK    1  A    between atoms: N_1  and  C_4
REMARK    2  A    between atoms: N_1  and  C_12
REMARK    3  A    between atoms: C_4  and  C_5
REMARK    4  A    between atoms: C_5  and  C_6
REMARK    5  A    between atoms: C_6  and  O_7
REMARK    6  A    between atoms: O_7  and  S_8
REMARK    7  A    between atoms: C_12  and  C_13
REMARK    8  A    between atoms: C_13  and  C_14
REMARK    9  A    between atoms: C_14  and  O_15
REMARK   10  A    between atoms: O_15  and  S_16
REMARK                            x       y       z     vdW  Elec       q    Type
REMARK                         _______ _______ _______ _____ _____    ______ ____
ROOT
ATOM      1  N   UNL     1     -35.761  21.834   3.900  0.00  0.00    +0.384 N 
ATOM      2  H   UNL     1     -36.752  22.068   3.944  0.00  0.00    -0.085 HD
ATOM      3  H   UNL     1     -35.214  22.651   3.627  0.00  0.00    -0.085 HD
ENDROOT
BRANCH   1   4
ATOM      4  C   UNL     1     -35.563  20.787   2.905  0.00  0.00    -0.079 C 
BRANCH   4   5
ATOM      5  C   UNL     1     -35.920  21.303   1.515  0.00  0.00    +0.011 C 
BRANCH   5   6
ATOM      6  C   UNL     1     -37.422  21.514   1.366  0.00  0.00    +0.170 C 
BRANCH   6   7
ATOM      7  O   UNL     1     -37.690  22.908   1.351  0.00  0.00    -0.242 OA
BRANCH   7   8
ATOM      8  S   UNL     1     -38.857  23.493   2.332  0.00  0.00    -0.005 S 
ATOM      9  O   UNL     1     -38.262  23.936   3.576  0.00  0.00    -0.072 OA
ATOM     10  O   UNL     1     -40.002  22.605   2.301  0.00  0.00    -0.072 OA
ATOM     11  C   UNL     1     -39.243  24.928   1.362  0.00  0.00    +0.181 C 
ENDBRANCH   7   8
ENDBRANCH   6   7
ENDBRANCH   5   6
ENDBRANCH   4   5
ENDBRANCH   1   4
BRANCH   1  12
ATOM     12  C   UNL     1     -35.315  21.393   5.214  0.00  0.00    -0.079 C 
BRANCH  12  13
ATOM     13  C   UNL     1     -35.282  22.570   6.184  0.00  0.00    +0.011 C 
BRANCH  13  14
ATOM     14  C   UNL     1     -35.539  23.889   5.470  0.00  0.00    +0.170 C 
BRANCH  14  15
ATOM     15  O   UNL     1     -34.293  24.475   5.121  0.00  0.00    -0.242 OA
BRANCH  15  16
ATOM     16  S   UNL     1     -34.153  25.222   3.675  0.00  0.00    -0.005 S 
ATOM     17  O   UNL     1     -34.801  24.422   2.656  0.00  0.00    -0.072 OA
ATOM     18  O   UNL     1     -32.801  25.719   3.519  0.00  0.00    -0.072 OA
ATOM     19  C   UNL     1     -35.208  26.599   4.051  0.00  0.00    +0.181 C 
ENDBRANCH  15  16
ENDBRANCH  14  15
ENDBRANCH  13  14
ENDBRANCH  12  13
ENDBRANCH   1  12
TORSDOF 10
ENDMDL
MODEL 5
REMARK VINA RESULT:      -4.3      1.158      6.792
REMARK  Name = 18949
REMARK  10 active torsions:
REMARK  status: ('A' for Active; 'I' for Inactive)
REMARK    1  A    between atoms: N_1  and  C_4
REMARK    2  A    between atoms: N_1  and  C_12
REMARK    3  A    between atoms: C_4  and  C_5
REMARK    4  A    between atoms: C_5  and  C_6
REMARK    5  A    between atoms: C_6  and  O_7
REMARK    6  A    between atoms: O_7  and  S_8
REMARK    7  A    between atoms: C_12  and  C_13
REMARK    8  A    between atoms: C_13  and  C_14
REMARK    9  A    between atoms: C_14  and  O_15
REMARK   10  A    between atoms: O_15  and  S_16
REMARK                            x       y       z     vdW  Elec       q    Type
REMARK                         _______ _______ _______ _____ _____    ______ ____
ROOT
ATOM      1  N   UNL     1     -34.437  25.388   4.120  0.00  0.00    +0.384 N 
ATOM      2  H   UNL     1     -33.464  25.281   3.836  0.00  0.00    -0.085 HD
ATOM      3  H   UNL     1     -35.052  24.891   3.475  0.00  0.00    -0.085 HD
ENDROOT
BRANCH   1   4
ATOM      4  C   UNL     1     -34.787  26.803   4.099  0.00  0.00    -0.079 C 
BRANCH   4   5
ATOM      5  C   UNL     1     -33.996  27.528   3.016  0.00  0.00    +0.011 C 
BRANCH   5   6
ATOM      6  C   UNL     1     -32.760  28.211   3.588  0.00  0.00    +0.170 C 
BRANCH   6   7
ATOM      7  O   UNL     1     -32.199  27.377   4.593  0.00  0.00    -0.242 OA
BRANCH   7   8
ATOM      8  S   UNL     1     -31.747  28.053   6.009  0.00  0.00    -0.005 S 
ATOM      9  O   UNL     1     -30.337  27.807   6.230  0.00  0.00    -0.072 OA
ATOM     10  O   UNL     1     -32.745  27.766   7.020  0.00  0.00    -0.072 OA
ATOM     11  C   UNL     1     -31.942  29.743   5.504  0.00  0.00    +0.181 C 
ENDBRANCH   7   8
ENDBRANCH   6   7
ENDBRANCH   5   6
ENDBRANCH   4   5
ENDBRANCH   1   4
BRANCH   1  12
ATOM     12  C   UNL     1     -34.611  24.829   5.453  0.00  0.00    -0.079 C 
BRANCH  12  13
ATOM     13  C   UNL     1     -34.821  23.321   5.371  0.00  0.00    +0.011 C 
BRANCH  13  14
ATOM     14  C   UNL     1     -35.910  22.962   4.370  0.00  0.00    +0.170 C 
BRANCH  14  15
ATOM     15  O   UNL     1     -36.972  23.899   4.489  0.00  0.00    -0.242 OA
BRANCH  15  16
ATOM     16  S   UNL     1     -37.878  24.231   3.171  0.00  0.00    -0.005 S 
ATOM     17  O   UNL     1     -37.118  25.067   2.264  0.00  0.00    -0.072 OA
ATOM     18  O   UNL     1     -39.223  24.571   3.586  0.00  0.00    -0.072 OA
ATOM     19  C   UNL     1     -37.901  22.582   2.515  0.00  0.00    +0.181 C 
ENDBRANCH  15  16
ENDBRANCH  14  15
ENDBRANCH  13  14
ENDBRANCH  12  13
ENDBRANCH   1  12
TORSDOF 10
ENDMDL
MODEL 6
REMARK VINA RESULT:      -4.2      3.240      7.418
REMARK  Name = 18949
REMARK  10 active torsions:
REMARK  status: ('A' for Active; 'I' for Inactive)
REMARK    1  A    between atoms: N_1  and  C_4
REMARK    2  A    between atoms: N_1  and  C_12
REMARK    3  A    between atoms: C_4  and  C_5
REMARK    4  A    between atoms: C_5  and  C_6
REMARK    5  A    between atoms: C_6  and  O_7
REMARK    6  A    between atoms: O_7  and  S_8
REMARK    7  A    between atoms: C_12  and  C_13
REMARK    8  A    between atoms: C_13  and  C_14
REMARK    9  A    between atoms: C_14  and  O_15
REMARK   10  A    between atoms: O_15  and  S_16
REMARK                            x       y       z     vdW  Elec       q    Type
REMARK                         _______ _______ _______ _____ _____    ______ ____
ROOT
ATOM      1  N   UNL     1     -35.800  24.140   4.933  0.00  0.00    +0.384 N 
ATOM      2  H   UNL     1     -35.130  24.048   4.169  0.00  0.00    -0.085 HD
ATOM      3  H   UNL     1     -36.736  23.886   4.618  0.00  0.00    -0.085 HD
ENDROOT
BRANCH   1   4
ATOM      4  C   UNL     1     -35.820  25.526   5.384  0.00  0.00    -0.079 C 
BRANCH   4   5
ATOM      5  C   UNL     1     -34.444  25.937   5.897  0.00  0.00    +0.011 C 
BRANCH   5   6
ATOM      6  C   UNL     1     -33.647  26.676   4.829  0.00  0.00    +0.170 C 
BRANCH   6   7
ATOM      7  O   UNL     1     -32.445  27.163   5.407  0.00  0.00    -0.242 OA
BRANCH   7   8
ATOM      8  S   UNL     1     -31.943  28.669   5.021  0.00  0.00    -0.005 S 
ATOM      9  O   UNL     1     -33.044  29.407   4.438  0.00  0.00    -0.072 OA
ATOM     10  O   UNL     1     -30.643  28.594   4.384  0.00  0.00    -0.072 OA
ATOM     11  C   UNL     1     -31.711  29.242   6.684  0.00  0.00    +0.181 C 
ENDBRANCH   7   8
ENDBRANCH   6   7
ENDBRANCH   5   6
ENDBRANCH   4   5
ENDBRANCH   1   4
BRANCH   1  12
ATOM     12  C   UNL     1     -35.415  23.246   6.016  0.00  0.00    -0.079 C 
BRANCH  12  13
ATOM     13  C   UNL     1     -35.183  21.837   5.481  0.00  0.00    +0.011 C 
BRANCH  13  14
ATOM     14  C   UNL     1     -35.615  21.713   4.027  0.00  0.00    +0.170 C 
BRANCH  14  15
ATOM     15  O   UNL     1     -35.228  20.437   3.538  0.00  0.00    -0.242 OA
BRANCH  15  16
ATOM     16  S   UNL     1     -35.096  20.220   1.925  0.00  0.00    -0.005 S 
ATOM     17  O   UNL     1     -36.384  19.836   1.385  0.00  0.00    -0.072 OA
ATOM     18  O   UNL     1     -33.888  19.474   1.637  0.00  0.00    -0.072 OA
ATOM     19  C   UNL     1     -34.808  21.921   1.511  0.00  0.00    +0.181 C 
ENDBRANCH  15  16
ENDBRANCH  14  15
ENDBRANCH  13  14
ENDBRANCH  12  13
ENDBRANCH   1  12
TORSDOF 10
ENDMDL
MODEL 7
REMARK VINA RESULT:      -4.2      1.586      1.633
REMARK  Name = 18949
REMARK  10 active torsions:
REMARK  status: ('A' for Active; 'I' for Inactive)
REMARK    1  A    between atoms: N_1  and  C_4
REMARK    2  A    between atoms: N_1  and  C_12
REMARK    3  A    between atoms: C_4  and  C_5
REMARK    4  A    between atoms: C_5  and  C_6
REMARK    5  A    between atoms: C_6  and  O_7
REMARK    6  A    between atoms: O_7  and  S_8
REMARK    7  A    between atoms: C_12  and  C_13
REMARK    8  A    between atoms: C_13  and  C_14
REMARK    9  A    between atoms: C_14  and  O_15
REMARK   10  A    between atoms: O_15  and  S_16
REMARK                            x       y       z     vdW  Elec       q    Type
REMARK                         _______ _______ _______ _____ _____    ______ ____
ROOT
ATOM      1  N   UNL     1     -35.215  27.033   4.617  0.00  0.00    +0.384 N 
ATOM      2  H   UNL     1     -34.474  27.444   5.183  0.00  0.00    -0.085 HD
ATOM      3  H   UNL     1     -35.932  27.728   4.410  0.00  0.00    -0.085 HD
ENDROOT
BRANCH   1   4
ATOM      4  C   UNL     1     -35.829  25.938   5.358  0.00  0.00    -0.079 C 
BRANCH   4   5
ATOM      5  C   UNL     1     -34.887  24.740   5.411  0.00  0.00    +0.011 C 
BRANCH   5   6
ATOM      6  C   UNL     1     -35.651  23.424   5.348  0.00  0.00    +0.170 C 
BRANCH   6   7
ATOM      7  O   UNL     1     -36.782  23.590   4.505  0.00  0.00    -0.242 OA
BRANCH   7   8
ATOM      8  S   UNL     1     -36.751  22.929   3.011  0.00  0.00    -0.005 S 
ATOM      9  O   UNL     1     -36.049  23.819   2.108  0.00  0.00    -0.072 OA
ATOM     10  O   UNL     1     -38.057  22.388   2.697  0.00  0.00    -0.072 OA
ATOM     11  C   UNL     1     -35.671  21.577   3.406  0.00  0.00    +0.181 C 
ENDBRANCH   7   8
ENDBRANCH   6   7
ENDBRANCH   5   6
ENDBRANCH   4   5
ENDBRANCH   1   4
BRANCH   1  12
ATOM     12  C   UNL     1     -34.651  26.558   3.361  0.00  0.00    -0.079 C 
BRANCH  12  13
ATOM     13  C   UNL     1     -33.173  26.924   3.275  0.00  0.00    +0.011 C 
BRANCH  13  14
ATOM     14  C   UNL     1     -32.841  28.122   4.154  0.00  0.00    +0.170 C 
BRANCH  14  15
ATOM     15  O   UNL     1     -32.296  27.656   5.380  0.00  0.00    -0.242 OA
BRANCH  15  16
ATOM     16  S   UNL     1     -31.138  28.544   6.113  0.00  0.00    -0.005 S 
ATOM     17  O   UNL     1     -29.961  27.725   6.317  0.00  0.00    -0.072 OA
ATOM     18  O   UNL     1     -31.731  29.319   7.184  0.00  0.00    -0.072 OA
ATOM     19  C   UNL     1     -30.822  29.636   4.750  0.00  0.00    +0.181 C 
ENDBRANCH  15  16
ENDBRANCH  14  15
ENDBRANCH  13  14
ENDBRANCH  12  13
ENDBRANCH   1  12
TORSDOF 10
ENDMDL
MODEL 8
REMARK VINA RESULT:      -4.2      4.667      6.929
REMARK  Name = 18949
REMARK  10 active torsions:
REMARK  status: ('A' for Active; 'I' for Inactive)
REMARK    1  A    between atoms: N_1  and  C_4
REMARK    2  A    between atoms: N_1  and  C_12
REMARK    3  A    between atoms: C_4  and  C_5
REMARK    4  A    between atoms: C_5  and  C_6
REMARK    5  A    between atoms: C_6  and  O_7
REMARK    6  A    between atoms: O_7  and  S_8
REMARK    7  A    between atoms: C_12  and  C_13
REMARK    8  A    between atoms: C_13  and  C_14
REMARK    9  A    between atoms: C_14  and  O_15
REMARK   10  A    between atoms: O_15  and  S_16
REMARK                            x       y       z     vdW  Elec       q    Type
REMARK                         _______ _______ _______ _____ _____    ______ ____
ROOT
ATOM      1  N   UNL     1     -36.323  22.473   4.400  0.00  0.00    +0.384 N 
ATOM      2  H   UNL     1     -37.050  23.140   4.142  0.00  0.00    -0.085 HD
ATOM      3  H   UNL     1     -36.740  21.612   4.756  0.00  0.00    -0.085 HD
ENDROOT
BRANCH   1   4
ATOM      4  C   UNL     1     -35.490  23.054   5.446  0.00  0.00    -0.079 C 
BRANCH   4   5
ATOM      5  C   UNL     1     -35.158  24.505   5.113  0.00  0.00    +0.011 C 
BRANCH   5   6
ATOM      6  C   UNL     1     -36.420  25.339   4.928  0.00  0.00    +0.170 C 
BRANCH   6   7
ATOM      7  O   UNL     1     -36.593  25.610   3.545  0.00  0.00    -0.242 OA
BRANCH   7   8
ATOM      8  S   UNL     1     -38.046  25.310   2.862  0.00  0.00    -0.005 S 
ATOM      9  O   UNL     1     -38.739  26.562   2.639  0.00  0.00    -0.072 OA
ATOM     10  O   UNL     1     -38.674  24.193   3.540  0.00  0.00    -0.072 OA
ATOM     11  C   UNL     1     -37.427  24.734   1.302  0.00  0.00    +0.181 C 
ENDBRANCH   7   8
ENDBRANCH   6   7
ENDBRANCH   5   6
ENDBRANCH   4   5
ENDBRANCH   1   4
BRANCH   1  12
ATOM     12  C   UNL     1     -35.530  22.152   3.222  0.00  0.00    -0.079 C 
BRANCH  12  13
ATOM     13  C   UNL     1     -35.370  20.642   3.086  0.00  0.00    +0.011 C 
BRANCH  13  14
ATOM     14  C   UNL     1     -35.159  20.230   1.636  0.00  0.00    +0.170 C 
BRANCH  14  15
ATOM     15  O   UNL     1     -33.774  20.004   1.418  0.00  0.00    -0.242 OA
BRANCH  15  16
ATOM     16  S   UNL     1     -33.299  18.563   0.813  0.00  0.00    -0.005 S 
ATOM     17  O   UNL     1     -34.451  17.859   0.286  0.00  0.00    -0.072 OA
ATOM     18  O   UNL     1     -32.371  17.938   1.733  0.00  0.00    -0.072 OA
ATOM     19  C   UNL     1     -32.372  19.208  -0.556  0.00  0.00    +0.181 C 
ENDBRANCH  15  16
ENDBRANCH  14  15
ENDBRANCH  13  14
ENDBRANCH  12  13
ENDBRANCH   1  12
TORSDOF 10
ENDMDL
MODEL 9
REMARK VINA RESULT:      -4.2      1.827      2.715
REMARK  Name = 18949
REMARK  10 active torsions:
REMARK  status: ('A' for Active; 'I' for Inactive)
REMARK    1  A    between atoms: N_1  and  C_4
REMARK    2  A    between atoms: N_1  and  C_12
REMARK    3  A    between atoms: C_4  and  C_5
REMARK    4  A    between atoms: C_5  and  C_6
REMARK    5  A    between atoms: C_6  and  O_7
REMARK    6  A    between atoms: O_7  and  S_8
REMARK    7  A    between atoms: C_12  and  C_13
REMARK    8  A    between atoms: C_13  and  C_14
REMARK    9  A    between atoms: C_14  and  O_15
REMARK   10  A    between atoms: O_15  and  S_16
REMARK                            x       y       z     vdW  Elec       q    Type
REMARK                         _______ _______ _______ _____ _____    ______ ____
ROOT
ATOM      1  N   UNL     1     -36.318  26.956   2.883  0.00  0.00    +0.384 N 
ATOM      2  H   UNL     1     -36.064  26.125   3.417  0.00  0.00    -0.085 HD
ATOM      3  H   UNL     1     -36.591  27.712   3.511  0.00  0.00    -0.085 HD
ENDROOT
BRANCH   1   4
ATOM      4  C   UNL     1     -37.447  26.639   2.017  0.00  0.00    -0.079 C 
BRANCH   4   5
ATOM      5  C   UNL     1     -38.382  25.650   2.706  0.00  0.00    +0.011 C 
BRANCH   5   6
ATOM      6  C   UNL     1     -37.654  24.369   3.093  0.00  0.00    +0.170 C 
BRANCH   6   7
ATOM      7  O   UNL     1     -37.356  24.412   4.481  0.00  0.00    -0.242 OA
BRANCH   7   8
ATOM      8  S   UNL     1     -35.841  24.048   4.969  0.00  0.00    -0.005 S 
ATOM      9  O   UNL     1     -35.897  22.995   5.963  0.00  0.00    -0.072 OA
ATOM     10  O   UNL     1     -35.098  25.272   5.188  0.00  0.00    -0.072 OA
ATOM     11  C   UNL     1     -35.296  23.335   3.438  0.00  0.00    +0.181 C 
ENDBRANCH   7   8
ENDBRANCH   6   7
ENDBRANCH   5   6
ENDBRANCH   4   5
ENDBRANCH   1   4
BRANCH   1  12
ATOM     12  C   UNL     1     -35.169  27.391   2.102  0.00  0.00    -0.079 C 
BRANCH  12  13
ATOM     13  C   UNL     1     -34.933  28.885   2.296  0.00  0.00    +0.011 C 
BRANCH  13  14
ATOM     14  C   UNL     1     -33.676  29.151   3.112  0.00  0.00    +0.170 C 
BRANCH  14  15
ATOM     15  O   UNL     1     -33.677  28.299   4.249  0.00  0.00    -0.242 OA
BRANCH  15  16
ATOM     16  S   UNL     1     -32.258  27.984   4.995  0.00  0.00    -0.005 S 
ATOM     17  O   UNL     1     -31.274  27.589   4.009  0.00  0.00    -0.072 OA
ATOM     18  O   UNL     1     -32.507  27.204   6.190  0.00  0.00    -0.072 OA
ATOM     19  C   UNL     1     -31.909  29.653   5.488  0.00  0.00    +0.181 C 
ENDBRANCH  15  16
ENDBRANCH  14  15
ENDBRANCH  13  14
ENDBRANCH  12  13
ENDBRANCH   1  12
TORSDOF 10
ENDMDL
