MODEL 1
REMARK VINA RESULT:      -5.3      0.000      0.000
REMARK  Name = 5934456
REMARK  4 active torsions:
REMARK  status: ('A' for Active; 'I' for Inactive)
REMARK    1  A    between atoms: N_1  and  C_2
REMARK    2  A    between atoms: N_1  and  N_4
REMARK    3  A    between atoms: C_2  and  C_11
REMARK    4  A    between atoms: C_13  and  N_17
REMARK                            x       y       z     vdW  Elec       q    Type
REMARK                         _______ _______ _______ _____ _____    ______ ____
ROOT
ATOM      1  C   UNL     1     -35.270  20.358   2.252  0.00  0.00    +0.176 C 
ENDROOT
BRANCH   1   3
ATOM      2  O   UNL     1     -33.512  18.835   1.727  0.00  0.00    -0.436 OA
ATOM      3  C   UNL     1     -34.065  20.024   1.473  0.00  0.00    +0.144 C 
ATOM      4  C   UNL     1     -33.425  20.736   0.531  0.00  0.00    +0.040 C 
ATOM      5  C   UNL     1     -32.439  18.768   0.895  0.00  0.00    +0.289 C 
ATOM      6  C   UNL     1     -32.343  19.913   0.139  0.00  0.00    +0.066 C 
BRANCH   5   9
ATOM      7  O   UNL     1     -30.536  17.625   1.503  0.00  0.00    -0.123 OA
ATOM      8  O   UNL     1     -32.164  16.512   0.529  0.00  0.00    -0.123 OA
ATOM      9  N   UNL     1     -31.687  17.595   0.978  0.00  0.00    +0.093 N 
ENDBRANCH   5   9
ENDBRANCH   1   3
BRANCH   1  10
ATOM     10  N   UNL     1     -35.223  20.571   3.527  0.00  0.00    -0.114 NA
BRANCH  10  12
ATOM     11  O   UNL     1     -35.069  21.734   6.164  0.00  0.00    -0.251 OA
ATOM     12  N   UNL     1     -35.653  21.788   3.884  0.00  0.00    -0.166 N 
ATOM     13  N   UNL     1     -36.101  23.582   5.151  0.00  0.00    -0.265 N 
ATOM     14  C   UNL     1     -36.264  22.711   2.968  0.00  0.00    +0.104 C 
ATOM     15  C   UNL     1     -36.575  23.929   3.832  0.00  0.00    +0.083 C 
ATOM     16  C   UNL     1     -35.546  22.291   5.184  0.00  0.00    +0.326 C 
ATOM     17  H   UNL     1     -36.160  24.178   5.933  0.00  0.00    +0.157 HD
ENDBRANCH  10  12
ENDBRANCH   1  10
TORSDOF 4
ENDMDL
MODEL 2
REMARK VINA RESULT:      -5.3      4.555      7.365
REMARK  Name = 5934456
REMARK  4 active torsions:
REMARK  status: ('A' for Active; 'I' for Inactive)
REMARK    1  A    between atoms: N_1  and  C_2
REMARK    2  A    between atoms: N_1  and  N_4
REMARK    3  A    between atoms: C_2  and  C_11
REMARK    4  A    between atoms: C_13  and  N_17
REMARK                            x       y       z     vdW  Elec       q    Type
REMARK                         _______ _______ _______ _____ _____    ______ ____
ROOT
ATOM      1  C   UNL     1     -35.856  25.520   5.496  0.00  0.00    +0.176 C 
ENDROOT
BRANCH   1   3
ATOM      2  O   UNL     1     -33.888  26.864   5.575  0.00  0.00    -0.436 OA
ATOM      3  C   UNL     1     -34.763  26.220   4.798  0.00  0.00    +0.144 C 
ATOM      4  C   UNL     1     -34.501  26.313   3.485  0.00  0.00    +0.040 C 
ATOM      5  C   UNL     1     -32.997  27.414   4.710  0.00  0.00    +0.289 C 
ATOM      6  C   UNL     1     -33.330  27.104   3.412  0.00  0.00    +0.066 C 
BRANCH   5   9
ATOM      7  O   UNL     1     -30.782  28.023   4.870  0.00  0.00    -0.123 OA
ATOM      8  O   UNL     1     -32.227  28.946   6.247  0.00  0.00    -0.123 OA
ATOM      9  N   UNL     1     -31.967  28.152   5.296  0.00  0.00    +0.093 N 
ENDBRANCH   5   9
ENDBRANCH   1   3
BRANCH   1  10
ATOM     10  N   UNL     1     -36.605  24.652   4.898  0.00  0.00    -0.114 NA
BRANCH  10  12
ATOM     11  O   UNL     1     -36.614  22.769   2.710  0.00  0.00    -0.251 OA
ATOM     12  N   UNL     1     -36.105  23.409   4.918  0.00  0.00    -0.166 N 
ATOM     13  N   UNL     1     -35.526  21.355   4.234  0.00  0.00    -0.265 N 
ATOM     14  C   UNL     1     -35.472  22.830   6.070  0.00  0.00    +0.104 C 
ATOM     15  C   UNL     1     -35.084  21.429   5.606  0.00  0.00    +0.083 C 
ATOM     16  C   UNL     1     -36.143  22.547   3.818  0.00  0.00    +0.326 C 
ATOM     17  H   UNL     1     -35.409  20.564   3.659  0.00  0.00    +0.157 HD
ENDBRANCH  10  12
ENDBRANCH   1  10
TORSDOF 4
ENDMDL
MODEL 3
REMARK VINA RESULT:      -5.3      3.609      5.555
REMARK  Name = 5934456
REMARK  4 active torsions:
REMARK  status: ('A' for Active; 'I' for Inactive)
REMARK    1  A    between atoms: N_1  and  C_2
REMARK    2  A    between atoms: N_1  and  N_4
REMARK    3  A    between atoms: C_2  and  C_11
REMARK    4  A    between atoms: C_13  and  N_17
REMARK                            x       y       z     vdW  Elec       q    Type
REMARK                         _______ _______ _______ _____ _____    ______ ____
ROOT
ATOM      1  C   UNL     1     -36.360  25.234   4.953  0.00  0.00    +0.176 C 
ENDROOT
BRANCH   1   3
ATOM      2  O   UNL     1     -36.100  23.155   3.816  0.00  0.00    -0.436 OA
ATOM      3  C   UNL     1     -35.928  23.826   4.959  0.00  0.00    +0.144 C 
ATOM      4  C   UNL     1     -35.379  23.098   5.944  0.00  0.00    +0.040 C 
ATOM      5  C   UNL     1     -35.631  21.906   4.075  0.00  0.00    +0.289 C 
ATOM      6  C   UNL     1     -35.177  21.820   5.371  0.00  0.00    +0.066 C 
BRANCH   5   9
ATOM      7  O   UNL     1     -36.668  21.078   2.193  0.00  0.00    -0.123 OA
ATOM      8  O   UNL     1     -34.810  20.120   2.876  0.00  0.00    -0.123 OA
ATOM      9  N   UNL     1     -35.706  21.004   3.013  0.00  0.00    +0.093 N 
ENDBRANCH   5   9
ENDBRANCH   1   3
BRANCH   1  10
ATOM     10  N   UNL     1     -35.657  26.168   5.508  0.00  0.00    -0.114 NA
BRANCH  10  12
ATOM     11  O   UNL     1     -32.915  26.673   6.253  0.00  0.00    -0.251 OA
ATOM     12  N   UNL     1     -34.697  26.659   4.714  0.00  0.00    -0.166 N 
ATOM     13  N   UNL     1     -32.692  27.393   4.031  0.00  0.00    -0.265 N 
ATOM     14  C   UNL     1     -34.910  27.008   3.337  0.00  0.00    +0.104 C 
ATOM     15  C   UNL     1     -33.547  27.513   2.874  0.00  0.00    +0.083 C 
ATOM     16  C   UNL     1     -33.384  26.879   5.142  0.00  0.00    +0.326 C 
ATOM     17  H   UNL     1     -31.739  27.640   4.041  0.00  0.00    +0.157 HD
ENDBRANCH  10  12
ENDBRANCH   1  10
TORSDOF 4
ENDMDL
MODEL 4
REMARK VINA RESULT:      -5.2      4.969      7.181
REMARK  Name = 5934456
REMARK  4 active torsions:
REMARK  status: ('A' for Active; 'I' for Inactive)
REMARK    1  A    between atoms: N_1  and  C_2
REMARK    2  A    between atoms: N_1  and  N_4
REMARK    3  A    between atoms: C_2  and  C_11
REMARK    4  A    between atoms: C_13  and  N_17
REMARK                            x       y       z     vdW  Elec       q    Type
REMARK                         _______ _______ _______ _____ _____    ______ ____
ROOT
ATOM      1  C   UNL     1     -33.506  26.321   3.301  0.00  0.00    +0.176 C 
ENDROOT
BRANCH   1   3
ATOM      2  O   UNL     1     -34.453  24.332   4.214  0.00  0.00    -0.436 OA
ATOM      3  C   UNL     1     -34.501  25.666   4.168  0.00  0.00    +0.144 C 
ATOM      4  C   UNL     1     -35.464  26.205   4.932  0.00  0.00    +0.040 C 
ATOM      5  C   UNL     1     -35.451  23.979   5.065  0.00  0.00    +0.289 C 
ATOM      6  C   UNL     1     -36.103  25.096   5.534  0.00  0.00    +0.066 C 
BRANCH   5   9
ATOM      7  O   UNL     1     -35.381  21.797   4.332  0.00  0.00    -0.123 OA
ATOM      8  O   UNL     1     -35.956  22.186   6.419  0.00  0.00    -0.123 OA
ATOM      9  N   UNL     1     -35.602  22.607   5.279  0.00  0.00    +0.093 N 
ENDBRANCH   5   9
ENDBRANCH   1   3
BRANCH   1  10
ATOM     10  N   UNL     1     -32.337  26.661   3.737  0.00  0.00    -0.114 NA
BRANCH  10  12
ATOM     11  O   UNL     1     -32.108  27.230   6.557  0.00  0.00    -0.251 OA
ATOM     12  N   UNL     1     -32.307  27.875   4.301  0.00  0.00    -0.166 N 
ATOM     13  N   UNL     1     -32.198  29.473   5.870  0.00  0.00    -0.265 N 
ATOM     14  C   UNL     1     -32.383  29.098   3.551  0.00  0.00    +0.104 C 
ATOM     15  C   UNL     1     -32.315  30.185   4.620  0.00  0.00    +0.083 C 
ATOM     16  C   UNL     1     -32.194  28.080   5.680  0.00  0.00    +0.326 C 
ATOM     17  H   UNL     1     -32.128  29.910   6.750  0.00  0.00    +0.157 HD
ENDBRANCH  10  12
ENDBRANCH   1  10
TORSDOF 4
ENDMDL
MODEL 5
REMARK VINA RESULT:      -5.2      4.374      7.072
REMARK  Name = 5934456
REMARK  4 active torsions:
REMARK  status: ('A' for Active; 'I' for Inactive)
REMARK    1  A    between atoms: N_1  and  C_2
REMARK    2  A    between atoms: N_1  and  N_4
REMARK    3  A    between atoms: C_2  and  C_11
REMARK    4  A    between atoms: C_13  and  N_17
REMARK                            x       y       z     vdW  Elec       q    Type
REMARK                         _______ _______ _______ _____ _____    ______ ____
ROOT
ATOM      1  C   UNL     1     -36.336  25.564   4.010  0.00  0.00    +0.176 C 
ENDROOT
BRANCH   1   3
ATOM      2  O   UNL     1     -34.323  26.835   3.883  0.00  0.00    -0.436 OA
ATOM      3  C   UNL     1     -35.110  26.074   4.649  0.00  0.00    +0.144 C 
ATOM      4  C   UNL     1     -34.652  25.895   5.898  0.00  0.00    +0.040 C 
ATOM      5  C   UNL     1     -33.281  27.173   4.687  0.00  0.00    +0.289 C 
ATOM      6  C   UNL     1     -33.437  26.619   5.937  0.00  0.00    +0.066 C 
BRANCH   5   9
ATOM      7  O   UNL     1     -31.083  27.766   4.343  0.00  0.00    -0.123 OA
ATOM      8  O   UNL     1     -32.655  28.923   3.328  0.00  0.00    -0.123 OA
ATOM      9  N   UNL     1     -32.307  27.982   4.100  0.00  0.00    +0.093 N 
ENDBRANCH   5   9
ENDBRANCH   1   3
BRANCH   1  10
ATOM     10  N   UNL     1     -36.976  24.541   4.476  0.00  0.00    -0.114 NA
BRANCH  10  12
ATOM     11  O   UNL     1     -35.835  22.553   6.230  0.00  0.00    -0.251 OA
ATOM     12  N   UNL     1     -36.450  23.365   4.108  0.00  0.00    -0.166 N 
ATOM     13  N   UNL     1     -35.470  21.355   4.246  0.00  0.00    -0.265 N 
ATOM     14  C   UNL     1     -36.386  22.921   2.743  0.00  0.00    +0.104 C 
ATOM     15  C   UNL     1     -35.713  21.555   2.837  0.00  0.00    +0.083 C 
ATOM     16  C   UNL     1     -35.913  22.446   5.014  0.00  0.00    +0.326 C 
ATOM     17  H   UNL     1     -35.045  20.550   4.624  0.00  0.00    +0.157 HD
ENDBRANCH  10  12
ENDBRANCH   1  10
TORSDOF 4
ENDMDL
MODEL 6
REMARK VINA RESULT:      -5.1      4.565      5.685
REMARK  Name = 5934456
REMARK  4 active torsions:
REMARK  status: ('A' for Active; 'I' for Inactive)
REMARK    1  A    between atoms: N_1  and  C_2
REMARK    2  A    between atoms: N_1  and  N_4
REMARK    3  A    between atoms: C_2  and  C_11
REMARK    4  A    between atoms: C_13  and  N_17
REMARK                            x       y       z     vdW  Elec       q    Type
REMARK                         _______ _______ _______ _____ _____    ______ ____
ROOT
ATOM      1  C   UNL     1     -35.678  22.329   3.768  0.00  0.00    +0.176 C 
ENDROOT
BRANCH   1   3
ATOM      2  O   UNL     1     -37.848  22.186   2.790  0.00  0.00    -0.436 OA
ATOM      3  C   UNL     1     -36.541  21.959   2.633  0.00  0.00    +0.144 C 
ATOM      4  C   UNL     1     -36.218  21.421   1.445  0.00  0.00    +0.040 C 
ATOM      5  C   UNL     1     -38.414  21.768   1.628  0.00  0.00    +0.289 C 
ATOM      6  C   UNL     1     -37.453  21.289   0.768  0.00  0.00    +0.066 C 
BRANCH   5   9
ATOM      7  O   UNL     1     -40.510  20.927   1.178  0.00  0.00    -0.123 OA
ATOM      8  O   UNL     1     -40.338  23.012   1.856  0.00  0.00    -0.123 OA
ATOM      9  N   UNL     1     -39.801  21.907   1.550  0.00  0.00    +0.093 N 
ENDBRANCH   5   9
ENDBRANCH   1   3
BRANCH   1  10
ATOM     10  N   UNL     1     -36.155  22.862   4.846  0.00  0.00    -0.114 NA
BRANCH  10  12
ATOM     11  O   UNL     1     -37.883  25.083   4.206  0.00  0.00    -0.251 OA
ATOM     12  N   UNL     1     -35.859  24.161   4.978  0.00  0.00    -0.166 N 
ATOM     13  N   UNL     1     -36.074  26.392   4.927  0.00  0.00    -0.265 N 
ATOM     14  C   UNL     1     -34.600  24.639   5.478  0.00  0.00    +0.104 C 
ATOM     15  C   UNL     1     -34.744  26.157   5.437  0.00  0.00    +0.083 C 
ATOM     16  C   UNL     1     -36.748  25.189   4.649  0.00  0.00    +0.326 C 
ATOM     17  H   UNL     1     -36.463  27.286   4.791  0.00  0.00    +0.157 HD
ENDBRANCH  10  12
ENDBRANCH   1  10
TORSDOF 4
ENDMDL
MODEL 7
REMARK VINA RESULT:      -5.1      4.556      6.308
REMARK  Name = 5934456
REMARK  4 active torsions:
REMARK  status: ('A' for Active; 'I' for Inactive)
REMARK    1  A    between atoms: N_1  and  C_2
REMARK    2  A    between atoms: N_1  and  N_4
REMARK    3  A    between atoms: C_2  and  C_11
REMARK    4  A    between atoms: C_13  and  N_17
REMARK                            x       y       z     vdW  Elec       q    Type
REMARK                         _______ _______ _______ _____ _____    ______ ____
ROOT
ATOM      1  C   UNL     1     -35.993  21.811   2.844  0.00  0.00    +0.176 C 
ENDROOT
BRANCH   1   3
ATOM      2  O   UNL     1     -35.406  23.782   4.050  0.00  0.00    -0.436 OA
ATOM      3  C   UNL     1     -35.589  22.460   4.104  0.00  0.00    +0.144 C 
ATOM      4  C   UNL     1     -35.374  21.926   5.316  0.00  0.00    +0.040 C 
ATOM      5  C   UNL     1     -35.047  24.133   5.313  0.00  0.00    +0.289 C 
ATOM      6  C   UNL     1     -35.013  23.026   6.130  0.00  0.00    +0.066 C 
BRANCH   5   9
ATOM      7  O   UNL     1     -33.605  25.898   5.636  0.00  0.00    -0.123 OA
ATOM      8  O   UNL     1     -35.765  26.306   5.564  0.00  0.00    -0.123 OA
ATOM      9  N   UNL     1     -34.797  25.491   5.511  0.00  0.00    +0.093 N 
ENDBRANCH   5   9
ENDBRANCH   1   3
BRANCH   1  10
ATOM     10  N   UNL     1     -36.529  22.475   1.872  0.00  0.00    -0.114 NA
BRANCH  10  12
ATOM     11  O   UNL     1     -38.684  23.895   3.164  0.00  0.00    -0.251 OA
ATOM     12  N   UNL     1     -37.839  22.239   1.720  0.00  0.00    -0.166 N 
ATOM     13  N   UNL     1     -40.060  22.425   1.958  0.00  0.00    -0.265 N 
ATOM     14  C   UNL     1     -38.363  21.216   0.859  0.00  0.00    +0.104 C 
ATOM     15  C   UNL     1     -39.874  21.338   1.026  0.00  0.00    +0.083 C 
ATOM     16  C   UNL     1     -38.833  22.969   2.378  0.00  0.00    +0.326 C 
ATOM     17  H   UNL     1     -40.939  22.747   2.263  0.00  0.00    +0.157 HD
ENDBRANCH  10  12
ENDBRANCH   1  10
TORSDOF 4
ENDMDL
MODEL 8
REMARK VINA RESULT:      -5.1      6.899      8.273
REMARK  Name = 5934456
REMARK  4 active torsions:
REMARK  status: ('A' for Active; 'I' for Inactive)
REMARK    1  A    between atoms: N_1  and  C_2
REMARK    2  A    between atoms: N_1  and  N_4
REMARK    3  A    between atoms: C_2  and  C_11
REMARK    4  A    between atoms: C_13  and  N_17
REMARK                            x       y       z     vdW  Elec       q    Type
REMARK                         _______ _______ _______ _____ _____    ______ ____
ROOT
ATOM      1  C   UNL     1     -33.835  27.298   3.787  0.00  0.00    +0.176 C 
ENDROOT
BRANCH   1   3
ATOM      2  O   UNL     1     -36.035  26.444   3.440  0.00  0.00    -0.436 OA
ATOM      3  C   UNL     1     -34.949  26.435   4.219  0.00  0.00    +0.144 C 
ATOM      4  C   UNL     1     -35.047  25.627   5.286  0.00  0.00    +0.040 C 
ATOM      5  C   UNL     1     -36.898  25.584   4.042  0.00  0.00    +0.289 C 
ATOM      6  C   UNL     1     -36.337  25.055   5.181  0.00  0.00    +0.066 C 
BRANCH   5   9
ATOM      7  O   UNL     1     -38.616  26.378   2.730  0.00  0.00    -0.123 OA
ATOM      8  O   UNL     1     -38.745  24.321   3.499  0.00  0.00    -0.123 OA
ATOM      9  N   UNL     1     -38.128  25.422   3.402  0.00  0.00    +0.093 N 
ENDBRANCH   5   9
ENDBRANCH   1   3
BRANCH   1  10
ATOM     10  N   UNL     1     -32.635  27.146   4.242  0.00  0.00    -0.114 NA
BRANCH  10  12
ATOM     11  O   UNL     1     -32.436  26.800   7.100  0.00  0.00    -0.251 OA
ATOM     12  N   UNL     1     -32.276  28.081   5.132  0.00  0.00    -0.166 N 
ATOM     13  N   UNL     1     -31.793  29.057   7.091  0.00  0.00    -0.265 N 
ATOM     14  C   UNL     1     -31.925  29.426   4.768  0.00  0.00    +0.104 C 
ATOM     15  C   UNL     1     -31.603  30.091   6.102  0.00  0.00    +0.083 C 
ATOM     16  C   UNL     1     -32.200  27.844   6.507  0.00  0.00    +0.326 C 
ATOM     17  H   UNL     1     -31.654  29.185   8.058  0.00  0.00    +0.157 HD
ENDBRANCH  10  12
ENDBRANCH   1  10
TORSDOF 4
ENDMDL
MODEL 9
REMARK VINA RESULT:      -5.1      2.237      6.497
REMARK  Name = 5934456
REMARK  4 active torsions:
REMARK  status: ('A' for Active; 'I' for Inactive)
REMARK    1  A    between atoms: N_1  and  C_2
REMARK    2  A    between atoms: N_1  and  N_4
REMARK    3  A    between atoms: C_2  and  C_11
REMARK    4  A    between atoms: C_13  and  N_17
REMARK                            x       y       z     vdW  Elec       q    Type
REMARK                         _______ _______ _______ _____ _____    ______ ____
ROOT
ATOM      1  C   UNL     1     -35.611  21.347   2.928  0.00  0.00    +0.176 C 
ENDROOT
BRANCH   1   3
ATOM      2  O   UNL     1     -35.254  23.397   4.092  0.00  0.00    -0.436 OA
ATOM      3  C   UNL     1     -35.412  22.074   4.194  0.00  0.00    +0.144 C 
ATOM      4  C   UNL     1     -35.364  21.612   5.453  0.00  0.00    +0.040 C 
ATOM      5  C   UNL     1     -35.093  23.825   5.372  0.00  0.00    +0.289 C 
ATOM      6  C   UNL     1     -35.152  22.764   6.246  0.00  0.00    +0.066 C 
BRANCH   5   9
ATOM      7  O   UNL     1     -33.739  25.684   5.474  0.00  0.00    -0.123 OA
ATOM      8  O   UNL     1     -35.909  25.950   5.717  0.00  0.00    -0.123 OA
ATOM      9  N   UNL     1     -34.907  25.199   5.527  0.00  0.00    +0.093 N 
ENDBRANCH   5   9
ENDBRANCH   1   3
BRANCH   1  10
ATOM     10  N   UNL     1     -35.111  20.172   2.727  0.00  0.00    -0.114 NA
BRANCH  10  12
ATOM     11  O   UNL     1     -33.033  18.446   1.709  0.00  0.00    -0.251 OA
ATOM     12  N   UNL     1     -34.858  19.909   1.438  0.00  0.00    -0.166 N 
ATOM     13  N   UNL     1     -33.893  19.045  -0.391  0.00  0.00    -0.265 N 
ATOM     14  C   UNL     1     -35.617  20.468   0.354  0.00  0.00    +0.104 C 
ATOM     15  C   UNL     1     -34.956  19.884  -0.891  0.00  0.00    +0.083 C 
ATOM     16  C   UNL     1     -33.832  19.060   1.013  0.00  0.00    +0.326 C 
ATOM     17  H   UNL     1     -33.284  18.525  -0.965  0.00  0.00    +0.157 HD
ENDBRANCH  10  12
ENDBRANCH   1  10
TORSDOF 4
ENDMDL
