MODEL 1
REMARK VINA RESULT:      -5.4      0.000      0.000
REMARK  Name = 192208
REMARK  8 active torsions:
REMARK  status: ('A' for Active; 'I' for Inactive)
REMARK    1  A    between atoms: S_1  and  C_2
REMARK    2  A    between atoms: S_1  and  C_12
REMARK    3  A    between atoms: C_3  and  O_8
REMARK    4  A    between atoms: C_5  and  O_10
REMARK    5  A    between atoms: C_12  and  C_13
REMARK    6  A    between atoms: C_13  and  N_14
REMARK    7  A    between atoms: C_13  and  C_19
REMARK    8  A    between atoms: C_19  and  O_20
REMARK                            x       y       z     vdW  Elec       q    Type
REMARK                         _______ _______ _______ _____ _____    ______ ____
ROOT
ATOM      1  S   UNK     1     -35.735  22.931   1.459  0.00  0.00    -0.112 S 
ENDROOT
BRANCH   1   2
ATOM      2  C   UNK     1     -35.549  22.912   3.237  0.00  0.00    +0.062 C 
ATOM      3  C   UNK     1     -35.472  21.714   3.947  0.00  0.00    +0.173 C 
ATOM      4  C   UNK     1     -35.478  24.130   3.914  0.00  0.00    +0.009 C 
ATOM      5  C   UNK     1     -35.326  21.734   5.334  0.00  0.00    +0.168 C 
ATOM      6  C   UNK     1     -35.332  24.149   5.301  0.00  0.00    +0.004 C 
ATOM      7  C   UNK     1     -35.256  22.952   6.011  0.00  0.00    +0.040 C 
BRANCH   3   8
ATOM      8  O   UNK     1     -35.541  20.512   3.306  0.00  0.00    -0.503 OA
ATOM      9  H   UNK     1     -36.197  20.365   2.653  0.00  0.00    +0.292 HD
ENDBRANCH   3   8
BRANCH   5  10
ATOM     10  O   UNK     1     -35.252  20.573   6.042  0.00  0.00    -0.503 OA
ATOM     11  H   UNK     1     -34.421  20.164   6.186  0.00  0.00    +0.292 HD
ENDBRANCH   5  10
ENDBRANCH   1   2
BRANCH   1  12
ATOM     12  C   UNK     1     -37.543  23.074   1.293  0.00  0.00    +0.051 C 
BRANCH  12  13
ATOM     13  C   UNK     1     -38.277  21.946   2.020  0.00  0.00    +0.047 C 
BRANCH  13  14
ATOM     14  N   UNK     1     -37.942  20.656   1.413  0.00  0.00    +0.389 N 
ATOM     15  H   UNK     1     -36.931  20.525   1.429  0.00  0.00    -0.088 HD
ATOM     16  H   UNK     1     -38.271  20.640   0.447  0.00  0.00    -0.088 HD
ATOM     17  H   UNK     1     -38.391  19.906   1.938  0.00  0.00    -0.088 HD
ENDBRANCH  13  14
BRANCH  13  19
ATOM     18  O   UNK     1     -40.344  23.186   1.817  0.00  0.00    -0.253 OA
ATOM     19  C   UNK     1     -39.785  22.104   1.954  0.00  0.00    +0.294 C 
BRANCH  19  20
ATOM     20  O   UNK     1     -40.464  20.938   2.097  0.00  0.00    -0.482 OA
ATOM     21  H   UNK     1     -41.085  20.840   2.791  0.00  0.00    +0.295 HD
ENDBRANCH  19  20
ENDBRANCH  13  19
ENDBRANCH  12  13
ENDBRANCH   1  12
TORSDOF 8
ENDMDL
MODEL 2
REMARK VINA RESULT:      -5.2      3.070      4.476
REMARK  Name = 192208
REMARK  8 active torsions:
REMARK  status: ('A' for Active; 'I' for Inactive)
REMARK    1  A    between atoms: S_1  and  C_2
REMARK    2  A    between atoms: S_1  and  C_12
REMARK    3  A    between atoms: C_3  and  O_8
REMARK    4  A    between atoms: C_5  and  O_10
REMARK    5  A    between atoms: C_12  and  C_13
REMARK    6  A    between atoms: C_13  and  N_14
REMARK    7  A    between atoms: C_13  and  C_19
REMARK    8  A    between atoms: C_19  and  O_20
REMARK                            x       y       z     vdW  Elec       q    Type
REMARK                         _______ _______ _______ _____ _____    ______ ____
ROOT
ATOM      1  S   UNK     1     -35.259  24.494   2.537  0.00  0.00    -0.112 S 
ENDROOT
BRANCH   1   2
ATOM      2  C   UNK     1     -35.212  22.781   2.028  0.00  0.00    +0.062 C 
ATOM      3  C   UNK     1     -36.109  21.846   2.543  0.00  0.00    +0.173 C 
ATOM      4  C   UNK     1     -34.253  22.387   1.095  0.00  0.00    +0.009 C 
ATOM      5  C   UNK     1     -36.047  20.516   2.125  0.00  0.00    +0.168 C 
ATOM      6  C   UNK     1     -34.190  21.058   0.677  0.00  0.00    +0.004 C 
ATOM      7  C   UNK     1     -35.087  20.123   1.192  0.00  0.00    +0.040 C 
BRANCH   3   8
ATOM      8  O   UNK     1     -37.055  22.208   3.457  0.00  0.00    -0.503 OA
ATOM      9  H   UNK     1     -37.964  22.133   3.246  0.00  0.00    +0.292 HD
ENDBRANCH   3   8
BRANCH   5  10
ATOM     10  O   UNK     1     -36.915  19.590   2.619  0.00  0.00    -0.503 OA
ATOM     11  H   UNK     1     -36.614  18.945   3.229  0.00  0.00    +0.292 HD
ENDBRANCH   5  10
ENDBRANCH   1   2
BRANCH   1  12
ATOM     12  C   UNK     1     -34.365  24.419   4.122  0.00  0.00    +0.051 C 
BRANCH  12  13
ATOM     13  C   UNK     1     -35.305  24.577   5.318  0.00  0.00    +0.047 C 
BRANCH  13  14
ATOM     14  N   UNK     1     -35.723  23.261   5.806  0.00  0.00    +0.389 N 
ATOM     15  H   UNK     1     -35.465  23.165   6.787  0.00  0.00    -0.088 HD
ATOM     16  H   UNK     1     -35.259  22.534   5.260  0.00  0.00    -0.088 HD
ATOM     17  H   UNK     1     -36.733  23.167   5.708  0.00  0.00    -0.088 HD
ENDBRANCH  13  14
BRANCH  13  19
ATOM     18  O   UNK     1     -37.564  24.830   4.489  0.00  0.00    -0.253 OA
ATOM     19  C   UNK     1     -36.561  25.352   4.963  0.00  0.00    +0.294 C 
BRANCH  19  20
ATOM     20  O   UNK     1     -36.461  26.687   5.184  0.00  0.00    -0.482 OA
ATOM     21  H   UNK     1     -37.231  27.194   5.348  0.00  0.00    +0.295 HD
ENDBRANCH  19  20
ENDBRANCH  13  19
ENDBRANCH  12  13
ENDBRANCH   1  12
TORSDOF 8
ENDMDL
MODEL 3
REMARK VINA RESULT:      -5.1      2.041      2.423
REMARK  Name = 192208
REMARK  8 active torsions:
REMARK  status: ('A' for Active; 'I' for Inactive)
REMARK    1  A    between atoms: S_1  and  C_2
REMARK    2  A    between atoms: S_1  and  C_12
REMARK    3  A    between atoms: C_3  and  O_8
REMARK    4  A    between atoms: C_5  and  O_10
REMARK    5  A    between atoms: C_12  and  C_13
REMARK    6  A    between atoms: C_13  and  N_14
REMARK    7  A    between atoms: C_13  and  C_19
REMARK    8  A    between atoms: C_19  and  O_20
REMARK                            x       y       z     vdW  Elec       q    Type
REMARK                         _______ _______ _______ _____ _____    ______ ____
ROOT
ATOM      1  S   UNK     1     -36.167  23.208   1.563  0.00  0.00    -0.112 S 
ENDROOT
BRANCH   1   2
ATOM      2  C   UNK     1     -35.753  23.058   3.296  0.00  0.00    +0.062 C 
ATOM      3  C   UNK     1     -35.679  21.813   3.920  0.00  0.00    +0.173 C 
ATOM      4  C   UNK     1     -35.498  24.220   4.025  0.00  0.00    +0.009 C 
ATOM      5  C   UNK     1     -35.353  21.730   5.273  0.00  0.00    +0.168 C 
ATOM      6  C   UNK     1     -35.171  24.136   5.379  0.00  0.00    +0.004 C 
ATOM      7  C   UNK     1     -35.099  22.891   6.002  0.00  0.00    +0.040 C 
BRANCH   3   8
ATOM      8  O   UNK     1     -35.926  20.664   3.227  0.00  0.00    -0.503 OA
ATOM      9  H   UNK     1     -35.245  20.266   2.722  0.00  0.00    +0.292 HD
ENDBRANCH   3   8
BRANCH   5  10
ATOM     10  O   UNK     1     -35.279  20.521   5.898  0.00  0.00    -0.503 OA
ATOM     11  H   UNK     1     -35.997  19.922   5.845  0.00  0.00    +0.292 HD
ENDBRANCH   5  10
ENDBRANCH   1   2
BRANCH   1  12
ATOM     12  C   UNK     1     -37.983  23.328   1.641  0.00  0.00    +0.051 C 
BRANCH  12  13
ATOM     13  C   UNK     1     -38.461  24.782   1.657  0.00  0.00    +0.047 C 
BRANCH  13  14
ATOM     14  N   UNK     1     -37.365  25.674   1.273  0.00  0.00    +0.389 N 
ATOM     15  H   UNK     1     -36.473  25.207   1.437  0.00  0.00    -0.088 HD
ATOM     16  H   UNK     1     -37.409  26.527   1.832  0.00  0.00    -0.088 HD
ATOM     17  H   UNK     1     -37.449  25.910   0.285  0.00  0.00    -0.088 HD
ENDBRANCH  13  14
BRANCH  13  19
ATOM     18  O   UNK     1     -39.708  24.548   3.716  0.00  0.00    -0.253 OA
ATOM     19  C   UNK     1     -38.941  25.213   3.030  0.00  0.00    +0.294 C 
BRANCH  19  20
ATOM     20  O   UNK     1     -38.473  26.427   3.417  0.00  0.00    -0.482 OA
ATOM     21  H   UNK     1     -39.009  27.189   3.322  0.00  0.00    +0.295 HD
ENDBRANCH  19  20
ENDBRANCH  13  19
ENDBRANCH  12  13
ENDBRANCH   1  12
TORSDOF 8
ENDMDL
MODEL 4
REMARK VINA RESULT:      -5.1      2.466      3.583
REMARK  Name = 192208
REMARK  8 active torsions:
REMARK  status: ('A' for Active; 'I' for Inactive)
REMARK    1  A    between atoms: S_1  and  C_2
REMARK    2  A    between atoms: S_1  and  C_12
REMARK    3  A    between atoms: C_3  and  O_8
REMARK    4  A    between atoms: C_5  and  O_10
REMARK    5  A    between atoms: C_12  and  C_13
REMARK    6  A    between atoms: C_13  and  N_14
REMARK    7  A    between atoms: C_13  and  C_19
REMARK    8  A    between atoms: C_19  and  O_20
REMARK                            x       y       z     vdW  Elec       q    Type
REMARK                         _______ _______ _______ _____ _____    ______ ____
ROOT
ATOM      1  S   UNK     1     -38.145  23.046   2.379  0.00  0.00    -0.112 S 
ENDROOT
BRANCH   1   2
ATOM      2  C   UNK     1     -37.017  23.686   3.609  0.00  0.00    +0.062 C 
ATOM      3  C   UNK     1     -37.138  24.986   4.099  0.00  0.00    +0.173 C 
ATOM      4  C   UNK     1     -36.000  22.856   4.079  0.00  0.00    +0.009 C 
ATOM      5  C   UNK     1     -36.242  25.456   5.060  0.00  0.00    +0.168 C 
ATOM      6  C   UNK     1     -35.103  23.325   5.040  0.00  0.00    +0.004 C 
ATOM      7  C   UNK     1     -35.225  24.625   5.529  0.00  0.00    +0.040 C 
BRANCH   3   8
ATOM      8  O   UNK     1     -38.124  25.817   3.652  0.00  0.00    -0.503 OA
ATOM      9  H   UNK     1     -38.575  26.376   4.255  0.00  0.00    +0.292 HD
ENDBRANCH   3   8
BRANCH   5  10
ATOM     10  O   UNK     1     -36.346  26.723   5.547  0.00  0.00    -0.503 OA
ATOM     11  H   UNK     1     -36.977  26.920   6.212  0.00  0.00    +0.292 HD
ENDBRANCH   5  10
ENDBRANCH   1   2
BRANCH   1  12
ATOM     12  C   UNK     1     -36.987  22.502   1.083  0.00  0.00    +0.051 C 
BRANCH  12  13
ATOM     13  C   UNK     1     -37.126  21.009   0.780  0.00  0.00    +0.047 C 
BRANCH  13  14
ATOM     14  N   UNK     1     -38.512  20.583   0.985  0.00  0.00    +0.389 N 
ATOM     15  H   UNK     1     -38.604  19.597   0.742  0.00  0.00    -0.088 HD
ATOM     16  H   UNK     1     -39.130  21.138   0.393  0.00  0.00    -0.088 HD
ATOM     17  H   UNK     1     -38.768  20.717   1.963  0.00  0.00    -0.088 HD
ENDBRANCH  13  14
BRANCH  13  19
ATOM     18  O   UNK     1     -35.074  19.909   1.434  0.00  0.00    -0.253 OA
ATOM     19  C   UNK     1     -36.249  20.157   1.678  0.00  0.00    +0.294 C 
BRANCH  19  20
ATOM     20  O   UNK     1     -36.896  19.659   2.762  0.00  0.00    -0.482 OA
ATOM     21  H   UNK     1     -37.124  20.225   3.472  0.00  0.00    +0.295 HD
ENDBRANCH  19  20
ENDBRANCH  13  19
ENDBRANCH  12  13
ENDBRANCH   1  12
TORSDOF 8
ENDMDL
MODEL 5
REMARK VINA RESULT:      -5.1      2.043      2.264
REMARK  Name = 192208
REMARK  8 active torsions:
REMARK  status: ('A' for Active; 'I' for Inactive)
REMARK    1  A    between atoms: S_1  and  C_2
REMARK    2  A    between atoms: S_1  and  C_12
REMARK    3  A    between atoms: C_3  and  O_8
REMARK    4  A    between atoms: C_5  and  O_10
REMARK    5  A    between atoms: C_12  and  C_13
REMARK    6  A    between atoms: C_13  and  N_14
REMARK    7  A    between atoms: C_13  and  C_19
REMARK    8  A    between atoms: C_19  and  O_20
REMARK                            x       y       z     vdW  Elec       q    Type
REMARK                         _______ _______ _______ _____ _____    ______ ____
ROOT
ATOM      1  S   UNK     1     -35.189  22.264   1.319  0.00  0.00    -0.112 S 
ENDROOT
BRANCH   1   2
ATOM      2  C   UNK     1     -35.250  22.912   2.984  0.00  0.00    +0.062 C 
ATOM      3  C   UNK     1     -35.596  22.103   4.066  0.00  0.00    +0.173 C 
ATOM      4  C   UNK     1     -34.941  24.257   3.189  0.00  0.00    +0.009 C 
ATOM      5  C   UNK     1     -35.634  22.639   5.353  0.00  0.00    +0.168 C 
ATOM      6  C   UNK     1     -34.979  24.793   4.476  0.00  0.00    +0.004 C 
ATOM      7  C   UNK     1     -35.325  23.984   5.558  0.00  0.00    +0.040 C 
BRANCH   3   8
ATOM      8  O   UNK     1     -35.905  20.786   3.889  0.00  0.00    -0.503 OA
ATOM      9  H   UNK     1     -36.711  20.444   4.222  0.00  0.00    +0.292 HD
ENDBRANCH   3   8
BRANCH   5  10
ATOM     10  O   UNK     1     -35.972  21.863   6.420  0.00  0.00    -0.503 OA
ATOM     11  H   UNK     1     -36.646  21.217   6.335  0.00  0.00    +0.292 HD
ENDBRANCH   5  10
ENDBRANCH   1   2
BRANCH   1  12
ATOM     12  C   UNK     1     -36.904  22.535   0.768  0.00  0.00    +0.051 C 
BRANCH  12  13
ATOM     13  C   UNK     1     -37.731  21.249   0.817  0.00  0.00    +0.047 C 
BRANCH  13  14
ATOM     14  N   UNK     1     -38.337  21.091   2.141  0.00  0.00    +0.389 N 
ATOM     15  H   UNK     1     -39.150  20.479   2.072  0.00  0.00    -0.088 HD
ATOM     16  H   UNK     1     -38.628  22.004   2.492  0.00  0.00    -0.088 HD
ATOM     17  H   UNK     1     -37.656  20.682   2.780  0.00  0.00    -0.088 HD
ENDBRANCH  13  14
BRANCH  13  19
ATOM     18  O   UNK     1     -36.408  19.750  -0.545  0.00  0.00    -0.253 OA
ATOM     19  C   UNK     1     -36.890  20.014   0.550  0.00  0.00    +0.294 C 
BRANCH  19  20
ATOM     20  O   UNK     1     -36.749  19.205   1.631  0.00  0.00    -0.482 OA
ATOM     21  H   UNK     1     -37.207  19.398   2.424  0.00  0.00    +0.295 HD
ENDBRANCH  19  20
ENDBRANCH  13  19
ENDBRANCH  12  13
ENDBRANCH   1  12
TORSDOF 8
ENDMDL
MODEL 6
REMARK VINA RESULT:      -5.0      2.511      3.711
REMARK  Name = 192208
REMARK  8 active torsions:
REMARK  status: ('A' for Active; 'I' for Inactive)
REMARK    1  A    between atoms: S_1  and  C_2
REMARK    2  A    between atoms: S_1  and  C_12
REMARK    3  A    between atoms: C_3  and  O_8
REMARK    4  A    between atoms: C_5  and  O_10
REMARK    5  A    between atoms: C_12  and  C_13
REMARK    6  A    between atoms: C_13  and  N_14
REMARK    7  A    between atoms: C_13  and  C_19
REMARK    8  A    between atoms: C_19  and  O_20
REMARK                            x       y       z     vdW  Elec       q    Type
REMARK                         _______ _______ _______ _____ _____    ______ ____
ROOT
ATOM      1  S   UNK     1     -35.835  22.939   1.365  0.00  0.00    -0.112 S 
ENDROOT
BRANCH   1   2
ATOM      2  C   UNK     1     -35.476  22.879   3.116  0.00  0.00    +0.062 C 
ATOM      3  C   UNK     1     -35.600  21.695   3.842  0.00  0.00    +0.173 C 
ATOM      4  C   UNK     1     -35.064  24.049   3.754  0.00  0.00    +0.009 C 
ATOM      5  C   UNK     1     -35.312  21.681   5.207  0.00  0.00    +0.168 C 
ATOM      6  C   UNK     1     -34.777  24.035   5.119  0.00  0.00    +0.004 C 
ATOM      7  C   UNK     1     -34.901  22.852   5.845  0.00  0.00    +0.040 C 
BRANCH   3   8
ATOM      8  O   UNK     1     -36.002  20.539   3.239  0.00  0.00    -0.503 OA
ATOM      9  H   UNK     1     -36.158  20.522   2.315  0.00  0.00    +0.292 HD
ENDBRANCH   3   8
BRANCH   5  10
ATOM     10  O   UNK     1     -35.429  20.533   5.931  0.00  0.00    -0.503 OA
ATOM     11  H   UNK     1     -34.715  20.240   6.463  0.00  0.00    +0.292 HD
ENDBRANCH   5  10
ENDBRANCH   1   2
BRANCH   1  12
ATOM     12  C   UNK     1     -34.260  22.357   0.660  0.00  0.00    +0.051 C 
BRANCH  12  13
ATOM     13  C   UNK     1     -34.369  20.930   0.117  0.00  0.00    +0.047 C 
BRANCH  13  14
ATOM     14  N   UNK     1     -35.737  20.435   0.278  0.00  0.00    +0.389 N 
ATOM     15  H   UNK     1     -35.966  20.385   1.270  0.00  0.00    -0.088 HD
ATOM     16  H   UNK     1     -35.813  19.505  -0.135  0.00  0.00    -0.088 HD
ATOM     17  H   UNK     1     -36.385  21.069  -0.189  0.00  0.00    -0.088 HD
ENDBRANCH  13  14
BRANCH  13  19
ATOM     18  O   UNK     1     -32.235  19.934   0.669  0.00  0.00    -0.253 OA
ATOM     19  C   UNK     1     -33.447  19.968   0.844  0.00  0.00    +0.294 C 
BRANCH  19  20
ATOM     20  O   UNK     1     -34.094  19.118   1.681  0.00  0.00    -0.482 OA
ATOM     21  H   UNK     1     -35.024  19.021   1.625  0.00  0.00    +0.295 HD
ENDBRANCH  19  20
ENDBRANCH  13  19
ENDBRANCH  12  13
ENDBRANCH   1  12
TORSDOF 8
ENDMDL
MODEL 7
REMARK VINA RESULT:      -4.9      2.778      4.422
REMARK  Name = 192208
REMARK  8 active torsions:
REMARK  status: ('A' for Active; 'I' for Inactive)
REMARK    1  A    between atoms: S_1  and  C_2
REMARK    2  A    between atoms: S_1  and  C_12
REMARK    3  A    between atoms: C_3  and  O_8
REMARK    4  A    between atoms: C_5  and  O_10
REMARK    5  A    between atoms: C_12  and  C_13
REMARK    6  A    between atoms: C_13  and  N_14
REMARK    7  A    between atoms: C_13  and  C_19
REMARK    8  A    between atoms: C_19  and  O_20
REMARK                            x       y       z     vdW  Elec       q    Type
REMARK                         _______ _______ _______ _____ _____    ______ ____
ROOT
ATOM      1  S   UNK     1     -36.498  24.547   1.519  0.00  0.00    -0.112 S 
ENDROOT
BRANCH   1   2
ATOM      2  C   UNK     1     -35.901  22.862   1.536  0.00  0.00    +0.062 C 
ATOM      3  C   UNK     1     -36.645  21.834   2.115  0.00  0.00    +0.173 C 
ATOM      4  C   UNK     1     -34.665  22.585   0.952  0.00  0.00    +0.009 C 
ATOM      5  C   UNK     1     -36.151  20.529   2.111  0.00  0.00    +0.168 C 
ATOM      6  C   UNK     1     -34.171  21.280   0.948  0.00  0.00    +0.004 C 
ATOM      7  C   UNK     1     -34.915  20.253   1.528  0.00  0.00    +0.040 C 
BRANCH   3   8
ATOM      8  O   UNK     1     -37.855  22.081   2.693  0.00  0.00    -0.503 OA
ATOM      9  H   UNK     1     -38.231  21.456   3.281  0.00  0.00    +0.292 HD
ENDBRANCH   3   8
BRANCH   5  10
ATOM     10  O   UNK     1     -36.864  19.514   2.674  0.00  0.00    -0.503 OA
ATOM     11  H   UNK     1     -36.818  19.365   3.598  0.00  0.00    +0.292 HD
ENDBRANCH   5  10
ENDBRANCH   1   2
BRANCH   1  12
ATOM     12  C   UNK     1     -35.733  25.210   3.033  0.00  0.00    +0.051 C 
BRANCH  12  13
ATOM     13  C   UNK     1     -36.510  24.810   4.290  0.00  0.00    +0.047 C 
BRANCH  13  14
ATOM     14  N   UNK     1     -36.795  25.996   5.101  0.00  0.00    +0.389 N 
ATOM     15  H   UNK     1     -36.191  26.762   4.807  0.00  0.00    -0.088 HD
ATOM     16  H   UNK     1     -36.621  25.784   6.084  0.00  0.00    -0.088 HD
ATOM     17  H   UNK     1     -37.771  26.265   4.978  0.00  0.00    -0.088 HD
ENDBRANCH  13  14
BRANCH  13  19
ATOM     18  O   UNK     1     -34.631  24.087   5.631  0.00  0.00    -0.253 OA
ATOM     19  C   UNK     1     -35.734  23.838   5.159  0.00  0.00    +0.294 C 
BRANCH  19  20
ATOM     20  O   UNK     1     -36.359  22.646   5.338  0.00  0.00    -0.482 OA
ATOM     21  H   UNK     1     -35.857  21.858   5.392  0.00  0.00    +0.295 HD
ENDBRANCH  19  20
ENDBRANCH  13  19
ENDBRANCH  12  13
ENDBRANCH   1  12
TORSDOF 8
ENDMDL
MODEL 8
REMARK VINA RESULT:      -4.9      2.903      5.173
REMARK  Name = 192208
REMARK  8 active torsions:
REMARK  status: ('A' for Active; 'I' for Inactive)
REMARK    1  A    between atoms: S_1  and  C_2
REMARK    2  A    between atoms: S_1  and  C_12
REMARK    3  A    between atoms: C_3  and  O_8
REMARK    4  A    between atoms: C_5  and  O_10
REMARK    5  A    between atoms: C_12  and  C_13
REMARK    6  A    between atoms: C_13  and  N_14
REMARK    7  A    between atoms: C_13  and  C_19
REMARK    8  A    between atoms: C_19  and  O_20
REMARK                            x       y       z     vdW  Elec       q    Type
REMARK                         _______ _______ _______ _____ _____    ______ ____
ROOT
ATOM      1  S   UNK     1     -35.607  22.521   3.087  0.00  0.00    -0.112 S 
ENDROOT
BRANCH   1   2
ATOM      2  C   UNK     1     -37.327  22.783   2.677  0.00  0.00    +0.062 C 
ATOM      3  C   UNK     1     -38.145  21.730   2.269  0.00  0.00    +0.173 C 
ATOM      4  C   UNK     1     -37.848  24.074   2.775  0.00  0.00    +0.009 C 
ATOM      5  C   UNK     1     -39.483  21.968   1.957  0.00  0.00    +0.168 C 
ATOM      6  C   UNK     1     -39.186  24.311   2.463  0.00  0.00    +0.004 C 
ATOM      7  C   UNK     1     -40.004  23.259   2.054  0.00  0.00    +0.040 C 
BRANCH   3   8
ATOM      8  O   UNK     1     -37.657  20.461   2.164  0.00  0.00    -0.503 OA
ATOM      9  H   UNK     1     -37.956  19.898   1.477  0.00  0.00    +0.292 HD
ENDBRANCH   3   8
BRANCH   5  10
ATOM     10  O   UNK     1     -40.295  20.951   1.554  0.00  0.00    -0.503 OA
ATOM     11  H   UNK     1     -40.339  20.160   2.055  0.00  0.00    +0.292 HD
ENDBRANCH   5  10
ENDBRANCH   1   2
BRANCH   1  12
ATOM     12  C   UNK     1     -35.082  24.210   3.521  0.00  0.00    +0.051 C 
BRANCH  12  13
ATOM     13  C   UNK     1     -34.907  24.386   5.031  0.00  0.00    +0.047 C 
BRANCH  13  14
ATOM     14  N   UNK     1     -35.851  23.526   5.749  0.00  0.00    +0.389 N 
ATOM     15  H   UNK     1     -35.433  23.223   6.628  0.00  0.00    -0.088 HD
ATOM     16  H   UNK     1     -36.069  22.710   5.177  0.00  0.00    -0.088 HD
ATOM     17  H   UNK     1     -36.707  24.046   5.940  0.00  0.00    -0.088 HD
ENDBRANCH  13  14
BRANCH  13  19
ATOM     18  O   UNK     1     -34.275  26.571   5.855  0.00  0.00    -0.253 OA
ATOM     19  C   UNK     1     -35.162  25.814   5.476  0.00  0.00    +0.294 C 
BRANCH  19  20
ATOM     20  O   UNK     1     -36.472  26.169   5.453  0.00  0.00    -0.482 OA
ATOM     21  H   UNK     1     -36.925  26.234   4.636  0.00  0.00    +0.295 HD
ENDBRANCH  19  20
ENDBRANCH  13  19
ENDBRANCH  12  13
ENDBRANCH   1  12
TORSDOF 8
ENDMDL
MODEL 9
REMARK VINA RESULT:      -4.9      2.807      3.615
REMARK  Name = 192208
REMARK  8 active torsions:
REMARK  status: ('A' for Active; 'I' for Inactive)
REMARK    1  A    between atoms: S_1  and  C_2
REMARK    2  A    between atoms: S_1  and  C_12
REMARK    3  A    between atoms: C_3  and  O_8
REMARK    4  A    between atoms: C_5  and  O_10
REMARK    5  A    between atoms: C_12  and  C_13
REMARK    6  A    between atoms: C_13  and  N_14
REMARK    7  A    between atoms: C_13  and  C_19
REMARK    8  A    between atoms: C_19  and  O_20
REMARK                            x       y       z     vdW  Elec       q    Type
REMARK                         _______ _______ _______ _____ _____    ______ ____
ROOT
ATOM      1  S   UNK     1     -35.252  24.687   2.894  0.00  0.00    -0.112 S 
ENDROOT
BRANCH   1   2
ATOM      2  C   UNK     1     -35.259  23.028   2.226  0.00  0.00    +0.062 C 
ATOM      3  C   UNK     1     -36.036  22.020   2.795  0.00  0.00    +0.173 C 
ATOM      4  C   UNK     1     -34.466  22.754   1.112  0.00  0.00    +0.009 C 
ATOM      5  C   UNK     1     -36.020  20.736   2.250  0.00  0.00    +0.168 C 
ATOM      6  C   UNK     1     -34.450  21.470   0.567  0.00  0.00    +0.004 C 
ATOM      7  C   UNK     1     -35.226  20.461   1.137  0.00  0.00    +0.040 C 
BRANCH   3   8
ATOM      8  O   UNK     1     -36.818  22.266   3.886  0.00  0.00    -0.503 OA
ATOM      9  H   UNK     1     -36.689  23.046   4.390  0.00  0.00    +0.292 HD
ENDBRANCH   3   8
BRANCH   5  10
ATOM     10  O   UNK     1     -36.772  19.740   2.795  0.00  0.00    -0.503 OA
ATOM     11  H   UNK     1     -37.108  19.828   3.665  0.00  0.00    +0.292 HD
ENDBRANCH   5  10
ENDBRANCH   1   2
BRANCH   1  12
ATOM     12  C   UNK     1     -36.840  25.327   2.272  0.00  0.00    +0.051 C 
BRANCH  12  13
ATOM     13  C   UNK     1     -37.842  25.569   3.403  0.00  0.00    +0.047 C 
BRANCH  13  14
ATOM     14  N   UNK     1     -37.255  25.175   4.686  0.00  0.00    +0.389 N 
ATOM     15  H   UNK     1     -37.999  24.987   5.357  0.00  0.00    -0.088 HD
ATOM     16  H   UNK     1     -36.666  25.931   5.037  0.00  0.00    -0.088 HD
ATOM     17  H   UNK     1     -36.691  24.336   4.559  0.00  0.00    -0.088 HD
ENDBRANCH  13  14
BRANCH  13  19
ATOM     18  O   UNK     1     -39.171  23.719   2.590  0.00  0.00    -0.253 OA
ATOM     19  C   UNK     1     -39.118  24.768   3.221  0.00  0.00    +0.294 C 
BRANCH  19  20
ATOM     20  O   UNK     1     -40.209  25.340   3.791  0.00  0.00    -0.482 OA
ATOM     21  H   UNK     1     -40.855  25.754   3.255  0.00  0.00    +0.295 HD
ENDBRANCH  19  20
ENDBRANCH  13  19
ENDBRANCH  12  13
ENDBRANCH   1  12
TORSDOF 8
ENDMDL
