MODEL 1
REMARK VINA RESULT:      -6.7      0.000      0.000
REMARK  Name = 54672170
REMARK  5 active torsions:
REMARK  status: ('A' for Active; 'I' for Inactive)
REMARK    1  A    between atoms: C_3  and  O_14
REMARK    2  A    between atoms: C_8  and  C_16
REMARK    3  A    between atoms: C_16  and  C_17
REMARK    4  A    between atoms: C_17  and  O_18
REMARK    5  A    between atoms: O_18  and  S_19
REMARK                            x       y       z     vdW  Elec       q    Type
REMARK                         _______ _______ _______ _____ _____    ______ ____
ROOT
ATOM      1  O   UNL     1     -36.293  23.334   0.208  0.00  0.00    -0.291 OA
ATOM      2  C   UNL     1     -35.642  21.022   0.669  0.00  0.00    +0.093 C 
ATOM      3  C   UNL     1     -35.621  20.306   2.045  0.00  0.00    +0.140 C 
ATOM      4  C   UNL     1     -35.602  21.434   3.032  0.00  0.00    +0.007 C 
ATOM      5  C   UNL     1     -35.850  22.667   2.439  0.00  0.00    +0.029 C 
ATOM      6  C   UNL     1     -35.987  22.464   1.004  0.00  0.00    +0.175 C 
ATOM      7  C   UNL     1     -35.924  23.847   3.155  0.00  0.00    -0.023 C 
ATOM      8  C   UNL     1     -35.735  23.772   4.534  0.00  0.00    -0.027 C 
ATOM      9  C   UNL     1     -35.414  21.359   4.403  0.00  0.00    -0.006 C 
ATOM     10  C   UNL     1     -35.479  22.537   5.154  0.00  0.00    -0.026 C 
ATOM     11  C   UNL     1     -36.600  20.442  -0.358  0.00  0.00    +0.011 C 
ATOM     12  C   UNL     1     -36.191  25.154   2.489  0.00  0.00    +0.031 C 
ATOM     13  C   UNL     1     -35.277  22.454   6.633  0.00  0.00    +0.031 C 
ENDROOT
BRANCH   3  14
ATOM     14  O   UNL     1     -36.785  19.529   2.281  0.00  0.00    -0.380 OA
ATOM     15  H   UNL     1     -36.788  19.221   3.201  0.00  0.00    +0.211 HD
ENDBRANCH   3  14
BRANCH   8  16
ATOM     16  C   UNL     1     -35.802  25.016   5.365  0.00  0.00    +0.060 C 
BRANCH  16  17
ATOM     17  C   UNL     1     -34.429  25.646   5.600  0.00  0.00    +0.182 C 
BRANCH  17  18
ATOM     18  O   UNL     1     -34.359  26.900   4.929  0.00  0.00    -0.200 OA
BRANCH  18  19
ATOM     19  S   UNL     1     -32.903  27.573   4.619  0.00  0.00    +0.239 S 
ATOM     20  O   UNL     1     -32.083  27.374   6.015  0.00  0.00    -0.116 OA
ATOM     21  O   UNL     1     -32.252  26.760   3.609  0.00  0.00    -0.116 OA
ATOM     22  O   UNL     1     -33.080  28.998   4.405  0.00  0.00    -0.022 OA
ENDBRANCH  18  19
ENDBRANCH  17  18
ENDBRANCH  16  17
ENDBRANCH   8  16
TORSDOF 5
ENDMDL
MODEL 2
REMARK VINA RESULT:      -6.2      2.928      3.413
REMARK  Name = 54672170
REMARK  5 active torsions:
REMARK  status: ('A' for Active; 'I' for Inactive)
REMARK    1  A    between atoms: C_3  and  O_14
REMARK    2  A    between atoms: C_8  and  C_16
REMARK    3  A    between atoms: C_16  and  C_17
REMARK    4  A    between atoms: C_17  and  O_18
REMARK    5  A    between atoms: O_18  and  S_19
REMARK                            x       y       z     vdW  Elec       q    Type
REMARK                         _______ _______ _______ _____ _____    ______ ____
ROOT
ATOM      1  O   UNL     1     -34.828  22.882  -0.297  0.00  0.00    -0.291 OA
ATOM      2  C   UNL     1     -34.851  20.528   0.368  0.00  0.00    +0.093 C 
ATOM      3  C   UNL     1     -35.301  19.938   1.731  0.00  0.00    +0.140 C 
ATOM      4  C   UNL     1     -35.238  21.111   2.663  0.00  0.00    +0.007 C 
ATOM      5  C   UNL     1     -35.056  22.316   1.993  0.00  0.00    +0.029 C 
ATOM      6  C   UNL     1     -34.917  22.033   0.573  0.00  0.00    +0.175 C 
ATOM      7  C   UNL     1     -35.011  23.538   2.639  0.00  0.00    -0.023 C 
ATOM      8  C   UNL     1     -35.153  23.534   4.026  0.00  0.00    -0.027 C 
ATOM      9  C   UNL     1     -35.381  21.107   4.041  0.00  0.00    -0.006 C 
ATOM     10  C   UNL     1     -35.335  22.328   4.723  0.00  0.00    -0.026 C 
ATOM     11  C   UNL     1     -35.666  20.091  -0.837  0.00  0.00    +0.011 C 
ATOM     12  C   UNL     1     -34.813  24.813   1.893  0.00  0.00    +0.031 C 
ATOM     13  C   UNL     1     -35.489  22.323   6.210  0.00  0.00    +0.031 C 
ENDROOT
BRANCH   3  14
ATOM     14  O   UNL     1     -36.636  19.458   1.710  0.00  0.00    -0.380 OA
ATOM     15  H   UNL     1     -36.639  18.502   1.875  0.00  0.00    +0.211 HD
ENDBRANCH   3  14
BRANCH   8  16
ATOM     16  C   UNL     1     -35.112  24.826   4.783  0.00  0.00    +0.060 C 
BRANCH  16  17
ATOM     17  C   UNL     1     -36.415  25.618   4.675  0.00  0.00    +0.182 C 
BRANCH  17  18
ATOM     18  O   UNL     1     -37.501  24.723   4.461  0.00  0.00    -0.200 OA
BRANCH  18  19
ATOM     19  S   UNL     1     -38.517  24.965   3.205  0.00  0.00    +0.239 S 
ATOM     20  O   UNL     1     -39.995  24.768   3.864  0.00  0.00    -0.116 OA
ATOM     21  O   UNL     1     -38.396  26.356   2.808  0.00  0.00    -0.116 OA
ATOM     22  O   UNL     1     -38.318  23.910   2.228  0.00  0.00    -0.022 OA
ENDBRANCH  18  19
ENDBRANCH  17  18
ENDBRANCH  16  17
ENDBRANCH   8  16
TORSDOF 5
ENDMDL
MODEL 3
REMARK VINA RESULT:      -6.0      1.369      1.844
REMARK  Name = 54672170
REMARK  5 active torsions:
REMARK  status: ('A' for Active; 'I' for Inactive)
REMARK    1  A    between atoms: C_3  and  O_14
REMARK    2  A    between atoms: C_8  and  C_16
REMARK    3  A    between atoms: C_16  and  C_17
REMARK    4  A    between atoms: C_17  and  O_18
REMARK    5  A    between atoms: O_18  and  S_19
REMARK                            x       y       z     vdW  Elec       q    Type
REMARK                         _______ _______ _______ _____ _____    ______ ____
ROOT
ATOM      1  O   UNL     1     -34.545  22.062  -0.462  0.00  0.00    -0.291 OA
ATOM      2  C   UNL     1     -34.796  20.233   1.142  0.00  0.00    +0.093 C 
ATOM      3  C   UNL     1     -35.378  20.312   2.578  0.00  0.00    +0.140 C 
ATOM      4  C   UNL     1     -35.285  21.769   2.919  0.00  0.00    +0.007 C 
ATOM      5  C   UNL     1     -34.965  22.555   1.817  0.00  0.00    +0.029 C 
ATOM      6  C   UNL     1     -34.756  21.679   0.675  0.00  0.00    +0.175 C 
ATOM      7  C   UNL     1     -34.866  23.933   1.878  0.00  0.00    -0.023 C 
ATOM      8  C   UNL     1     -35.098  24.538   3.113  0.00  0.00    -0.027 C 
ATOM      9  C   UNL     1     -35.516  22.369   4.146  0.00  0.00    -0.006 C 
ATOM     10  C   UNL     1     -35.419  23.762   4.240  0.00  0.00    -0.026 C 
ATOM     11  C   UNL     1     -35.563  19.352   0.170  0.00  0.00    +0.011 C 
ATOM     12  C   UNL     1     -34.520  24.749   0.680  0.00  0.00    +0.031 C 
ATOM     13  C   UNL     1     -35.670  24.408   5.564  0.00  0.00    +0.031 C 
ENDROOT
BRANCH   3  14
ATOM     14  O   UNL     1     -36.743  19.928   2.641  0.00  0.00    -0.380 OA
ATOM     15  H   UNL     1     -36.882  19.355   3.412  0.00  0.00    +0.211 HD
ENDBRANCH   3  14
BRANCH   8  16
ATOM     16  C   UNL     1     -35.005  26.026   3.244  0.00  0.00    +0.060 C 
BRANCH  16  17
ATOM     17  C   UNL     1     -33.602  26.501   3.625  0.00  0.00    +0.182 C 
BRANCH  17  18
ATOM     18  O   UNL     1     -33.695  27.517   4.617  0.00  0.00    -0.200 OA
BRANCH  18  19
ATOM     19  S   UNL     1     -32.353  27.991   5.420  0.00  0.00    +0.239 S 
ATOM     20  O   UNL     1     -31.148  27.694   4.362  0.00  0.00    -0.116 OA
ATOM     21  O   UNL     1     -32.436  29.429   5.596  0.00  0.00    -0.116 OA
ATOM     22  O   UNL     1     -32.162  27.126   6.569  0.00  0.00    -0.022 OA
ENDBRANCH  18  19
ENDBRANCH  17  18
ENDBRANCH  16  17
ENDBRANCH   8  16
TORSDOF 5
ENDMDL
MODEL 4
REMARK VINA RESULT:      -5.9      2.905      5.918
REMARK  Name = 54672170
REMARK  5 active torsions:
REMARK  status: ('A' for Active; 'I' for Inactive)
REMARK    1  A    between atoms: C_3  and  O_14
REMARK    2  A    between atoms: C_8  and  C_16
REMARK    3  A    between atoms: C_16  and  C_17
REMARK    4  A    between atoms: C_17  and  O_18
REMARK    5  A    between atoms: O_18  and  S_19
REMARK                            x       y       z     vdW  Elec       q    Type
REMARK                         _______ _______ _______ _____ _____    ______ ____
ROOT
ATOM      1  O   UNL     1     -33.825  26.702   1.471  0.00  0.00    -0.291 OA
ATOM      2  C   UNL     1     -33.826  27.685   3.711  0.00  0.00    +0.093 C 
ATOM      3  C   UNL     1     -33.849  26.934   5.069  0.00  0.00    +0.140 C 
ATOM      4  C   UNL     1     -34.354  25.569   4.711  0.00  0.00    +0.007 C 
ATOM      5  C   UNL     1     -34.392  25.357   3.337  0.00  0.00    +0.029 C 
ATOM      6  C   UNL     1     -33.979  26.584   2.673  0.00  0.00    +0.175 C 
ATOM      7  C   UNL     1     -34.782  24.157   2.770  0.00  0.00    -0.023 C 
ATOM      8  C   UNL     1     -35.153  23.130   3.637  0.00  0.00    -0.027 C 
ATOM      9  C   UNL     1     -34.722  24.548   5.573  0.00  0.00    -0.006 C 
ATOM     10  C   UNL     1     -35.126  23.324   5.028  0.00  0.00    -0.026 C 
ATOM     11  C   UNL     1     -32.592  28.532   3.449  0.00  0.00    +0.011 C 
ATOM     12  C   UNL     1     -34.813  23.961   1.293  0.00  0.00    +0.031 C 
ATOM     13  C   UNL     1     -35.522  22.224   5.960  0.00  0.00    +0.031 C 
ENDROOT
BRANCH   3  14
ATOM     14  O   UNL     1     -32.559  26.794   5.643  0.00  0.00    -0.380 OA
ATOM     15  H   UNL     1     -32.170  25.951   5.364  0.00  0.00    +0.211 HD
ENDBRANCH   3  14
BRANCH   8  16
ATOM     16  C   UNL     1     -35.587  21.808   3.084  0.00  0.00    +0.060 C 
BRANCH  16  17
ATOM     17  C   UNL     1     -37.028  21.824   2.572  0.00  0.00    +0.182 C 
BRANCH  17  18
ATOM     18  O   UNL     1     -37.760  22.845   3.239  0.00  0.00    -0.200 OA
BRANCH  18  19
ATOM     19  S   UNL     1     -39.018  23.566   2.485  0.00  0.00    +0.239 S 
ATOM     20  O   UNL     1     -39.586  24.610   3.601  0.00  0.00    -0.116 OA
ATOM     21  O   UNL     1     -38.479  24.348   1.388  0.00  0.00    -0.116 OA
ATOM     22  O   UNL     1     -40.048  22.574   2.236  0.00  0.00    -0.022 OA
ENDBRANCH  18  19
ENDBRANCH  17  18
ENDBRANCH  16  17
ENDBRANCH   8  16
TORSDOF 5
ENDMDL
MODEL 5
REMARK VINA RESULT:      -5.9      3.072      3.747
REMARK  Name = 54672170
REMARK  5 active torsions:
REMARK  status: ('A' for Active; 'I' for Inactive)
REMARK    1  A    between atoms: C_3  and  O_14
REMARK    2  A    between atoms: C_8  and  C_16
REMARK    3  A    between atoms: C_16  and  C_17
REMARK    4  A    between atoms: C_17  and  O_18
REMARK    5  A    between atoms: O_18  and  S_19
REMARK                            x       y       z     vdW  Elec       q    Type
REMARK                         _______ _______ _______ _____ _____    ______ ____
ROOT
ATOM      1  O   UNL     1     -37.642  27.613   1.508  0.00  0.00    -0.291 OA
ATOM      2  C   UNL     1     -39.102  25.664   1.736  0.00  0.00    +0.093 C 
ATOM      3  C   UNL     1     -39.047  24.568   2.833  0.00  0.00    +0.140 C 
ATOM      4  C   UNL     1     -37.661  24.695   3.391  0.00  0.00    +0.007 C 
ATOM      5  C   UNL     1     -37.009  25.840   2.948  0.00  0.00    +0.029 C 
ATOM      6  C   UNL     1     -37.883  26.531   2.012  0.00  0.00    +0.175 C 
ATOM      7  C   UNL     1     -35.737  26.192   3.362  0.00  0.00    -0.023 C 
ATOM      8  C   UNL     1     -35.098  25.340   4.261  0.00  0.00    -0.027 C 
ATOM      9  C   UNL     1     -37.026  23.848   4.285  0.00  0.00    -0.006 C 
ATOM     10  C   UNL     1     -35.737  24.175   4.719  0.00  0.00    -0.026 C 
ATOM     11  C   UNL     1     -40.377  26.489   1.695  0.00  0.00    +0.011 C 
ATOM     12  C   UNL     1     -35.065  27.428   2.868  0.00  0.00    +0.031 C 
ATOM     13  C   UNL     1     -35.053  23.260   5.684  0.00  0.00    +0.031 C 
ENDROOT
BRANCH   3  14
ATOM     14  O   UNL     1     -39.971  24.795   3.886  0.00  0.00    -0.380 OA
ATOM     15  H   UNL     1     -39.516  25.214   4.632  0.00  0.00    +0.211 HD
ENDBRANCH   3  14
BRANCH   8  16
ATOM     16  C   UNL     1     -33.719  25.665   4.745  0.00  0.00    +0.060 C 
BRANCH  16  17
ATOM     17  C   UNL     1     -33.723  26.534   6.004  0.00  0.00    +0.182 C 
BRANCH  17  18
ATOM     18  O   UNL     1     -32.387  26.883   6.347  0.00  0.00    -0.200 OA
BRANCH  18  19
ATOM     19  S   UNL     1     -31.829  28.381   6.011  0.00  0.00    +0.239 S 
ATOM     20  O   UNL     1     -30.289  28.121   5.543  0.00  0.00    -0.116 OA
ATOM     21  O   UNL     1     -32.560  28.871   4.857  0.00  0.00    -0.116 OA
ATOM     22  O   UNL     1     -31.798  29.158   7.237  0.00  0.00    -0.022 OA
ENDBRANCH  18  19
ENDBRANCH  17  18
ENDBRANCH  16  17
ENDBRANCH   8  16
TORSDOF 5
ENDMDL
MODEL 6
REMARK VINA RESULT:      -5.7      4.061      5.414
REMARK  Name = 54672170
REMARK  5 active torsions:
REMARK  status: ('A' for Active; 'I' for Inactive)
REMARK    1  A    between atoms: C_3  and  O_14
REMARK    2  A    between atoms: C_8  and  C_16
REMARK    3  A    between atoms: C_16  and  C_17
REMARK    4  A    between atoms: C_17  and  O_18
REMARK    5  A    between atoms: O_18  and  S_19
REMARK                            x       y       z     vdW  Elec       q    Type
REMARK                         _______ _______ _______ _____ _____    ______ ____
ROOT
ATOM      1  O   UNL     1     -30.125  20.574  -1.008  0.00  0.00    -0.291 OA
ATOM      2  C   UNL     1     -30.259  18.532   0.332  0.00  0.00    +0.093 C 
ATOM      3  C   UNL     1     -31.529  17.901   0.963  0.00  0.00    +0.140 C 
ATOM      4  C   UNL     1     -32.511  19.033   0.991  0.00  0.00    +0.007 C 
ATOM      5  C   UNL     1     -32.079  20.133   0.259  0.00  0.00    +0.029 C 
ATOM      6  C   UNL     1     -30.749  19.846  -0.256  0.00  0.00    +0.175 C 
ATOM      7  C   UNL     1     -32.835  21.280   0.104  0.00  0.00    -0.023 C 
ATOM      8  C   UNL     1     -34.085  21.311   0.722  0.00  0.00    -0.027 C 
ATOM      9  C   UNL     1     -33.753  19.063   1.605  0.00  0.00    -0.006 C 
ATOM     10  C   UNL     1     -34.540  20.212   1.469  0.00  0.00    -0.026 C 
ATOM     11  C   UNL     1     -29.551  17.682  -0.710  0.00  0.00    +0.011 C 
ATOM     12  C   UNL     1     -32.343  22.445  -0.686  0.00  0.00    +0.031 C 
ATOM     13  C   UNL     1     -35.880  20.242   2.132  0.00  0.00    +0.031 C 
ENDROOT
BRANCH   3  14
ATOM     14  O   UNL     1     -32.076  16.857   0.173  0.00  0.00    -0.380 OA
ATOM     15  H   UNL     1     -32.370  17.215  -0.679  0.00  0.00    +0.211 HD
ENDBRANCH   3  14
BRANCH   8  16
ATOM     16  C   UNL     1     -34.951  22.525   0.592  0.00  0.00    +0.060 C 
BRANCH  16  17
ATOM     17  C   UNL     1     -34.851  23.457   1.801  0.00  0.00    +0.182 C 
BRANCH  17  18
ATOM     18  O   UNL     1     -36.154  23.721   2.309  0.00  0.00    -0.200 OA
BRANCH  18  19
ATOM     19  S   UNL     1     -36.361  23.998   3.906  0.00  0.00    +0.239 S 
ATOM     20  O   UNL     1     -37.904  24.517   4.008  0.00  0.00    -0.116 OA
ATOM     21  O   UNL     1     -36.283  22.718   4.585  0.00  0.00    -0.116 OA
ATOM     22  O   UNL     1     -35.495  25.091   4.310  0.00  0.00    -0.022 OA
ENDBRANCH  18  19
ENDBRANCH  17  18
ENDBRANCH  16  17
ENDBRANCH   8  16
TORSDOF 5
ENDMDL
MODEL 7
REMARK VINA RESULT:      -5.5      3.044      6.405
REMARK  Name = 54672170
REMARK  5 active torsions:
REMARK  status: ('A' for Active; 'I' for Inactive)
REMARK    1  A    between atoms: C_3  and  O_14
REMARK    2  A    between atoms: C_8  and  C_16
REMARK    3  A    between atoms: C_16  and  C_17
REMARK    4  A    between atoms: C_17  and  O_18
REMARK    5  A    between atoms: O_18  and  S_19
REMARK                            x       y       z     vdW  Elec       q    Type
REMARK                         _______ _______ _______ _____ _____    ______ ____
ROOT
ATOM      1  O   UNL     1     -34.996  26.230   1.521  0.00  0.00    -0.291 OA
ATOM      2  C   UNL     1     -34.742  27.093   3.795  0.00  0.00    +0.093 C 
ATOM      3  C   UNL     1     -34.465  26.278   5.087  0.00  0.00    +0.140 C 
ATOM      4  C   UNL     1     -34.871  24.882   4.720  0.00  0.00    +0.007 C 
ATOM      5  C   UNL     1     -35.106  24.736   3.357  0.00  0.00    +0.029 C 
ATOM      6  C   UNL     1     -34.941  26.034   2.722  0.00  0.00    +0.175 C 
ATOM      7  C   UNL     1     -35.451  23.529   2.777  0.00  0.00    -0.023 C 
ATOM      8  C   UNL     1     -35.565  22.423   3.619  0.00  0.00    -0.027 C 
ATOM      9  C   UNL     1     -34.983  23.784   5.557  0.00  0.00    -0.006 C 
ATOM     10  C   UNL     1     -35.334  22.549   4.999  0.00  0.00    -0.026 C 
ATOM     11  C   UNL     1     -33.665  28.091   3.405  0.00  0.00    +0.011 C 
ATOM     12  C   UNL     1     -35.699  23.404   1.312  0.00  0.00    +0.031 C 
ATOM     13  C   UNL     1     -35.455  21.365   5.904  0.00  0.00    +0.031 C 
ENDROOT
BRANCH   3  14
ATOM     14  O   UNL     1     -33.092  26.262   5.444  0.00  0.00    -0.380 OA
ATOM     15  H   UNL     1     -32.562  26.610   4.710  0.00  0.00    +0.211 HD
ENDBRANCH   3  14
BRANCH   8  16
ATOM     16  C   UNL     1     -35.936  21.089   3.052  0.00  0.00    +0.060 C 
BRANCH  16  17
ATOM     17  C   UNL     1     -34.728  20.310   2.530  0.00  0.00    +0.182 C 
BRANCH  17  18
ATOM     18  O   UNL     1     -35.116  19.519   1.412  0.00  0.00    -0.200 OA
BRANCH  18  19
ATOM     19  S   UNL     1     -33.984  18.700   0.566  0.00  0.00    +0.239 S 
ATOM     20  O   UNL     1     -33.369  19.825  -0.441  0.00  0.00    -0.116 OA
ATOM     21  O   UNL     1     -32.934  18.322   1.494  0.00  0.00    -0.116 OA
ATOM     22  O   UNL     1     -34.641  17.689  -0.242  0.00  0.00    -0.022 OA
ENDBRANCH  18  19
ENDBRANCH  17  18
ENDBRANCH  16  17
ENDBRANCH   8  16
TORSDOF 5
ENDMDL
MODEL 8
REMARK VINA RESULT:      -5.5      3.134      4.221
REMARK  Name = 54672170
REMARK  5 active torsions:
REMARK  status: ('A' for Active; 'I' for Inactive)
REMARK    1  A    between atoms: C_3  and  O_14
REMARK    2  A    between atoms: C_8  and  C_16
REMARK    3  A    between atoms: C_16  and  C_17
REMARK    4  A    between atoms: C_17  and  O_18
REMARK    5  A    between atoms: O_18  and  S_19
REMARK                            x       y       z     vdW  Elec       q    Type
REMARK                         _______ _______ _______ _____ _____    ______ ____
ROOT
ATOM      1  O   UNL     1     -31.171  20.552  -0.818  0.00  0.00    -0.291 OA
ATOM      2  C   UNL     1     -31.715  18.692   0.674  0.00  0.00    +0.093 C 
ATOM      3  C   UNL     1     -33.062  18.428   1.398  0.00  0.00    +0.140 C 
ATOM      4  C   UNL     1     -33.742  19.763   1.380  0.00  0.00    +0.007 C 
ATOM      5  C   UNL     1     -33.100  20.678   0.552  0.00  0.00    +0.029 C 
ATOM      6  C   UNL     1     -31.908  20.045   0.009  0.00  0.00    +0.175 C 
ATOM      7  C   UNL     1     -33.568  21.962   0.342  0.00  0.00    -0.023 C 
ATOM      8  C   UNL     1     -34.738  22.334   1.004  0.00  0.00    -0.027 C 
ATOM      9  C   UNL     1     -34.905  20.132   2.037  0.00  0.00    -0.006 C 
ATOM     10  C   UNL     1     -35.401  21.426   1.847  0.00  0.00    -0.026 C 
ATOM     11  C   UNL     1     -31.290  17.632  -0.328  0.00  0.00    +0.011 C 
ATOM     12  C   UNL     1     -32.856  22.921  -0.551  0.00  0.00    +0.031 C 
ATOM     13  C   UNL     1     -36.656  21.822   2.557  0.00  0.00    +0.031 C 
ENDROOT
BRANCH   3  14
ATOM     14  O   UNL     1     -33.886  17.499   0.710  0.00  0.00    -0.380 OA
ATOM     15  H   UNL     1     -33.773  17.614  -0.247  0.00  0.00    +0.211 HD
ENDBRANCH   3  14
BRANCH   8  16
ATOM     16  C   UNL     1     -35.295  23.711   0.817  0.00  0.00    +0.060 C 
BRANCH  16  17
ATOM     17  C   UNL     1     -34.665  24.737   1.761  0.00  0.00    +0.182 C 
BRANCH  17  18
ATOM     18  O   UNL     1     -35.658  25.245   2.644  0.00  0.00    -0.200 OA
BRANCH  18  19
ATOM     19  S   UNL     1     -35.394  25.226   4.257  0.00  0.00    +0.239 S 
ATOM     20  O   UNL     1     -36.747  24.544   4.859  0.00  0.00    -0.116 OA
ATOM     21  O   UNL     1     -34.294  24.314   4.509  0.00  0.00    -0.116 OA
ATOM     22  O   UNL     1     -35.331  26.594   4.739  0.00  0.00    -0.022 OA
ENDBRANCH  18  19
ENDBRANCH  17  18
ENDBRANCH  16  17
ENDBRANCH   8  16
TORSDOF 5
ENDMDL
MODEL 9
REMARK VINA RESULT:      -5.5      1.533      1.779
REMARK  Name = 54672170
REMARK  5 active torsions:
REMARK  status: ('A' for Active; 'I' for Inactive)
REMARK    1  A    between atoms: C_3  and  O_14
REMARK    2  A    between atoms: C_8  and  C_16
REMARK    3  A    between atoms: C_16  and  C_17
REMARK    4  A    between atoms: C_17  and  O_18
REMARK    5  A    between atoms: O_18  and  S_19
REMARK                            x       y       z     vdW  Elec       q    Type
REMARK                         _______ _______ _______ _____ _____    ______ ____
ROOT
ATOM      1  O   UNL     1     -38.771  22.305  -0.396  0.00  0.00    -0.291 OA
ATOM      2  C   UNL     1     -37.111  20.516  -0.234  0.00  0.00    +0.093 C 
ATOM      3  C   UNL     1     -36.288  20.105   1.016  0.00  0.00    +0.140 C 
ATOM      4  C   UNL     1     -36.367  21.310   1.905  0.00  0.00    +0.007 C 
ATOM      5  C   UNL     1     -37.300  22.241   1.461  0.00  0.00    +0.029 C 
ATOM      6  C   UNL     1     -37.864  21.761   0.208  0.00  0.00    +0.175 C 
ATOM      7  C   UNL     1     -37.579  23.412   2.140  0.00  0.00    -0.023 C 
ATOM      8  C   UNL     1     -36.877  23.649   3.322  0.00  0.00    -0.027 C 
ATOM      9  C   UNL     1     -35.671  21.544   3.079  0.00  0.00    -0.006 C 
ATOM     10  C   UNL     1     -35.929  22.723   3.788  0.00  0.00    -0.026 C 
ATOM     11  C   UNL     1     -38.054  19.455  -0.777  0.00  0.00    +0.011 C 
ATOM     12  C   UNL     1     -38.583  24.392   1.637  0.00  0.00    +0.031 C 
ATOM     13  C   UNL     1     -35.176  22.975   5.055  0.00  0.00    +0.031 C 
ENDROOT
BRANCH   3  14
ATOM     14  O   UNL     1     -36.853  19.003   1.710  0.00  0.00    -0.380 OA
ATOM     15  H   UNL     1     -37.547  19.319   2.309  0.00  0.00    +0.211 HD
ENDBRANCH   3  14
BRANCH   8  16
ATOM     16  C   UNL     1     -37.134  24.900   4.103  0.00  0.00    +0.060 C 
BRANCH  16  17
ATOM     17  C   UNL     1     -36.206  26.049   3.704  0.00  0.00    +0.182 C 
BRANCH  17  18
ATOM     18  O   UNL     1     -35.525  26.533   4.855  0.00  0.00    -0.200 OA
BRANCH  18  19
ATOM     19  S   UNL     1     -33.906  26.749   4.809  0.00  0.00    +0.239 S 
ATOM     20  O   UNL     1     -33.470  26.723   6.380  0.00  0.00    -0.116 OA
ATOM     21  O   UNL     1     -33.328  25.579   4.174  0.00  0.00    -0.116 OA
ATOM     22  O   UNL     1     -33.623  28.074   4.289  0.00  0.00    -0.022 OA
ENDBRANCH  18  19
ENDBRANCH  17  18
ENDBRANCH  16  17
ENDBRANCH   8  16
TORSDOF 5
ENDMDL
