MODEL 1
REMARK VINA RESULT:      -6.3      0.000      0.000
REMARK  Name = 5487109
REMARK  4 active torsions:
REMARK  status: ('A' for Active; 'I' for Inactive)
REMARK    1  A    between atoms: N_1  and  C_6
REMARK    2  A    between atoms: N_1  and  N_11
REMARK    3  A    between atoms: C_7  and  C_21
REMARK    4  A    between atoms: N_11  and  C_14
REMARK                            x       y       z     vdW  Elec       q    Type
REMARK                         _______ _______ _______ _____ _____    ______ ____
ROOT
ATOM      1  C   UNL     1     -35.123  24.962   2.618  0.00  0.00    +0.001 C 
ATOM      2  C   UNL     1     -35.215  24.052   3.803  0.00  0.00    +0.002 C 
ATOM      3  C   UNL     1     -35.070  24.008   1.414  0.00  0.00    +0.018 C 
ATOM      4  C   UNL     1     -35.222  22.706   3.452  0.00  0.00    -0.001 C 
ATOM      5  C   UNL     1     -35.134  22.626   2.010  0.00  0.00    +0.088 C 
ATOM      6  C   UNL     1     -35.290  24.415   5.138  0.00  0.00    +0.053 C 
ATOM      7  C   UNL     1     -35.301  21.687   4.383  0.00  0.00    +0.054 C 
ATOM      8  C   UNL     1     -35.372  23.405   6.103  0.00  0.00    +0.000 C 
ATOM      9  C   UNL     1     -35.378  22.051   5.727  0.00  0.00    -0.021 C 
ENDROOT
BRANCH   6  12
ATOM     10  O   UNL     1     -34.250  26.364   5.953  0.00  0.00    -0.270 OA
ATOM     11  N   UNL     1     -36.484  26.515   5.456  0.00  0.00    -0.325 N 
ATOM     12  C   UNL     1     -35.286  25.810   5.548  0.00  0.00    +0.243 C 
ATOM     13  H   UNL     1     -36.520  27.462   5.724  0.00  0.00    +0.145 HD
ATOM     14  H   UNL     1     -37.294  26.067   5.121  0.00  0.00    +0.145 HD
ENDBRANCH   6  12
BRANCH   5  15
ATOM     15  N   UNL     1     -35.111  21.556   1.292  0.00  0.00    -0.115 NA
BRANCH  15  16
ATOM     16  N   UNL     1     -36.343  21.361   0.674  0.00  0.00    -0.124 NA
BRANCH  16  19
ATOM     17  N   UNL     1     -38.245  20.831   2.033  0.00  0.00    -0.369 N 
ATOM     18  N   UNL     1     -36.803  19.184   1.378  0.00  0.00    -0.369 N 
ATOM     19  C   UNL     1     -37.101  20.523   1.331  0.00  0.00    +0.210 C 
ATOM     20  H   UNL     1     -38.563  21.761   2.073  0.00  0.00    +0.159 HD
ATOM     21  H   UNL     1     -38.745  20.119   2.495  0.00  0.00    +0.159 HD
ATOM     22  H   UNL     1     -36.006  18.840   0.912  0.00  0.00    +0.159 HD
ATOM     23  H   UNL     1     -37.385  18.567   1.878  0.00  0.00    +0.159 HD
ENDBRANCH  16  19
ENDBRANCH  15  16
ENDBRANCH   5  15
TORSDOF 4
ENDMDL
MODEL 2
REMARK VINA RESULT:      -6.2      2.731      5.801
REMARK  Name = 5487109
REMARK  4 active torsions:
REMARK  status: ('A' for Active; 'I' for Inactive)
REMARK    1  A    between atoms: N_1  and  C_6
REMARK    2  A    between atoms: N_1  and  N_11
REMARK    3  A    between atoms: C_7  and  C_21
REMARK    4  A    between atoms: N_11  and  C_14
REMARK                            x       y       z     vdW  Elec       q    Type
REMARK                         _______ _______ _______ _____ _____    ______ ____
ROOT
ATOM      1  C   UNL     1     -35.139  23.833   2.279  0.00  0.00    +0.001 C 
ATOM      2  C   UNL     1     -35.185  23.166   3.618  0.00  0.00    +0.002 C 
ATOM      3  C   UNL     1     -34.809  25.300   2.601  0.00  0.00    +0.018 C 
ATOM      4  C   UNL     1     -34.929  24.042   4.668  0.00  0.00    -0.001 C 
ATOM      5  C   UNL     1     -34.695  25.353   4.102  0.00  0.00    +0.088 C 
ATOM      6  C   UNL     1     -35.444  21.832   3.884  0.00  0.00    +0.053 C 
ATOM      7  C   UNL     1     -34.918  23.646   5.992  0.00  0.00    +0.054 C 
ATOM      8  C   UNL     1     -35.439  21.401   5.215  0.00  0.00    +0.000 C 
ATOM      9  C   UNL     1     -35.178  22.302   6.261  0.00  0.00    -0.021 C 
ENDROOT
BRANCH   6  12
ATOM     10  O   UNL     1     -34.797  20.280   2.234  0.00  0.00    -0.270 OA
ATOM     11  N   UNL     1     -37.047  20.656   2.475  0.00  0.00    -0.325 N 
ATOM     12  C   UNL     1     -35.716  20.883   2.816  0.00  0.00    +0.243 C 
ATOM     13  H   UNL     1     -37.270  20.020   1.757  0.00  0.00    +0.145 HD
ATOM     14  H   UNL     1     -37.765  21.131   2.953  0.00  0.00    +0.145 HD
ENDBRANCH   6  12
BRANCH   5  15
ATOM     15  N   UNL     1     -34.425  26.438   4.742  0.00  0.00    -0.115 NA
BRANCH  15  16
ATOM     16  N   UNL     1     -33.050  26.578   4.900  0.00  0.00    -0.124 NA
BRANCH  16  19
ATOM     17  N   UNL     1     -32.638  27.152   7.190  0.00  0.00    -0.369 N 
ATOM     18  N   UNL     1     -32.479  28.744   5.559  0.00  0.00    -0.369 N 
ATOM     19  C   UNL     1     -32.742  27.427   5.845  0.00  0.00    +0.210 C 
ATOM     20  H   UNL     1     -32.804  26.240   7.521  0.00  0.00    +0.159 HD
ATOM     21  H   UNL     1     -32.400  27.869   7.822  0.00  0.00    +0.159 HD
ATOM     22  H   UNL     1     -32.521  29.062   4.628  0.00  0.00    +0.159 HD
ATOM     23  H   UNL     1     -32.249  29.369   6.283  0.00  0.00    +0.159 HD
ENDBRANCH  16  19
ENDBRANCH  15  16
ENDBRANCH   5  15
TORSDOF 4
ENDMDL
MODEL 3
REMARK VINA RESULT:      -6.0      1.595      1.956
REMARK  Name = 5487109
REMARK  4 active torsions:
REMARK  status: ('A' for Active; 'I' for Inactive)
REMARK    1  A    between atoms: N_1  and  C_6
REMARK    2  A    between atoms: N_1  and  N_11
REMARK    3  A    between atoms: C_7  and  C_21
REMARK    4  A    between atoms: N_11  and  C_14
REMARK                            x       y       z     vdW  Elec       q    Type
REMARK                         _______ _______ _______ _____ _____    ______ ____
ROOT
ATOM      1  C   UNL     1     -35.536  24.082   2.568  0.00  0.00    +0.001 C 
ATOM      2  C   UNL     1     -35.433  23.525   3.953  0.00  0.00    +0.002 C 
ATOM      3  C   UNL     1     -35.505  22.842   1.660  0.00  0.00    +0.018 C 
ATOM      4  C   UNL     1     -35.347  22.137   3.973  0.00  0.00    -0.001 C 
ATOM      5  C   UNL     1     -35.386  21.673   2.603  0.00  0.00    +0.088 C 
ATOM      6  C   UNL     1     -35.419  24.231   5.145  0.00  0.00    +0.053 C 
ATOM      7  C   UNL     1     -35.246  21.406   5.142  0.00  0.00    +0.054 C 
ATOM      8  C   UNL     1     -35.318  23.518   6.345  0.00  0.00    +0.000 C 
ATOM      9  C   UNL     1     -35.232  22.116   6.342  0.00  0.00    -0.021 C 
ENDROOT
BRANCH   6  12
ATOM     10  O   UNL     1     -34.488  26.394   5.174  0.00  0.00    -0.270 OA
ATOM     11  N   UNL     1     -36.777  26.254   5.171  0.00  0.00    -0.325 N 
ATOM     12  C   UNL     1     -35.507  25.682   5.170  0.00  0.00    +0.243 C 
ATOM     13  H   UNL     1     -36.876  27.233   5.187  0.00  0.00    +0.145 HD
ATOM     14  H   UNL     1     -37.576  25.678   5.155  0.00  0.00    +0.145 HD
ENDBRANCH   6  12
BRANCH   5  15
ATOM     15  N   UNL     1     -35.330  20.452   2.194  0.00  0.00    -0.115 NA
BRANCH  15  16
ATOM     16  N   UNL     1     -34.212  20.261   1.389  0.00  0.00    -0.124 NA
BRANCH  16  19
ATOM     17  N   UNL     1     -34.845  18.155   0.435  0.00  0.00    -0.369 N 
ATOM     18  N   UNL     1     -32.850  18.370   1.527  0.00  0.00    -0.369 N 
ATOM     19  C   UNL     1     -34.001  18.999   1.122  0.00  0.00    +0.210 C 
ATOM     20  H   UNL     1     -35.705  18.490   0.092  0.00  0.00    +0.159 HD
ATOM     21  H   UNL     1     -34.589  17.216   0.288  0.00  0.00    +0.159 HD
ATOM     22  H   UNL     1     -32.166  18.872   2.028  0.00  0.00    +0.159 HD
ATOM     23  H   UNL     1     -32.708  17.419   1.318  0.00  0.00    +0.159 HD
ENDBRANCH  16  19
ENDBRANCH  15  16
ENDBRANCH   5  15
TORSDOF 4
ENDMDL
MODEL 4
REMARK VINA RESULT:      -5.9      2.515      6.035
REMARK  Name = 5487109
REMARK  4 active torsions:
REMARK  status: ('A' for Active; 'I' for Inactive)
REMARK    1  A    between atoms: N_1  and  C_6
REMARK    2  A    between atoms: N_1  and  N_11
REMARK    3  A    between atoms: C_7  and  C_21
REMARK    4  A    between atoms: N_11  and  C_14
REMARK                            x       y       z     vdW  Elec       q    Type
REMARK                         _______ _______ _______ _____ _____    ______ ____
ROOT
ATOM      1  C   UNL     1     -35.399  21.875   5.021  0.00  0.00    +0.001 C 
ATOM      2  C   UNL     1     -35.358  22.505   3.665  0.00  0.00    +0.002 C 
ATOM      3  C   UNL     1     -35.293  23.063   5.992  0.00  0.00    +0.018 C 
ATOM      4  C   UNL     1     -35.242  23.891   3.715  0.00  0.00    -0.001 C 
ATOM      5  C   UNL     1     -35.197  24.279   5.108  0.00  0.00    +0.088 C 
ATOM      6  C   UNL     1     -35.423  21.865   2.438  0.00  0.00    +0.053 C 
ATOM      7  C   UNL     1     -35.186  24.682   2.583  0.00  0.00    +0.054 C 
ATOM      8  C   UNL     1     -35.369  22.641   1.274  0.00  0.00    +0.000 C 
ATOM      9  C   UNL     1     -35.251  24.039   1.347  0.00  0.00    -0.021 C 
ENDROOT
BRANCH   6  12
ATOM     10  O   UNL     1     -34.544  19.684   2.306  0.00  0.00    -0.270 OA
ATOM     11  N   UNL     1     -36.828  19.879   2.303  0.00  0.00    -0.325 N 
ATOM     12  C   UNL     1     -35.545  20.419   2.341  0.00  0.00    +0.243 C 
ATOM     13  H   UNL     1     -36.951  18.905   2.238  0.00  0.00    +0.145 HD
ATOM     14  H   UNL     1     -37.613  20.473   2.343  0.00  0.00    +0.145 HD
ENDBRANCH   6  12
BRANCH   5  15
ATOM     15  N   UNL     1     -35.092  25.475   5.578  0.00  0.00    -0.115 NA
BRANCH  15  16
ATOM     16  N   UNL     1     -33.756  25.789   5.806  0.00  0.00    -0.124 NA
BRANCH  16  19
ATOM     17  N   UNL     1     -33.932  27.601   4.246  0.00  0.00    -0.369 N 
ATOM     18  N   UNL     1     -32.557  27.776   6.063  0.00  0.00    -0.369 N 
ATOM     19  C   UNL     1     -33.447  26.985   5.378  0.00  0.00    +0.210 C 
ATOM     20  H   UNL     1     -34.579  27.133   3.670  0.00  0.00    +0.159 HD
ATOM     21  H   UNL     1     -33.632  28.509   4.013  0.00  0.00    +0.159 HD
ATOM     22  H   UNL     1     -32.141  27.445   6.892  0.00  0.00    +0.159 HD
ATOM     23  H   UNL     1     -32.336  28.674   5.725  0.00  0.00    +0.159 HD
ENDBRANCH  16  19
ENDBRANCH  15  16
ENDBRANCH   5  15
TORSDOF 4
ENDMDL
MODEL 5
REMARK VINA RESULT:      -5.9      0.989      2.561
REMARK  Name = 5487109
REMARK  4 active torsions:
REMARK  status: ('A' for Active; 'I' for Inactive)
REMARK    1  A    between atoms: N_1  and  C_6
REMARK    2  A    between atoms: N_1  and  N_11
REMARK    3  A    between atoms: C_7  and  C_21
REMARK    4  A    between atoms: N_11  and  C_14
REMARK                            x       y       z     vdW  Elec       q    Type
REMARK                         _______ _______ _______ _____ _____    ______ ____
ROOT
ATOM      1  C   UNL     1     -35.385  23.047   5.701  0.00  0.00    +0.001 C 
ATOM      2  C   UNL     1     -35.240  23.745   4.385  0.00  0.00    +0.002 C 
ATOM      3  C   UNL     1     -35.374  21.553   5.338  0.00  0.00    +0.018 C 
ATOM      4  C   UNL     1     -35.147  22.864   3.312  0.00  0.00    -0.001 C 
ATOM      5  C   UNL     1     -35.225  21.518   3.839  0.00  0.00    +0.088 C 
ATOM      6  C   UNL     1     -35.191  25.111   4.158  0.00  0.00    +0.053 C 
ATOM      7  C   UNL     1     -35.007  23.285   2.003  0.00  0.00    +0.054 C 
ATOM      8  C   UNL     1     -35.050  25.567   2.843  0.00  0.00    +0.000 C 
ATOM      9  C   UNL     1     -34.958  24.660   1.774  0.00  0.00    -0.021 C 
ENDROOT
BRANCH   6  12
ATOM     10  O   UNL     1     -34.280  26.413   5.897  0.00  0.00    -0.270 OA
ATOM     11  N   UNL     1     -36.538  26.597   5.543  0.00  0.00    -0.325 N 
ATOM     12  C   UNL     1     -35.284  26.066   5.251  0.00  0.00    +0.243 C 
ATOM     13  H   UNL     1     -36.640  27.246   6.275  0.00  0.00    +0.145 HD
ATOM     14  H   UNL     1     -37.323  26.322   5.015  0.00  0.00    +0.145 HD
ENDBRANCH   6  12
BRANCH   5  15
ATOM     15  N   UNL     1     -35.178  20.419   3.169  0.00  0.00    -0.115 NA
BRANCH  15  16
ATOM     16  N   UNL     1     -36.379  20.209   2.497  0.00  0.00    -0.124 NA
BRANCH  16  19
ATOM     17  N   UNL     1     -35.255  20.089   0.383  0.00  0.00    -0.369 N 
ATOM     18  N   UNL     1     -36.986  18.672   0.849  0.00  0.00    -0.369 N 
ATOM     19  C   UNL     1     -36.199  19.701   1.306  0.00  0.00    +0.210 C 
ATOM     20  H   UNL     1     -34.630  20.819   0.595  0.00  0.00    +0.159 HD
ATOM     21  H   UNL     1     -35.206  19.637  -0.490  0.00  0.00    +0.159 HD
ATOM     22  H   UNL     1     -37.699  18.306   1.421  0.00  0.00    +0.159 HD
ATOM     23  H   UNL     1     -36.838  18.301  -0.051  0.00  0.00    +0.159 HD
ENDBRANCH  16  19
ENDBRANCH  15  16
ENDBRANCH   5  15
TORSDOF 4
ENDMDL
MODEL 6
REMARK VINA RESULT:      -5.8      3.150      6.703
REMARK  Name = 5487109
REMARK  4 active torsions:
REMARK  status: ('A' for Active; 'I' for Inactive)
REMARK    1  A    between atoms: N_1  and  C_6
REMARK    2  A    between atoms: N_1  and  N_11
REMARK    3  A    between atoms: C_7  and  C_21
REMARK    4  A    between atoms: N_11  and  C_14
REMARK                            x       y       z     vdW  Elec       q    Type
REMARK                         _______ _______ _______ _____ _____    ______ ____
ROOT
ATOM      1  C   UNL     1     -35.156  24.474   5.490  0.00  0.00    +0.001 C 
ATOM      2  C   UNL     1     -34.788  24.443   4.040  0.00  0.00    +0.002 C 
ATOM      3  C   UNL     1     -34.507  25.764   6.016  0.00  0.00    +0.018 C 
ATOM      4  C   UNL     1     -34.016  25.534   3.654  0.00  0.00    -0.001 C 
ATOM      5  C   UNL     1     -33.816  26.367   4.820  0.00  0.00    +0.088 C 
ATOM      6  C   UNL     1     -35.131  23.479   3.106  0.00  0.00    +0.053 C 
ATOM      7  C   UNL     1     -33.562  25.714   2.361  0.00  0.00    +0.054 C 
ATOM      8  C   UNL     1     -34.685  23.634   1.788  0.00  0.00    +0.000 C 
ATOM      9  C   UNL     1     -33.907  24.744   1.420  0.00  0.00    -0.021 C 
ENDROOT
BRANCH   6  12
ATOM     10  O   UNL     1     -35.416  21.276   3.888  0.00  0.00    -0.270 OA
ATOM     11  N   UNL     1     -37.319  22.433   3.341  0.00  0.00    -0.325 N 
ATOM     12  C   UNL     1     -35.936  22.323   3.467  0.00  0.00    +0.243 C 
ATOM     13  H   UNL     1     -37.897  21.671   3.576  0.00  0.00    +0.145 HD
ATOM     14  H   UNL     1     -37.719  23.273   3.018  0.00  0.00    +0.145 HD
ENDBRANCH   6  12
BRANCH   5  15
ATOM     15  N   UNL     1     -33.154  27.471   4.881  0.00  0.00    -0.115 NA
BRANCH  15  16
ATOM     16  N   UNL     1     -32.517  27.586   6.112  0.00  0.00    -0.124 NA
BRANCH  16  19
ATOM     17  N   UNL     1     -30.906  29.051   7.116  0.00  0.00    -0.369 N 
ATOM     18  N   UNL     1     -32.384  29.852   5.568  0.00  0.00    -0.369 N 
ATOM     19  C   UNL     1     -31.953  28.755   6.272  0.00  0.00    +0.210 C 
ATOM     20  H   UNL     1     -30.510  28.345   7.675  0.00  0.00    +0.159 HD
ATOM     21  H   UNL     1     -30.555  29.970   7.160  0.00  0.00    +0.159 HD
ATOM     22  H   UNL     1     -33.129  29.766   4.930  0.00  0.00    +0.159 HD
ATOM     23  H   UNL     1     -31.948  30.725   5.701  0.00  0.00    +0.159 HD
ENDBRANCH  16  19
ENDBRANCH  15  16
ENDBRANCH   5  15
TORSDOF 4
ENDMDL
MODEL 7
REMARK VINA RESULT:      -5.6      3.612      6.013
REMARK  Name = 5487109
REMARK  4 active torsions:
REMARK  status: ('A' for Active; 'I' for Inactive)
REMARK    1  A    between atoms: N_1  and  C_6
REMARK    2  A    between atoms: N_1  and  N_11
REMARK    3  A    between atoms: C_7  and  C_21
REMARK    4  A    between atoms: N_11  and  C_14
REMARK                            x       y       z     vdW  Elec       q    Type
REMARK                         _______ _______ _______ _____ _____    ______ ____
ROOT
ATOM      1  C   UNL     1     -35.931  26.690   2.848  0.00  0.00    +0.001 C 
ATOM      2  C   UNL     1     -35.710  25.456   3.665  0.00  0.00    +0.002 C 
ATOM      3  C   UNL     1     -34.652  27.516   3.059  0.00  0.00    +0.018 C 
ATOM      4  C   UNL     1     -34.483  25.454   4.320  0.00  0.00    -0.001 C 
ATOM      5  C   UNL     1     -33.802  26.686   3.984  0.00  0.00    +0.088 C 
ATOM      6  C   UNL     1     -36.570  24.381   3.815  0.00  0.00    +0.053 C 
ATOM      7  C   UNL     1     -34.064  24.416   5.131  0.00  0.00    +0.054 C 
ATOM      8  C   UNL     1     -36.174  23.315   4.630  0.00  0.00    +0.000 C 
ATOM      9  C   UNL     1     -34.930  23.333   5.282  0.00  0.00    -0.021 C 
ENDROOT
BRANCH   6  12
ATOM     10  O   UNL     1     -37.988  23.874   2.004  0.00  0.00    -0.270 OA
ATOM     11  N   UNL     1     -38.964  24.836   3.843  0.00  0.00    -0.325 N 
ATOM     12  C   UNL     1     -37.862  24.343   3.149  0.00  0.00    +0.243 C 
ATOM     13  H   UNL     1     -39.855  24.827   3.424  0.00  0.00    +0.145 HD
ATOM     14  H   UNL     1     -38.852  25.194   4.754  0.00  0.00    +0.145 HD
ENDBRANCH   6  12
BRANCH   5  15
ATOM     15  N   UNL     1     -32.639  27.066   4.390  0.00  0.00    -0.115 NA
BRANCH  15  16
ATOM     16  N   UNL     1     -32.758  28.142   5.263  0.00  0.00    -0.124 NA
BRANCH  16  19
ATOM     17  N   UNL     1     -30.882  28.453   6.723  0.00  0.00    -0.369 N 
ATOM     18  N   UNL     1     -32.653  27.168   7.382  0.00  0.00    -0.369 N 
ATOM     19  C   UNL     1     -32.116  27.945   6.385  0.00  0.00    +0.210 C 
ATOM     20  H   UNL     1     -30.395  29.027   6.089  0.00  0.00    +0.159 HD
ATOM     21  H   UNL     1     -30.487  28.241   7.599  0.00  0.00    +0.159 HD
ATOM     22  H   UNL     1     -33.535  26.749   7.257  0.00  0.00    +0.159 HD
ATOM     23  H   UNL     1     -32.156  27.030   8.220  0.00  0.00    +0.159 HD
ENDBRANCH  16  19
ENDBRANCH  15  16
ENDBRANCH   5  15
TORSDOF 4
ENDMDL
MODEL 8
REMARK VINA RESULT:      -5.3     18.583     20.308
REMARK  Name = 5487109
REMARK  4 active torsions:
REMARK  status: ('A' for Active; 'I' for Inactive)
REMARK    1  A    between atoms: N_1  and  C_6
REMARK    2  A    between atoms: N_1  and  N_11
REMARK    3  A    between atoms: C_7  and  C_21
REMARK    4  A    between atoms: N_11  and  C_14
REMARK                            x       y       z     vdW  Elec       q    Type
REMARK                         _______ _______ _______ _____ _____    ______ ____
ROOT
ATOM      1  C   UNL     1     -32.449  44.375   2.780  0.00  0.00    +0.001 C 
ATOM      2  C   UNL     1     -33.105  43.312   1.955  0.00  0.00    +0.002 C 
ATOM      3  C   UNL     1     -32.169  43.688   4.126  0.00  0.00    +0.018 C 
ATOM      4  C   UNL     1     -33.244  42.108   2.636  0.00  0.00    -0.001 C 
ATOM      5  C   UNL     1     -32.690  42.285   3.962  0.00  0.00    +0.088 C 
ATOM      6  C   UNL     1     -33.557  43.420   0.650  0.00  0.00    +0.053 C 
ATOM      7  C   UNL     1     -33.821  40.986   2.071  0.00  0.00    +0.054 C 
ATOM      8  C   UNL     1     -34.146  42.301   0.051  0.00  0.00    +0.000 C 
ATOM      9  C   UNL     1     -34.276  41.093   0.757  0.00  0.00    -0.021 C 
ENDROOT
BRANCH   6  12
ATOM     10  O   UNL     1     -32.393  44.939  -0.723  0.00  0.00    -0.270 OA
ATOM     11  N   UNL     1     -34.523  45.525  -0.107  0.00  0.00    -0.325 N 
ATOM     12  C   UNL     1     -33.431  44.660  -0.098  0.00  0.00    +0.243 C 
ATOM     13  H   UNL     1     -34.475  46.374  -0.602  0.00  0.00    +0.145 HD
ATOM     14  H   UNL     1     -35.344  45.286   0.383  0.00  0.00    +0.145 HD
ENDBRANCH   6  12
BRANCH   5  15
ATOM     15  N   UNL     1     -32.628  41.404   4.901  0.00  0.00    -0.115 NA
BRANCH  15  16
ATOM     16  N   UNL     1     -31.969  41.924   6.010  0.00  0.00    -0.124 NA
BRANCH  16  19
ATOM     17  N   UNL     1     -32.367  41.163   8.248  0.00  0.00    -0.369 N 
ATOM     18  N   UNL     1     -31.173  39.872   6.789  0.00  0.00    -0.369 N 
ATOM     19  C   UNL     1     -31.854  41.050   6.975  0.00  0.00    +0.210 C 
ATOM     20  H   UNL     1     -32.876  41.965   8.504  0.00  0.00    +0.159 HD
ATOM     21  H   UNL     1     -32.221  40.442   8.902  0.00  0.00    +0.159 HD
ATOM     22  H   UNL     1     -30.761  39.676   5.916  0.00  0.00    +0.159 HD
ATOM     23  H   UNL     1     -31.096  39.225   7.526  0.00  0.00    +0.159 HD
ENDBRANCH  16  19
ENDBRANCH  15  16
ENDBRANCH   5  15
TORSDOF 4
ENDMDL
MODEL 9
REMARK VINA RESULT:      -5.2      1.432      1.681
REMARK  Name = 5487109
REMARK  4 active torsions:
REMARK  status: ('A' for Active; 'I' for Inactive)
REMARK    1  A    between atoms: N_1  and  C_6
REMARK    2  A    between atoms: N_1  and  N_11
REMARK    3  A    between atoms: C_7  and  C_21
REMARK    4  A    between atoms: N_11  and  C_14
REMARK                            x       y       z     vdW  Elec       q    Type
REMARK                         _______ _______ _______ _____ _____    ______ ____
ROOT
ATOM      1  C   UNL     1     -34.421  24.881   1.786  0.00  0.00    +0.001 C 
ATOM      2  C   UNL     1     -34.740  24.498   3.198  0.00  0.00    +0.002 C 
ATOM      3  C   UNL     1     -34.865  23.665   0.957  0.00  0.00    +0.018 C 
ATOM      4  C   UNL     1     -35.305  23.231   3.300  0.00  0.00    -0.001 C 
ATOM      5  C   UNL     1     -35.401  22.682   1.964  0.00  0.00    +0.088 C 
ATOM      6  C   UNL     1     -34.534  25.253   4.341  0.00  0.00    +0.053 C 
ATOM      7  C   UNL     1     -35.680  22.670   4.506  0.00  0.00    +0.054 C 
ATOM      8  C   UNL     1     -34.904  24.712   5.577  0.00  0.00    +0.000 C 
ATOM      9  C   UNL     1     -35.473  23.430   5.658  0.00  0.00    -0.021 C 
ENDROOT
BRANCH   6  12
ATOM     10  O   UNL     1     -32.720  26.754   4.373  0.00  0.00    -0.270 OA
ATOM     11  N   UNL     1     -34.806  27.662   4.090  0.00  0.00    -0.325 N 
ATOM     12  C   UNL     1     -33.947  26.582   4.278  0.00  0.00    +0.243 C 
ATOM     13  H   UNL     1     -34.446  28.576   4.043  0.00  0.00    +0.145 HD
ATOM     14  H   UNL     1     -35.776  27.509   4.004  0.00  0.00    +0.145 HD
ENDBRANCH   6  12
BRANCH   5  15
ATOM     15  N   UNL     1     -35.868  21.528   1.632  0.00  0.00    -0.115 NA
BRANCH  15  16
ATOM     16  N   UNL     1     -34.858  20.572   1.653  0.00  0.00    -0.124 NA
BRANCH  16  19
ATOM     17  N   UNL     1     -36.561  18.996   1.048  0.00  0.00    -0.369 N 
ATOM     18  N   UNL     1     -34.354  18.467   0.777  0.00  0.00    -0.369 N 
ATOM     19  C   UNL     1     -35.257  19.417   1.189  0.00  0.00    +0.210 C 
ATOM     20  H   UNL     1     -37.300  19.590   1.311  0.00  0.00    +0.159 HD
ATOM     21  H   UNL     1     -36.752  18.101   0.687  0.00  0.00    +0.159 HD
ATOM     22  H   UNL     1     -33.388  18.652   0.828  0.00  0.00    +0.159 HD
ATOM     23  H   UNL     1     -34.672  17.603   0.430  0.00  0.00    +0.159 HD
ENDBRANCH  16  19
ENDBRANCH  15  16
ENDBRANCH   5  15
TORSDOF 4
ENDMDL
