MODEL 1
REMARK VINA RESULT:      -6.1      0.000      0.000
REMARK  Name = 196434
REMARK  7 active torsions:
REMARK  status: ('A' for Active; 'I' for Inactive)
REMARK    1  A    between atoms: C_3  and  O_19
REMARK    2  A    between atoms: C_4  and  N_7
REMARK    3  A    between atoms: C_5  and  C_21
REMARK    4  A    between atoms: C_21  and  O_22
REMARK    5  A    between atoms: O_22  and  P_23
REMARK    6  A    between atoms: P_23  and  O_25
REMARK    7  A    between atoms: P_23  and  O_27
REMARK                            x       y       z     vdW  Elec       q    Type
REMARK                         _______ _______ _______ _____ _____    ______ ____
ROOT
ATOM      1 BR   UNL     1     -33.732  19.346   1.500  0.00  0.00    -0.075 Br
ATOM      2  O   UNL     1     -35.838  22.140   0.619  0.00  0.00    -0.334 OA
ATOM      3  C   UNL     1     -36.540  20.037   1.400  0.00  0.00    +0.155 C 
ATOM      4  C   UNL     1     -35.057  21.855   1.800  0.00  0.00    +0.208 C 
ATOM      5  C   UNL     1     -36.442  20.918   0.164  0.00  0.00    +0.175 C 
ATOM      6  C   UNL     1     -35.268  20.383   2.149  0.00  0.00    +0.133 C 
ENDROOT
BRANCH   4   7
ATOM      7  N   UNL     1     -35.457  22.763   2.882  0.00  0.00    -0.248 N 
ATOM      8  N   UNL     1     -36.298  23.433   4.831  0.00  0.00    -0.242 NA
ATOM      9  N   UNL     1     -34.763  24.901   1.964  0.00  0.00    -0.228 NA
ATOM     10  N   UNL     1     -35.267  26.727   3.502  0.00  0.00    -0.229 NA
ATOM     11  C   UNL     1     -35.305  24.117   2.908  0.00  0.00    +0.152 C 
ATOM     12  C   UNL     1     -36.058  22.397   4.055  0.00  0.00    +0.223 C 
ATOM     13  C   UNL     1     -35.833  24.515   4.126  0.00  0.00    +0.140 C 
ATOM     14  C   UNL     1     -35.801  25.877   4.411  0.00  0.00    +0.143 C 
ATOM     15  C   UNL     1     -34.789  26.195   2.352  0.00  0.00    +0.253 C 
ATOM     16  N   UNL     1     -36.313  26.368   5.625  0.00  0.00    -0.342 N 
ATOM     17  H   UNL     1     -36.284  27.334   5.816  0.00  0.00    +0.144 HD
ATOM     18  H   UNL     1     -36.698  25.747   6.284  0.00  0.00    +0.144 HD
ENDBRANCH   4   7
BRANCH   3  19
ATOM     19  O   UNL     1     -36.687  18.665   1.105  0.00  0.00    -0.381 OA
ATOM     20  H   UNL     1     -36.296  18.138   1.819  0.00  0.00    +0.210 HD
ENDBRANCH   3  19
BRANCH   5  21
ATOM     21  C   UNL     1     -37.785  21.220  -0.479  0.00  0.00    +0.186 C 
BRANCH  21  22
ATOM     22  O   UNL     1     -38.815  20.736   0.367  0.00  0.00    -0.271 OA
BRANCH  22  23
ATOM     23  P   UNL     1     -39.727  21.810   1.163  0.00  0.00    +0.473 P 
ATOM     24  O   UNL     1     -40.869  22.382   0.375  0.00  0.00    -0.227 OA
BRANCH  23  25
ATOM     25  O   UNL     1     -38.657  22.890   1.714  0.00  0.00    -0.303 OA
ATOM     26  H   UNL     1     -38.458  22.703   2.644  0.00  0.00    +0.222 HD
ENDBRANCH  23  25
BRANCH  23  27
ATOM     27  O   UNL     1     -40.156  21.000   2.496  0.00  0.00    -0.303 OA
ATOM     28  H   UNL     1     -41.089  20.743   2.433  0.00  0.00    +0.222 HD
ENDBRANCH  23  27
ENDBRANCH  22  23
ENDBRANCH  21  22
ENDBRANCH   5  21
TORSDOF 7
ENDMDL
MODEL 2
REMARK VINA RESULT:      -5.7      2.439      2.736
REMARK  Name = 196434
REMARK  7 active torsions:
REMARK  status: ('A' for Active; 'I' for Inactive)
REMARK    1  A    between atoms: C_3  and  O_19
REMARK    2  A    between atoms: C_4  and  N_7
REMARK    3  A    between atoms: C_5  and  C_21
REMARK    4  A    between atoms: C_21  and  O_22
REMARK    5  A    between atoms: O_22  and  P_23
REMARK    6  A    between atoms: P_23  and  O_25
REMARK    7  A    between atoms: P_23  and  O_27
REMARK                            x       y       z     vdW  Elec       q    Type
REMARK                         _______ _______ _______ _____ _____    ______ ____
ROOT
ATOM      1 BR   UNL     1     -35.328  20.221   1.773  0.00  0.00    -0.075 Br
ATOM      2  O   UNL     1     -36.014  23.752   1.484  0.00  0.00    -0.334 OA
ATOM      3  C   UNL     1     -37.428  22.111   2.397  0.00  0.00    +0.155 C 
ATOM      4  C   UNL     1     -35.219  22.997   2.425  0.00  0.00    +0.208 C 
ATOM      5  C   UNL     1     -37.203  23.002   1.186  0.00  0.00    +0.175 C 
ATOM      6  C   UNL     1     -36.014  21.747   2.801  0.00  0.00    +0.133 C 
ENDROOT
BRANCH   4   7
ATOM      7  N   UNL     1     -34.899  23.841   3.582  0.00  0.00    -0.248 N 
ATOM      8  N   UNL     1     -34.896  24.579   5.682  0.00  0.00    -0.242 NA
ATOM      9  N   UNL     1     -33.443  25.490   2.554  0.00  0.00    -0.228 NA
ATOM     10  N   UNL     1     -32.669  27.127   4.190  0.00  0.00    -0.229 NA
ATOM     11  C   UNL     1     -34.100  24.946   3.589  0.00  0.00    +0.152 C 
ATOM     12  C   UNL     1     -35.355  23.660   4.859  0.00  0.00    +0.223 C 
ATOM     13  C   UNL     1     -34.110  25.389   4.902  0.00  0.00    +0.140 C 
ATOM     14  C   UNL     1     -33.358  26.524   5.189  0.00  0.00    +0.143 C 
ATOM     15  C   UNL     1     -32.753  26.581   2.954  0.00  0.00    +0.253 C 
ATOM     16  N   UNL     1     -33.311  27.042   6.495  0.00  0.00    -0.342 N 
ATOM     17  H   UNL     1     -32.775  27.846   6.686  0.00  0.00    +0.144 HD
ATOM     18  H   UNL     1     -33.812  26.601   7.218  0.00  0.00    +0.144 HD
ENDBRANCH   4   7
BRANCH   3  19
ATOM     19  O   UNL     1     -38.262  21.003   2.135  0.00  0.00    -0.381 OA
ATOM     20  H   UNL     1     -39.185  21.246   2.307  0.00  0.00    +0.210 HD
ENDBRANCH   3  19
BRANCH   5  21
ATOM     21  C   UNL     1     -38.352  23.957   0.907  0.00  0.00    +0.186 C 
BRANCH  21  22
ATOM     22  O   UNL     1     -39.166  24.040   2.065  0.00  0.00    -0.271 OA
BRANCH  22  23
ATOM     23  P   UNL     1     -39.262  25.458   2.840  0.00  0.00    +0.473 P 
ATOM     24  O   UNL     1     -39.861  26.579   2.042  0.00  0.00    -0.227 OA
BRANCH  23  25
ATOM     25  O   UNL     1     -37.754  25.712   3.366  0.00  0.00    -0.303 OA
ATOM     26  H   UNL     1     -37.505  25.007   3.984  0.00  0.00    +0.222 HD
ENDBRANCH  23  25
BRANCH  23  27
ATOM     27  O   UNL     1     -40.067  25.077   4.191  0.00  0.00    -0.303 OA
ATOM     28  H   UNL     1     -40.296  24.134   4.175  0.00  0.00    +0.222 HD
ENDBRANCH  23  27
ENDBRANCH  22  23
ENDBRANCH  21  22
ENDBRANCH   5  21
TORSDOF 7
ENDMDL
MODEL 3
REMARK VINA RESULT:      -5.7      3.253      4.618
REMARK  Name = 196434
REMARK  7 active torsions:
REMARK  status: ('A' for Active; 'I' for Inactive)
REMARK    1  A    between atoms: C_3  and  O_19
REMARK    2  A    between atoms: C_4  and  N_7
REMARK    3  A    between atoms: C_5  and  C_21
REMARK    4  A    between atoms: C_21  and  O_22
REMARK    5  A    between atoms: O_22  and  P_23
REMARK    6  A    between atoms: P_23  and  O_25
REMARK    7  A    between atoms: P_23  and  O_27
REMARK                            x       y       z     vdW  Elec       q    Type
REMARK                         _______ _______ _______ _____ _____    ______ ____
ROOT
ATOM      1 BR   UNL     1     -41.647  25.823   1.989  0.00  0.00    -0.075 Br
ATOM      2  O   UNL     1     -38.892  23.839   3.209  0.00  0.00    -0.334 OA
ATOM      3  C   UNL     1     -39.600  24.046   0.977  0.00  0.00    +0.155 C 
ATOM      4  C   UNL     1     -39.021  25.253   2.945  0.00  0.00    +0.208 C 
ATOM      5  C   UNL     1     -39.590  23.117   2.180  0.00  0.00    +0.175 C 
ATOM      6  C   UNL     1     -39.764  25.409   1.619  0.00  0.00    +0.133 C 
ENDROOT
BRANCH   4   7
ATOM      7  N   UNL     1     -37.689  25.870   2.931  0.00  0.00    -0.248 N 
ATOM      8  N   UNL     1     -35.986  27.128   2.243  0.00  0.00    -0.242 NA
ATOM      9  N   UNL     1     -36.718  24.904   4.936  0.00  0.00    -0.228 NA
ATOM     10  N   UNL     1     -34.437  25.700   5.283  0.00  0.00    -0.229 NA
ATOM     11  C   UNL     1     -36.694  25.682   3.843  0.00  0.00    +0.152 C 
ATOM     12  C   UNL     1     -37.220  26.744   1.989  0.00  0.00    +0.223 C 
ATOM     13  C   UNL     1     -35.645  26.472   3.399  0.00  0.00    +0.140 C 
ATOM     14  C   UNL     1     -34.483  26.464   4.165  0.00  0.00    +0.143 C 
ATOM     15  C   UNL     1     -35.540  24.978   5.594  0.00  0.00    +0.253 C 
ATOM     16  N   UNL     1     -33.371  27.237   3.790  0.00  0.00    -0.342 N 
ATOM     17  H   UNL     1     -32.554  27.224   4.340  0.00  0.00    +0.144 HD
ATOM     18  H   UNL     1     -33.409  27.792   2.977  0.00  0.00    +0.144 HD
ENDBRANCH   4   7
BRANCH   3  19
ATOM     19  O   UNL     1     -40.593  23.728   0.026  0.00  0.00    -0.381 OA
ATOM     20  H   UNL     1     -40.269  23.022  -0.555  0.00  0.00    +0.210 HD
ENDBRANCH   3  19
BRANCH   5  21
ATOM     21  C   UNL     1     -38.891  21.792   1.922  0.00  0.00    +0.186 C 
BRANCH  21  22
ATOM     22  O   UNL     1     -37.547  22.050   1.553  0.00  0.00    -0.271 OA
BRANCH  22  23
ATOM     23  P   UNL     1     -36.364  21.422   2.463  0.00  0.00    +0.473 P 
ATOM     24  O   UNL     1     -34.974  21.653   1.946  0.00  0.00    -0.227 OA
BRANCH  23  25
ATOM     25  O   UNL     1     -36.790  19.872   2.633  0.00  0.00    -0.303 OA
ATOM     26  H   UNL     1     -37.736  19.818   2.843  0.00  0.00    +0.222 HD
ENDBRANCH  23  25
BRANCH  23  27
ATOM     27  O   UNL     1     -36.662  22.051   3.924  0.00  0.00    -0.303 OA
ATOM     28  H   UNL     1     -37.421  22.652   3.869  0.00  0.00    +0.222 HD
ENDBRANCH  23  27
ENDBRANCH  22  23
ENDBRANCH  21  22
ENDBRANCH   5  21
TORSDOF 7
ENDMDL
MODEL 4
REMARK VINA RESULT:      -5.6      2.671      4.199
REMARK  Name = 196434
REMARK  7 active torsions:
REMARK  status: ('A' for Active; 'I' for Inactive)
REMARK    1  A    between atoms: C_3  and  O_19
REMARK    2  A    between atoms: C_4  and  N_7
REMARK    3  A    between atoms: C_5  and  C_21
REMARK    4  A    between atoms: C_21  and  O_22
REMARK    5  A    between atoms: O_22  and  P_23
REMARK    6  A    between atoms: P_23  and  O_25
REMARK    7  A    between atoms: P_23  and  O_27
REMARK                            x       y       z     vdW  Elec       q    Type
REMARK                         _______ _______ _______ _____ _____    ______ ____
ROOT
ATOM      1 BR   UNL     1     -35.191  22.936   5.764  0.00  0.00    -0.075 Br
ATOM      2  O   UNL     1     -34.306  23.805   2.376  0.00  0.00    -0.334 OA
ATOM      3  C   UNL     1     -36.472  23.468   3.224  0.00  0.00    +0.155 C 
ATOM      4  C   UNL     1     -34.407  24.596   3.580  0.00  0.00    +0.208 C 
ATOM      5  C   UNL     1     -35.380  22.850   2.365  0.00  0.00    +0.175 C 
ATOM      6  C   UNL     1     -35.677  24.164   4.311  0.00  0.00    +0.133 C 
ENDROOT
BRANCH   4   7
ATOM      7  N   UNL     1     -34.405  26.021   3.230  0.00  0.00    -0.248 N 
ATOM      8  N   UNL     1     -34.924  27.900   2.156  0.00  0.00    -0.242 NA
ATOM      9  N   UNL     1     -32.827  26.889   4.860  0.00  0.00    -0.228 NA
ATOM     10  N   UNL     1     -32.533  29.298   4.608  0.00  0.00    -0.229 NA
ATOM     11  C   UNL     1     -33.680  27.007   3.832  0.00  0.00    +0.152 C 
ATOM     12  C   UNL     1     -35.134  26.603   2.231  0.00  0.00    +0.223 C 
ATOM     13  C   UNL     1     -34.017  28.167   3.151  0.00  0.00    +0.140 C 
ATOM     14  C   UNL     1     -33.408  29.344   3.574  0.00  0.00    +0.143 C 
ATOM     15  C   UNL     1     -32.301  28.092   5.178  0.00  0.00    +0.253 C 
ATOM     16  N   UNL     1     -33.692  30.567   2.941  0.00  0.00    -0.342 N 
ATOM     17  H   UNL     1     -33.254  31.394   3.249  0.00  0.00    +0.144 HD
ATOM     18  H   UNL     1     -34.329  30.596   2.191  0.00  0.00    +0.144 HD
ENDBRANCH   4   7
BRANCH   3  19
ATOM     19  O   UNL     1     -37.413  22.530   3.702  0.00  0.00    -0.381 OA
ATOM     20  H   UNL     1     -37.097  22.153   4.538  0.00  0.00    +0.210 HD
ENDBRANCH   3  19
BRANCH   5  21
ATOM     21  C   UNL     1     -35.809  22.580   0.933  0.00  0.00    +0.186 C 
BRANCH  21  22
ATOM     22  O   UNL     1     -36.861  21.629   0.943  0.00  0.00    -0.271 OA
BRANCH  22  23
ATOM     23  P   UNL     1     -36.483  20.063   1.102  0.00  0.00    +0.473 P 
ATOM     24  O   UNL     1     -35.123  19.683   0.592  0.00  0.00    -0.227 OA
BRANCH  23  25
ATOM     25  O   UNL     1     -37.723  19.296   0.405  0.00  0.00    -0.303 OA
ATOM     26  H   UNL     1     -37.430  18.427   0.088  0.00  0.00    +0.222 HD
ENDBRANCH  23  25
BRANCH  23  27
ATOM     27  O   UNL     1     -36.720  19.795   2.679  0.00  0.00    -0.303 OA
ATOM     28  H   UNL     1     -35.967  19.301   3.040  0.00  0.00    +0.222 HD
ENDBRANCH  23  27
ENDBRANCH  22  23
ENDBRANCH  21  22
ENDBRANCH   5  21
TORSDOF 7
ENDMDL
MODEL 5
REMARK VINA RESULT:      -5.6      4.797      7.121
REMARK  Name = 196434
REMARK  7 active torsions:
REMARK  status: ('A' for Active; 'I' for Inactive)
REMARK    1  A    between atoms: C_3  and  O_19
REMARK    2  A    between atoms: C_4  and  N_7
REMARK    3  A    between atoms: C_5  and  C_21
REMARK    4  A    between atoms: C_21  and  O_22
REMARK    5  A    between atoms: O_22  and  P_23
REMARK    6  A    between atoms: P_23  and  O_25
REMARK    7  A    between atoms: P_23  and  O_27
REMARK                            x       y       z     vdW  Elec       q    Type
REMARK                         _______ _______ _______ _____ _____    ______ ____
ROOT
ATOM      1 BR   UNL     1     -38.095  19.904  -0.643  0.00  0.00    -0.075 Br
ATOM      2  O   UNL     1     -34.830  20.993   0.438  0.00  0.00    -0.334 OA
ATOM      3  C   UNL     1     -36.639  20.388   1.811  0.00  0.00    +0.155 C 
ATOM      4  C   UNL     1     -35.311  19.720  -0.048  0.00  0.00    +0.208 C 
ATOM      5  C   UNL     1     -35.836  21.568   1.287  0.00  0.00    +0.175 C 
ATOM      6  C   UNL     1     -36.659  19.452   0.618  0.00  0.00    +0.133 C 
ENDROOT
BRANCH   4   7
ATOM      7  N   UNL     1     -34.315  18.681   0.236  0.00  0.00    -0.248 N 
ATOM      8  N   UNL     1     -32.608  17.650   1.225  0.00  0.00    -0.242 NA
ATOM      9  N   UNL     1     -34.894  17.023  -1.442  0.00  0.00    -0.228 NA
ATOM     10  N   UNL     1     -33.430  15.077  -1.302  0.00  0.00    -0.229 NA
ATOM     11  C   UNL     1     -34.169  17.492  -0.415  0.00  0.00    +0.152 C 
ATOM     12  C   UNL     1     -33.358  18.732   1.211  0.00  0.00    +0.223 C 
ATOM     13  C   UNL     1     -33.104  16.866   0.214  0.00  0.00    +0.140 C 
ATOM     14  C   UNL     1     -32.740  15.611  -0.265  0.00  0.00    +0.143 C 
ATOM     15  C   UNL     1     -34.448  15.804  -1.817  0.00  0.00    +0.253 C 
ATOM     16  N   UNL     1     -31.672  14.904   0.315  0.00  0.00    -0.342 N 
ATOM     17  H   UNL     1     -31.423  14.016  -0.033  0.00  0.00    +0.144 HD
ATOM     18  H   UNL     1     -31.174  15.295   1.068  0.00  0.00    +0.144 HD
ENDBRANCH   4   7
BRANCH   3  19
ATOM     19  O   UNL     1     -37.917  20.744   2.293  0.00  0.00    -0.381 OA
ATOM     20  H   UNL     1     -38.593  20.227   1.827  0.00  0.00    +0.210 HD
ENDBRANCH   3  19
BRANCH   5  21
ATOM     21  C   UNL     1     -35.174  22.389   2.380  0.00  0.00    +0.186 C 
BRANCH  21  22
ATOM     22  O   UNL     1     -35.667  21.957   3.638  0.00  0.00    -0.271 OA
BRANCH  22  23
ATOM     23  P   UNL     1     -35.643  23.001   4.875  0.00  0.00    +0.473 P 
ATOM     24  O   UNL     1     -34.348  23.736   5.061  0.00  0.00    -0.227 OA
BRANCH  23  25
ATOM     25  O   UNL     1     -36.121  22.111   6.137  0.00  0.00    -0.303 OA
ATOM     26  H   UNL     1     -35.770  21.212   6.052  0.00  0.00    +0.222 HD
ENDBRANCH  23  25
BRANCH  23  27
ATOM     27  O   UNL     1     -36.925  23.941   4.577  0.00  0.00    -0.303 OA
ATOM     28  H   UNL     1     -36.629  24.849   4.410  0.00  0.00    +0.222 HD
ENDBRANCH  23  27
ENDBRANCH  22  23
ENDBRANCH  21  22
ENDBRANCH   5  21
TORSDOF 7
ENDMDL
MODEL 6
REMARK VINA RESULT:      -5.6      2.695      3.147
REMARK  Name = 196434
REMARK  7 active torsions:
REMARK  status: ('A' for Active; 'I' for Inactive)
REMARK    1  A    between atoms: C_3  and  O_19
REMARK    2  A    between atoms: C_4  and  N_7
REMARK    3  A    between atoms: C_5  and  C_21
REMARK    4  A    between atoms: C_21  and  O_22
REMARK    5  A    between atoms: O_22  and  P_23
REMARK    6  A    between atoms: P_23  and  O_25
REMARK    7  A    between atoms: P_23  and  O_27
REMARK                            x       y       z     vdW  Elec       q    Type
REMARK                         _______ _______ _______ _____ _____    ______ ____
ROOT
ATOM      1 BR   UNL     1     -37.374  20.454   0.449  0.00  0.00    -0.075 Br
ATOM      2  O   UNL     1     -38.131  23.907   1.174  0.00  0.00    -0.334 OA
ATOM      3  C   UNL     1     -39.237  22.014   2.021  0.00  0.00    +0.155 C 
ATOM      4  C   UNL     1     -37.108  23.018   1.673  0.00  0.00    +0.208 C 
ATOM      5  C   UNL     1     -39.353  23.164   1.032  0.00  0.00    +0.175 C 
ATOM      6  C   UNL     1     -37.764  21.666   1.945  0.00  0.00    +0.133 C 
ENDROOT
BRANCH   4   7
ATOM      7  N   UNL     1     -36.491  23.606   2.867  0.00  0.00    -0.248 N 
ATOM      8  N   UNL     1     -35.718  23.757   4.950  0.00  0.00    -0.242 NA
ATOM      9  N   UNL     1     -35.994  25.845   2.070  0.00  0.00    -0.228 NA
ATOM     10  N   UNL     1     -34.929  27.185   3.809  0.00  0.00    -0.229 NA
ATOM     11  C   UNL     1     -36.009  24.875   2.996  0.00  0.00    +0.152 C 
ATOM     12  C   UNL     1     -36.296  22.972   4.064  0.00  0.00    +0.223 C 
ATOM     13  C   UNL     1     -35.533  24.949   4.296  0.00  0.00    +0.140 C 
ATOM     14  C   UNL     1     -34.976  26.160   4.694  0.00  0.00    +0.143 C 
ATOM     15  C   UNL     1     -35.433  26.968   2.572  0.00  0.00    +0.253 C 
ATOM     16  N   UNL     1     -34.467  26.323   5.994  0.00  0.00    -0.342 N 
ATOM     17  H   UNL     1     -34.075  27.185   6.265  0.00  0.00    +0.144 HD
ATOM     18  H   UNL     1     -34.502  25.575   6.634  0.00  0.00    +0.144 HD
ENDBRANCH   4   7
BRANCH   3  19
ATOM     19  O   UNL     1     -40.105  20.937   1.738  0.00  0.00    -0.381 OA
ATOM     20  H   UNL     1     -40.078  20.301   2.469  0.00  0.00    +0.210 HD
ENDBRANCH   3  19
BRANCH   5  21
ATOM     21  C   UNL     1     -40.539  24.077   1.293  0.00  0.00    +0.186 C 
BRANCH  21  22
ATOM     22  O   UNL     1     -40.456  24.564   2.622  0.00  0.00    -0.271 OA
BRANCH  22  23
ATOM     23  P   UNL     1     -40.370  26.164   2.853  0.00  0.00    +0.473 P 
ATOM     24  O   UNL     1     -40.800  26.998   1.682  0.00  0.00    -0.227 OA
BRANCH  23  25
ATOM     25  O   UNL     1     -38.850  26.399   3.351  0.00  0.00    -0.303 OA
ATOM     26  H   UNL     1     -38.771  27.281   3.746  0.00  0.00    +0.222 HD
ENDBRANCH  23  25
BRANCH  23  27
ATOM     27  O   UNL     1     -41.239  26.379   4.201  0.00  0.00    -0.303 OA
ATOM     28  H   UNL     1     -40.854  27.102   4.722  0.00  0.00    +0.222 HD
ENDBRANCH  23  27
ENDBRANCH  22  23
ENDBRANCH  21  22
ENDBRANCH   5  21
TORSDOF 7
ENDMDL
MODEL 7
REMARK VINA RESULT:      -5.5      5.736      7.879
REMARK  Name = 196434
REMARK  7 active torsions:
REMARK  status: ('A' for Active; 'I' for Inactive)
REMARK    1  A    between atoms: C_3  and  O_19
REMARK    2  A    between atoms: C_4  and  N_7
REMARK    3  A    between atoms: C_5  and  C_21
REMARK    4  A    between atoms: C_21  and  O_22
REMARK    5  A    between atoms: O_22  and  P_23
REMARK    6  A    between atoms: P_23  and  O_25
REMARK    7  A    between atoms: P_23  and  O_27
REMARK                            x       y       z     vdW  Elec       q    Type
REMARK                         _______ _______ _______ _____ _____    ______ ____
ROOT
ATOM      1 BR   UNL     1     -35.266  28.198   0.457  0.00  0.00    -0.075 Br
ATOM      2  O   UNL     1     -32.886  27.312   3.020  0.00  0.00    -0.334 OA
ATOM      3  C   UNL     1     -34.515  29.003   3.133  0.00  0.00    +0.155 C 
ATOM      4  C   UNL     1     -34.135  26.711   2.613  0.00  0.00    +0.208 C 
ATOM      5  C   UNL     1     -33.026  28.741   2.964  0.00  0.00    +0.175 C 
ATOM      6  C   UNL     1     -35.137  27.842   2.383  0.00  0.00    +0.133 C 
ENDROOT
BRANCH   4   7
ATOM      7  N   UNL     1     -34.574  25.757   3.638  0.00  0.00    -0.248 N 
ATOM      8  N   UNL     1     -35.134  24.968   5.643  0.00  0.00    -0.242 NA
ATOM      9  N   UNL     1     -34.894  23.760   2.294  0.00  0.00    -0.228 NA
ATOM     10  N   UNL     1     -35.646  21.886   3.664  0.00  0.00    -0.229 NA
ATOM     11  C   UNL     1     -34.901  24.447   3.446  0.00  0.00    +0.152 C 
ATOM     12  C   UNL     1     -34.727  26.024   4.970  0.00  0.00    +0.223 C 
ATOM     13  C   UNL     1     -35.247  23.975   4.702  0.00  0.00    +0.140 C 
ATOM     14  C   UNL     1     -35.631  22.640   4.789  0.00  0.00    +0.143 C 
ATOM     15  C   UNL     1     -35.282  22.482   2.505  0.00  0.00    +0.253 C 
ATOM     16  N   UNL     1     -35.999  22.078   6.024  0.00  0.00    -0.342 N 
ATOM     17  H   UNL     1     -36.269  21.132   6.073  0.00  0.00    +0.144 HD
ATOM     18  H   UNL     1     -35.988  22.630   6.839  0.00  0.00    +0.144 HD
ENDBRANCH   4   7
BRANCH   3  19
ATOM     19  O   UNL     1     -34.920  30.275   2.675  0.00  0.00    -0.381 OA
ATOM     20  H   UNL     1     -35.642  30.604   3.233  0.00  0.00    +0.210 HD
ENDBRANCH   3  19
BRANCH   5  21
ATOM     21  C   UNL     1     -32.168  29.381   4.042  0.00  0.00    +0.186 C 
BRANCH  21  22
ATOM     22  O   UNL     1     -32.678  29.011   5.312  0.00  0.00    -0.271 OA
BRANCH  22  23
ATOM     23  P   UNL     1     -31.657  28.387   6.401  0.00  0.00    +0.473 P 
ATOM     24  O   UNL     1     -30.359  27.883   5.840  0.00  0.00    -0.227 OA
BRANCH  23  25
ATOM     25  O   UNL     1     -32.550  27.284   7.177  0.00  0.00    -0.303 OA
ATOM     26  H   UNL     1     -32.255  26.395   6.926  0.00  0.00    +0.222 HD
ENDBRANCH  23  25
BRANCH  23  27
ATOM     27  O   UNL     1     -31.515  29.578   7.486  0.00  0.00    -0.303 OA
ATOM     28  H   UNL     1     -32.374  30.015   7.601  0.00  0.00    +0.222 HD
ENDBRANCH  23  27
ENDBRANCH  22  23
ENDBRANCH  21  22
ENDBRANCH   5  21
TORSDOF 7
ENDMDL
MODEL 8
REMARK VINA RESULT:      -5.5      4.375      5.674
REMARK  Name = 196434
REMARK  7 active torsions:
REMARK  status: ('A' for Active; 'I' for Inactive)
REMARK    1  A    between atoms: C_3  and  O_19
REMARK    2  A    between atoms: C_4  and  N_7
REMARK    3  A    between atoms: C_5  and  C_21
REMARK    4  A    between atoms: C_21  and  O_22
REMARK    5  A    between atoms: O_22  and  P_23
REMARK    6  A    between atoms: P_23  and  O_25
REMARK    7  A    between atoms: P_23  and  O_27
REMARK                            x       y       z     vdW  Elec       q    Type
REMARK                         _______ _______ _______ _____ _____    ______ ____
ROOT
ATOM      1 BR   UNL     1     -38.775  24.360  -0.526  0.00  0.00    -0.075 Br
ATOM      2  O   UNL     1     -38.762  25.954   2.711  0.00  0.00    -0.334 OA
ATOM      3  C   UNL     1     -40.220  24.261   1.979  0.00  0.00    +0.155 C 
ATOM      4  C   UNL     1     -37.937  24.913   2.145  0.00  0.00    +0.208 C 
ATOM      5  C   UNL     1     -40.118  25.748   2.279  0.00  0.00    +0.175 C 
ATOM      6  C   UNL     1     -38.857  23.952   1.393  0.00  0.00    +0.133 C 
ENDROOT
BRANCH   4   7
ATOM      7  N   UNL     1     -37.176  24.257   3.214  0.00  0.00    -0.248 N 
ATOM      8  N   UNL     1     -36.192  23.964   5.190  0.00  0.00    -0.242 NA
ATOM      9  N   UNL     1     -36.647  22.133   2.161  0.00  0.00    -0.228 NA
ATOM     10  N   UNL     1     -35.348  20.707   3.656  0.00  0.00    -0.229 NA
ATOM     11  C   UNL     1     -36.618  23.013   3.173  0.00  0.00    +0.152 C 
ATOM     12  C   UNL     1     -36.894  24.790   4.441  0.00  0.00    +0.223 C 
ATOM     13  C   UNL     1     -36.013  22.850   4.410  0.00  0.00    +0.140 C 
ATOM     14  C   UNL     1     -35.360  21.642   4.635  0.00  0.00    +0.143 C 
ATOM     15  C   UNL     1     -35.982  21.005   2.497  0.00  0.00    +0.253 C 
ATOM     16  N   UNL     1     -34.720  21.391   5.862  0.00  0.00    -0.342 N 
ATOM     17  H   UNL     1     -34.261  20.532   6.010  0.00  0.00    +0.144 HD
ATOM     18  H   UNL     1     -34.731  22.073   6.572  0.00  0.00    +0.144 HD
ENDBRANCH   4   7
BRANCH   3  19
ATOM     19  O   UNL     1     -41.304  23.928   1.139  0.00  0.00    -0.381 OA
ATOM     20  H   UNL     1     -41.263  22.984   0.919  0.00  0.00    +0.210 HD
ENDBRANCH   3  19
BRANCH   5  21
ATOM     21  C   UNL     1     -41.075  26.221   3.359  0.00  0.00    +0.186 C 
BRANCH  21  22
ATOM     22  O   UNL     1     -41.441  27.564   3.089  0.00  0.00    -0.271 OA
BRANCH  22  23
ATOM     23  P   UNL     1     -42.782  28.152   3.780  0.00  0.00    +0.473 P 
ATOM     24  O   UNL     1     -43.744  27.116   4.282  0.00  0.00    -0.227 OA
BRANCH  23  25
ATOM     25  O   UNL     1     -43.374  29.166   2.669  0.00  0.00    -0.303 OA
ATOM     26  H   UNL     1     -43.897  29.856   3.106  0.00  0.00    +0.222 HD
ENDBRANCH  23  25
BRANCH  23  27
ATOM     27  O   UNL     1     -42.196  29.146   4.914  0.00  0.00    -0.303 OA
ATOM     28  H   UNL     1     -41.580  28.660   5.484  0.00  0.00    +0.222 HD
ENDBRANCH  23  27
ENDBRANCH  22  23
ENDBRANCH  21  22
ENDBRANCH   5  21
TORSDOF 7
ENDMDL
MODEL 9
REMARK VINA RESULT:      -5.3      4.870      5.926
REMARK  Name = 196434
REMARK  7 active torsions:
REMARK  status: ('A' for Active; 'I' for Inactive)
REMARK    1  A    between atoms: C_3  and  O_19
REMARK    2  A    between atoms: C_4  and  N_7
REMARK    3  A    between atoms: C_5  and  C_21
REMARK    4  A    between atoms: C_21  and  O_22
REMARK    5  A    between atoms: O_22  and  P_23
REMARK    6  A    between atoms: P_23  and  O_25
REMARK    7  A    between atoms: P_23  and  O_27
REMARK                            x       y       z     vdW  Elec       q    Type
REMARK                         _______ _______ _______ _____ _____    ______ ____
ROOT
ATOM      1 BR   UNL     1     -39.294  25.983  -0.622  0.00  0.00    -0.075 Br
ATOM      2  O   UNL     1     -39.323  26.385   2.964  0.00  0.00    -0.334 OA
ATOM      3  C   UNL     1     -40.737  25.007   1.689  0.00  0.00    +0.155 C 
ATOM      4  C   UNL     1     -38.471  25.617   2.086  0.00  0.00    +0.208 C 
ATOM      5  C   UNL     1     -40.672  26.307   2.475  0.00  0.00    +0.175 C 
ATOM      6  C   UNL     1     -39.367  24.947   1.045  0.00  0.00    +0.133 C 
ENDROOT
BRANCH   4   7
ATOM      7  N   UNL     1     -37.694  24.656   2.877  0.00  0.00    -0.248 N 
ATOM      8  N   UNL     1     -36.981  22.695   3.654  0.00  0.00    -0.242 NA
ATOM      9  N   UNL     1     -36.285  26.158   4.164  0.00  0.00    -0.228 NA
ATOM     10  N   UNL     1     -34.800  24.917   5.650  0.00  0.00    -0.229 NA
ATOM     11  C   UNL     1     -36.728  24.947   3.794  0.00  0.00    +0.152 C 
ATOM     12  C   UNL     1     -37.812  23.295   2.827  0.00  0.00    +0.223 C 
ATOM     13  C   UNL     1     -36.297  23.716   4.265  0.00  0.00    +0.140 C 
ATOM     14  C   UNL     1     -35.294  23.728   5.229  0.00  0.00    +0.143 C 
ATOM     15  C   UNL     1     -35.318  26.040   5.101  0.00  0.00    +0.253 C 
ATOM     16  N   UNL     1     -34.796  22.526   5.760  0.00  0.00    -0.342 N 
ATOM     17  H   UNL     1     -34.085  22.546   6.442  0.00  0.00    +0.144 HD
ATOM     18  H   UNL     1     -35.156  21.663   5.450  0.00  0.00    +0.144 HD
ENDBRANCH   4   7
BRANCH   3  19
ATOM     19  O   UNL     1     -41.812  24.953   0.776  0.00  0.00    -0.381 OA
ATOM     20  H   UNL     1     -42.115  25.853   0.581  0.00  0.00    +0.210 HD
ENDBRANCH   3  19
BRANCH   5  21
ATOM     21  C   UNL     1     -41.642  26.363   3.644  0.00  0.00    +0.186 C 
BRANCH  21  22
ATOM     22  O   UNL     1     -41.594  27.660   4.215  0.00  0.00    -0.271 OA
BRANCH  22  23
ATOM     23  P   UNL     1     -42.916  28.590   4.129  0.00  0.00    +0.473 P 
ATOM     24  O   UNL     1     -44.219  27.846   4.156  0.00  0.00    -0.227 OA
BRANCH  23  25
ATOM     25  O   UNL     1     -42.663  29.498   2.815  0.00  0.00    -0.303 OA
ATOM     26  H   UNL     1     -41.843  29.217   2.381  0.00  0.00    +0.222 HD
ENDBRANCH  23  25
BRANCH  23  27
ATOM     27  O   UNL     1     -42.701  29.633   5.347  0.00  0.00    -0.303 OA
ATOM     28  H   UNL     1     -42.334  30.462   5.003  0.00  0.00    +0.222 HD
ENDBRANCH  23  27
ENDBRANCH  22  23
ENDBRANCH  21  22
ENDBRANCH   5  21
TORSDOF 7
ENDMDL
