MODEL 1
REMARK VINA RESULT:      -7.7      0.000      0.000
REMARK  Name = 197601
REMARK  6 active torsions:
REMARK  status: ('A' for Active; 'I' for Inactive)
REMARK    1  A    between atoms: N_2  and  C_25
REMARK    2  A    between atoms: C_9  and  O_17
REMARK    3  A    between atoms: C_14  and  N_19
REMARK    4  A    between atoms: N_19  and  S_21
REMARK    5  A    between atoms: C_25  and  C_26
REMARK    6  A    between atoms: C_26  and  C_30
REMARK                            x       y       z     vdW  Elec       q    Type
REMARK                         _______ _______ _______ _____ _____    ______ ____
ROOT
ATOM      1  O   UNL     1     -34.681  23.832   3.225  0.00  0.00    -0.483 OA
ATOM      2  N   UNL     1     -36.457  20.846   2.522  0.00  0.00    +0.387 N 
ATOM      3  C   UNL     1     -35.871  23.395   3.911  0.00  0.00    +0.132 C 
ATOM      4  C   UNL     1     -37.023  23.227   2.897  0.00  0.00    +0.017 C 
ATOM      5  C   UNL     1     -35.546  22.009   4.507  0.00  0.00    +0.017 C 
ATOM      6  C   UNL     1     -36.222  24.356   5.056  0.00  0.00    +0.074 C 
ATOM      7  C   UNL     1     -36.732  22.130   1.866  0.00  0.00    -0.074 C 
ATOM      8  C   UNL     1     -35.304  20.951   3.425  0.00  0.00    -0.074 C 
ATOM      9  C   UNL     1     -36.443  25.776   4.548  0.00  0.00    +0.139 C 
ATOM     10  C   UNL     1     -35.351  26.159   3.584  0.00  0.00    +0.040 C 
ATOM     11  C   UNL     1     -34.552  25.176   2.987  0.00  0.00    +0.136 C 
ATOM     12  C   UNL     1     -35.145  27.502   3.235  0.00  0.00    +0.017 C 
ATOM     13  C   UNL     1     -33.536  25.535   2.095  0.00  0.00    +0.038 C 
ATOM     14  C   UNL     1     -34.138  27.858   2.337  0.00  0.00    +0.064 C 
ATOM     15  C   UNL     1     -33.330  26.875   1.771  0.00  0.00    +0.019 C 
ATOM     16  H   UNL     1     -37.272  20.598   3.082  0.00  0.00    -0.080 HD
ENDROOT
BRANCH   9  17
ATOM     17  O   UNL     1     -36.459  26.663   5.663  0.00  0.00    -0.380 OA
ATOM     18  H   UNL     1     -37.021  26.292   6.362  0.00  0.00    +0.211 HD
ENDBRANCH   9  17
BRANCH  14  19
ATOM     19  N   UNL     1     -33.934  29.230   2.000  0.00  0.00    -0.219 N 
ATOM     20  H   UNL     1     -33.895  29.519   1.060  0.00  0.00    +0.173 HD
BRANCH  19  21
ATOM     21  S   UNL     1     -33.761  30.366   3.283  0.00  0.00    +0.056 S 
ATOM     22  O   UNL     1     -35.076  30.886   3.615  0.00  0.00    -0.154 OA
ATOM     23  O   UNL     1     -32.891  29.849   4.320  0.00  0.00    -0.154 OA
ATOM     24  C   UNL     1     -32.890  31.666   2.438  0.00  0.00    +0.200 C 
ENDBRANCH  19  21
ENDBRANCH  14  19
BRANCH   2  25
ATOM     25  C   UNL     1     -36.236  19.798   1.527  0.00  0.00    -0.073 C 
BRANCH  25  26
ATOM     26  C   UNL     1     -35.000  20.101   0.679  0.00  0.00    +0.004 C 
BRANCH  26  30
ATOM     27  O   UNL     1     -30.525  16.251   0.752  0.00  0.00    -0.242 OA
ATOM     28  N   UNL     1     -30.761  17.562   1.131  0.00  0.00    -0.048 NA
ATOM     29  N   UNL     1     -31.649  15.665   0.198  0.00  0.00    -0.048 NA
ATOM     30  C   UNL     1     -34.114  18.889   0.539  0.00  0.00    -0.023 C 
ATOM     31  C   UNL     1     -32.789  18.987   0.987  0.00  0.00    +0.020 C 
ATOM     32  C   UNL     1     -34.670  17.723  -0.038  0.00  0.00    -0.003 C 
ATOM     33  C   UNL     1     -32.038  17.810   0.816  0.00  0.00    +0.143 A 
ATOM     34  C   UNL     1     -33.937  16.535  -0.218  0.00  0.00    +0.024 C 
ATOM     35  C   UNL     1     -32.603  16.603   0.223  0.00  0.00    +0.143 A 
ENDBRANCH  26  30
ENDBRANCH  25  26
ENDBRANCH   2  25
TORSDOF 6
ENDMDL
MODEL 2
REMARK VINA RESULT:      -7.7      3.807      9.493
REMARK  Name = 197601
REMARK  6 active torsions:
REMARK  status: ('A' for Active; 'I' for Inactive)
REMARK    1  A    between atoms: N_2  and  C_25
REMARK    2  A    between atoms: C_9  and  O_17
REMARK    3  A    between atoms: C_14  and  N_19
REMARK    4  A    between atoms: N_19  and  S_21
REMARK    5  A    between atoms: C_25  and  C_26
REMARK    6  A    between atoms: C_26  and  C_30
REMARK                            x       y       z     vdW  Elec       q    Type
REMARK                         _______ _______ _______ _____ _____    ______ ____
ROOT
ATOM      1  O   UNL     1     -36.352  24.082   3.573  0.00  0.00    -0.483 OA
ATOM      2  N   UNL     1     -34.490  27.060   4.051  0.00  0.00    +0.387 N 
ATOM      3  C   UNL     1     -35.414  24.310   4.645  0.00  0.00    +0.132 C 
ATOM      4  C   UNL     1     -34.023  24.630   4.057  0.00  0.00    +0.017 C 
ATOM      5  C   UNL     1     -35.916  25.557   5.404  0.00  0.00    +0.017 C 
ATOM      6  C   UNL     1     -35.393  23.117   5.611  0.00  0.00    +0.074 C 
ATOM      7  C   UNL     1     -34.022  25.929   3.243  0.00  0.00    -0.074 C 
ATOM      8  C   UNL     1     -35.852  26.827   4.547  0.00  0.00    -0.074 C 
ATOM      9  C   UNL     1     -35.016  21.824   4.897  0.00  0.00    +0.139 C 
ATOM     10  C   UNL     1     -35.780  21.702   3.606  0.00  0.00    +0.040 C 
ATOM     11  C   UNL     1     -36.389  22.825   3.029  0.00  0.00    +0.136 C 
ATOM     12  C   UNL     1     -35.859  20.471   2.936  0.00  0.00    +0.017 C 
ATOM     13  C   UNL     1     -37.101  22.706   1.831  0.00  0.00    +0.038 C 
ATOM     14  C   UNL     1     -36.562  20.357   1.736  0.00  0.00    +0.064 C 
ATOM     15  C   UNL     1     -37.187  21.474   1.186  0.00  0.00    +0.019 C 
ATOM     16  H   UNL     1     -33.873  27.148   4.858  0.00  0.00    -0.080 HD
ENDROOT
BRANCH   9  17
ATOM     17  O   UNL     1     -35.308  20.727   5.757  0.00  0.00    -0.380 OA
ATOM     18  H   UNL     1     -36.229  20.451   5.628  0.00  0.00    +0.211 HD
ENDBRANCH   9  17
BRANCH  14  19
ATOM     19  N   UNL     1     -36.641  19.096   1.072  0.00  0.00    -0.219 N 
ATOM     20  H   UNL     1     -37.387  18.479   1.247  0.00  0.00    +0.173 HD
BRANCH  19  21
ATOM     21  S   UNL     1     -35.395  18.686  -0.044  0.00  0.00    +0.056 S 
ATOM     22  O   UNL     1     -35.515  19.553  -1.203  0.00  0.00    -0.154 OA
ATOM     23  O   UNL     1     -34.122  18.532   0.631  0.00  0.00    -0.154 OA
ATOM     24  C   UNL     1     -35.944  17.071  -0.549  0.00  0.00    +0.200 C 
ENDBRANCH  19  21
ENDBRANCH  14  19
BRANCH   2  25
ATOM     25  C   UNL     1     -34.432  28.301   3.280  0.00  0.00    -0.073 C 
BRANCH  25  26
ATOM     26  C   UNL     1     -33.000  28.601   2.833  0.00  0.00    +0.004 C 
BRANCH  26  30
ATOM     27  O   UNL     1     -28.781  28.532   6.963  0.00  0.00    -0.242 OA
ATOM     28  N   UNL     1     -29.153  27.784   5.858  0.00  0.00    -0.048 NA
ATOM     29  N   UNL     1     -29.631  29.605   7.168  0.00  0.00    -0.048 NA
ATOM     30  C   UNL     1     -32.103  28.893   4.010  0.00  0.00    -0.023 C 
ATOM     31  C   UNL     1     -31.021  28.032   4.243  0.00  0.00    +0.020 C 
ATOM     32  C   UNL     1     -32.406  30.018   4.812  0.00  0.00    -0.003 C 
ATOM     33  C   UNL     1     -30.242  28.381   5.361  0.00  0.00    +0.143 A 
ATOM     34  C   UNL     1     -31.640  30.386   5.934  0.00  0.00    +0.024 C 
ATOM     35  C   UNL     1     -30.547  29.539   6.193  0.00  0.00    +0.143 A 
ENDBRANCH  26  30
ENDBRANCH  25  26
ENDBRANCH   2  25
TORSDOF 6
ENDMDL
MODEL 3
REMARK VINA RESULT:      -7.7      2.158      2.874
REMARK  Name = 197601
REMARK  6 active torsions:
REMARK  status: ('A' for Active; 'I' for Inactive)
REMARK    1  A    between atoms: N_2  and  C_25
REMARK    2  A    between atoms: C_9  and  O_17
REMARK    3  A    between atoms: C_14  and  N_19
REMARK    4  A    between atoms: N_19  and  S_21
REMARK    5  A    between atoms: C_25  and  C_26
REMARK    6  A    between atoms: C_26  and  C_30
REMARK                            x       y       z     vdW  Elec       q    Type
REMARK                         _______ _______ _______ _____ _____    ______ ____
ROOT
ATOM      1  O   UNL     1     -36.640  22.745   2.852  0.00  0.00    -0.483 OA
ATOM      2  N   UNL     1     -37.177  21.135  -0.260  0.00  0.00    +0.387 N 
ATOM      3  C   UNL     1     -37.675  23.090   1.909  0.00  0.00    +0.132 C 
ATOM      4  C   UNL     1     -37.037  23.468   0.554  0.00  0.00    +0.017 C 
ATOM      5  C   UNL     1     -38.519  21.813   1.705  0.00  0.00    +0.017 C 
ATOM      6  C   UNL     1     -38.578  24.196   2.472  0.00  0.00    +0.074 C 
ATOM      7  C   UNL     1     -36.291  22.291  -0.085  0.00  0.00    -0.074 C 
ATOM      8  C   UNL     1     -37.726  20.690   1.027  0.00  0.00    -0.074 C 
ATOM      9  C   UNL     1     -37.781  25.452   2.807  0.00  0.00    +0.139 C 
ATOM     10  C   UNL     1     -36.525  25.088   3.550  0.00  0.00    +0.040 C 
ATOM     11  C   UNL     1     -36.035  23.776   3.523  0.00  0.00    +0.136 C 
ATOM     12  C   UNL     1     -35.798  26.067   4.247  0.00  0.00    +0.017 C 
ATOM     13  C   UNL     1     -34.868  23.441   4.218  0.00  0.00    +0.038 C 
ATOM     14  C   UNL     1     -34.629  25.733   4.932  0.00  0.00    +0.064 C 
ATOM     15  C   UNL     1     -34.167  24.419   4.921  0.00  0.00    +0.019 C 
ATOM     16  H   UNL     1     -37.956  21.422  -0.851  0.00  0.00    -0.080 HD
ENDROOT
BRANCH   9  17
ATOM     17  O   UNL     1     -38.598  26.313   3.595  0.00  0.00    -0.380 OA
ATOM     18  H   UNL     1     -39.487  26.358   3.209  0.00  0.00    +0.211 HD
ENDBRANCH   9  17
BRANCH  14  19
ATOM     19  N   UNL     1     -33.906  26.737   5.643  0.00  0.00    -0.219 N 
ATOM     20  H   UNL     1     -34.016  26.845   6.615  0.00  0.00    +0.173 HD
BRANCH  19  21
ATOM     21  S   UNL     1     -32.838  27.754   4.754  0.00  0.00    +0.056 S 
ATOM     22  O   UNL     1     -31.949  26.913   3.972  0.00  0.00    -0.154 OA
ATOM     23  O   UNL     1     -33.561  28.844   4.127  0.00  0.00    -0.154 OA
ATOM     24  C   UNL     1     -31.871  28.434   6.082  0.00  0.00    +0.200 C 
ENDBRANCH  19  21
ENDBRANCH  14  19
BRANCH   2  25
ATOM     25  C   UNL     1     -36.467  20.040  -0.920  0.00  0.00    -0.073 C 
BRANCH  25  26
ATOM     26  C   UNL     1     -36.360  18.823   0.001  0.00  0.00    +0.004 C 
BRANCH  26  30
ATOM     27  O   UNL     1     -31.173  16.055   0.536  0.00  0.00    -0.242 OA
ATOM     28  N   UNL     1     -32.459  15.761   0.114  0.00  0.00    -0.048 NA
ATOM     29  N   UNL     1     -31.057  17.370   0.953  0.00  0.00    -0.048 NA
ATOM     30  C   UNL     1     -34.922  18.454   0.266  0.00  0.00    -0.023 C 
ATOM     31  C   UNL     1     -34.517  17.142  -0.015  0.00  0.00    +0.020 C 
ATOM     32  C   UNL     1     -34.065  19.453   0.783  0.00  0.00    -0.003 C 
ATOM     33  C   UNL     1     -33.162  16.889   0.264  0.00  0.00    +0.143 A 
ATOM     34  C   UNL     1     -32.707  19.223   1.069  0.00  0.00    +0.024 C 
ATOM     35  C   UNL     1     -32.271  17.913   0.797  0.00  0.00    +0.143 A 
ENDBRANCH  26  30
ENDBRANCH  25  26
ENDBRANCH   2  25
TORSDOF 6
ENDMDL
MODEL 4
REMARK VINA RESULT:      -7.5      3.435      9.299
REMARK  Name = 197601
REMARK  6 active torsions:
REMARK  status: ('A' for Active; 'I' for Inactive)
REMARK    1  A    between atoms: N_2  and  C_25
REMARK    2  A    between atoms: C_9  and  O_17
REMARK    3  A    between atoms: C_14  and  N_19
REMARK    4  A    between atoms: N_19  and  S_21
REMARK    5  A    between atoms: C_25  and  C_26
REMARK    6  A    between atoms: C_26  and  C_30
REMARK                            x       y       z     vdW  Elec       q    Type
REMARK                         _______ _______ _______ _____ _____    ______ ____
ROOT
ATOM      1  O   UNL     1     -35.541  22.697   1.627  0.00  0.00    -0.483 OA
ATOM      2  N   UNL     1     -36.564  24.458   4.529  0.00  0.00    +0.387 N 
ATOM      3  C   UNL     1     -36.624  22.305   2.496  0.00  0.00    +0.132 C 
ATOM      4  C   UNL     1     -36.091  22.103   3.931  0.00  0.00    +0.017 C 
ATOM      5  C   UNL     1     -37.617  23.487   2.511  0.00  0.00    +0.017 C 
ATOM      6  C   UNL     1     -37.340  21.064   1.945  0.00  0.00    +0.074 C 
ATOM      7  C   UNL     1     -35.545  23.402   4.535  0.00  0.00    -0.074 C 
ATOM      8  C   UNL     1     -37.023  24.741   3.163  0.00  0.00    -0.074 C 
ATOM      9  C   UNL     1     -36.383  19.887   1.793  0.00  0.00    +0.139 C 
ATOM     10  C   UNL     1     -35.103  20.338   1.143  0.00  0.00    +0.040 C 
ATOM     11  C   UNL     1     -34.763  21.697   1.105  0.00  0.00    +0.136 C 
ATOM     12  C   UNL     1     -34.208  19.402   0.602  0.00  0.00    +0.017 C 
ATOM     13  C   UNL     1     -33.574  22.112   0.496  0.00  0.00    +0.038 C 
ATOM     14  C   UNL     1     -33.017  19.818   0.004  0.00  0.00    +0.064 C 
ATOM     15  C   UNL     1     -32.703  21.173  -0.053  0.00  0.00    +0.019 C 
ATOM     16  H   UNL     1     -37.365  24.127   5.066  0.00  0.00    -0.080 HD
ENDROOT
BRANCH   9  17
ATOM     17  O   UNL     1     -37.017  18.882   1.008  0.00  0.00    -0.380 OA
ATOM     18  H   UNL     1     -37.203  19.234   0.122  0.00  0.00    +0.211 HD
ENDBRANCH   9  17
BRANCH  14  19
ATOM     19  N   UNL     1     -32.122  18.854  -0.550  0.00  0.00    -0.219 N 
ATOM     20  H   UNL     1     -31.677  19.015  -1.412  0.00  0.00    +0.173 HD
BRANCH  19  21
ATOM     21  S   UNL     1     -31.842  17.403   0.334  0.00  0.00    +0.056 S 
ATOM     22  O   UNL     1     -31.589  17.752   1.720  0.00  0.00    -0.154 OA
ATOM     23  O   UNL     1     -32.825  16.392  -0.002  0.00  0.00    -0.154 OA
ATOM     24  C   UNL     1     -30.285  16.903  -0.365  0.00  0.00    +0.200 C 
ENDBRANCH  19  21
ENDBRANCH  14  19
BRANCH   2  25
ATOM     25  C   UNL     1     -36.048  25.673   5.158  0.00  0.00    -0.073 C 
BRANCH  25  26
ATOM     26  C   UNL     1     -34.716  25.402   5.859  0.00  0.00    +0.004 C 
BRANCH  26  30
ATOM     27  O   UNL     1     -31.292  29.547   3.420  0.00  0.00    -0.242 OA
ATOM     28  N   UNL     1     -32.263  28.647   3.017  0.00  0.00    -0.048 NA
ATOM     29  N   UNL     1     -31.043  29.463   4.779  0.00  0.00    -0.048 NA
ATOM     30  C   UNL     1     -33.717  26.501   5.592  0.00  0.00    -0.023 C 
ATOM     31  C   UNL     1     -33.587  26.966   4.276  0.00  0.00    +0.020 C 
ATOM     32  C   UNL     1     -32.969  26.998   6.684  0.00  0.00    -0.003 C 
ATOM     33  C   UNL     1     -32.633  27.988   4.121  0.00  0.00    +0.143 A 
ATOM     34  C   UNL     1     -32.011  28.020   6.553  0.00  0.00    +0.024 C 
ATOM     35  C   UNL     1     -31.857  28.507   5.242  0.00  0.00    +0.143 A 
ENDBRANCH  26  30
ENDBRANCH  25  26
ENDBRANCH   2  25
TORSDOF 6
ENDMDL
MODEL 5
REMARK VINA RESULT:      -7.2      4.910      9.466
REMARK  Name = 197601
REMARK  6 active torsions:
REMARK  status: ('A' for Active; 'I' for Inactive)
REMARK    1  A    between atoms: N_2  and  C_25
REMARK    2  A    between atoms: C_9  and  O_17
REMARK    3  A    between atoms: C_14  and  N_19
REMARK    4  A    between atoms: N_19  and  S_21
REMARK    5  A    between atoms: C_25  and  C_26
REMARK    6  A    between atoms: C_26  and  C_30
REMARK                            x       y       z     vdW  Elec       q    Type
REMARK                         _______ _______ _______ _____ _____    ______ ____
ROOT
ATOM      1  O   UNL     1     -36.556  24.713   3.911  0.00  0.00    -0.483 OA
ATOM      2  N   UNL     1     -33.776  26.885   3.572  0.00  0.00    +0.387 N 
ATOM      3  C   UNL     1     -35.175  24.304   3.962  0.00  0.00    +0.132 C 
ATOM      4  C   UNL     1     -34.468  24.696   2.647  0.00  0.00    +0.017 C 
ATOM      5  C   UNL     1     -34.527  25.102   5.114  0.00  0.00    +0.017 C 
ATOM      6  C   UNL     1     -35.063  22.805   4.275  0.00  0.00    +0.074 C 
ATOM      7  C   UNL     1     -34.427  26.215   2.441  0.00  0.00    -0.074 C 
ATOM      8  C   UNL     1     -34.483  26.608   4.828  0.00  0.00    -0.074 C 
ATOM      9  C   UNL     1     -35.786  21.960   3.232  0.00  0.00    +0.139 C 
ATOM     10  C   UNL     1     -37.142  22.544   2.939  0.00  0.00    +0.040 C 
ATOM     11  C   UNL     1     -37.438  23.868   3.287  0.00  0.00    +0.136 C 
ATOM     12  C   UNL     1     -38.117  21.786   2.273  0.00  0.00    +0.017 C 
ATOM     13  C   UNL     1     -38.700  24.406   3.017  0.00  0.00    +0.038 C 
ATOM     14  C   UNL     1     -39.373  22.328   1.995  0.00  0.00    +0.064 C 
ATOM     15  C   UNL     1     -39.666  23.636   2.371  0.00  0.00    +0.019 C 
ATOM     16  H   UNL     1     -32.830  26.514   3.656  0.00  0.00    -0.080 HD
ENDROOT
BRANCH   9  17
ATOM     17  O   UNL     1     -35.910  20.631   3.728  0.00  0.00    -0.380 OA
ATOM     18  H   UNL     1     -36.649  20.587   4.356  0.00  0.00    +0.211 HD
ENDBRANCH   9  17
BRANCH  14  19
ATOM     19  N   UNL     1     -40.357  21.541   1.325  0.00  0.00    -0.219 N 
ATOM     20  H   UNL     1     -41.193  21.285   1.777  0.00  0.00    +0.173 HD
BRANCH  19  21
ATOM     21  S   UNL     1     -40.042  21.051  -0.296  0.00  0.00    +0.056 S 
ATOM     22  O   UNL     1     -39.418  22.160  -0.996  0.00  0.00    -0.154 OA
ATOM     23  O   UNL     1     -39.447  19.729  -0.333  0.00  0.00    -0.154 OA
ATOM     24  C   UNL     1     -41.704  20.919  -0.914  0.00  0.00    +0.200 C 
ENDBRANCH  19  21
ENDBRANCH  14  19
BRANCH   2  25
ATOM     25  C   UNL     1     -33.694  28.326   3.337  0.00  0.00    -0.073 C 
BRANCH  25  26
ATOM     26  C   UNL     1     -32.263  28.743   2.992  0.00  0.00    +0.004 C 
BRANCH  26  30
ATOM     27  O   UNL     1     -28.006  28.606   7.079  0.00  0.00    -0.242 OA
ATOM     28  N   UNL     1     -28.222  28.120   5.801  0.00  0.00    -0.048 NA
ATOM     29  N   UNL     1     -29.088  29.335   7.542  0.00  0.00    -0.048 NA
ATOM     30  C   UNL     1     -31.423  28.918   4.232  0.00  0.00    -0.023 C 
ATOM     31  C   UNL     1     -30.153  28.324   4.255  0.00  0.00    +0.020 C 
ATOM     32  C   UNL     1     -31.965  29.669   5.301  0.00  0.00    -0.003 C 
ATOM     33  C   UNL     1     -29.443  28.538   5.451  0.00  0.00    +0.143 A 
ATOM     34  C   UNL     1     -31.273  29.896   6.505  0.00  0.00    +0.024 C 
ATOM     35  C   UNL     1     -29.994  29.311   6.558  0.00  0.00    +0.143 A 
ENDBRANCH  26  30
ENDBRANCH  25  26
ENDBRANCH   2  25
TORSDOF 6
ENDMDL
MODEL 6
REMARK VINA RESULT:      -7.2      4.598      9.587
REMARK  Name = 197601
REMARK  6 active torsions:
REMARK  status: ('A' for Active; 'I' for Inactive)
REMARK    1  A    between atoms: N_2  and  C_25
REMARK    2  A    between atoms: C_9  and  O_17
REMARK    3  A    between atoms: C_14  and  N_19
REMARK    4  A    between atoms: N_19  and  S_21
REMARK    5  A    between atoms: C_25  and  C_26
REMARK    6  A    between atoms: C_26  and  C_30
REMARK                            x       y       z     vdW  Elec       q    Type
REMARK                         _______ _______ _______ _____ _____    ______ ____
ROOT
ATOM      1  O   UNL     1     -36.841  23.698   3.817  0.00  0.00    -0.483 OA
ATOM      2  N   UNL     1     -33.806  25.501   4.138  0.00  0.00    +0.387 N 
ATOM      3  C   UNL     1     -35.523  23.115   3.778  0.00  0.00    +0.132 C 
ATOM      4  C   UNL     1     -34.706  23.753   2.634  0.00  0.00    +0.017 C 
ATOM      5  C   UNL     1     -34.846  23.481   5.117  0.00  0.00    +0.017 C 
ATOM      6  C   UNL     1     -35.609  21.586   3.669  0.00  0.00    +0.074 C 
ATOM      7  C   UNL     1     -34.472  25.252   2.855  0.00  0.00    -0.074 C 
ATOM      8  C   UNL     1     -34.607  24.988   5.257  0.00  0.00    -0.074 C 
ATOM      9  C   UNL     1     -36.371  21.156   2.421  0.00  0.00    +0.139 C 
ATOM     10  C   UNL     1     -37.630  21.968   2.276  0.00  0.00    +0.040 C 
ATOM     11  C   UNL     1     -37.783  23.176   2.970  0.00  0.00    +0.136 C 
ATOM     12  C   UNL     1     -38.653  21.553   1.409  0.00  0.00    +0.017 C 
ATOM     13  C   UNL     1     -38.956  23.926   2.835  0.00  0.00    +0.038 C 
ATOM     14  C   UNL     1     -39.818  22.307   1.268  0.00  0.00    +0.064 C 
ATOM     15  C   UNL     1     -39.971  23.491   1.985  0.00  0.00    +0.019 C 
ATOM     16  H   UNL     1     -32.917  25.001   4.134  0.00  0.00    -0.080 HD
ENDROOT
BRANCH   9  17
ATOM     17  O   UNL     1     -36.680  19.770   2.530  0.00  0.00    -0.380 OA
ATOM     18  H   UNL     1     -37.614  19.628   2.306  0.00  0.00    +0.211 HD
ENDBRANCH   9  17
BRANCH  14  19
ATOM     19  N   UNL     1     -40.853  21.866   0.391  0.00  0.00    -0.219 N 
ATOM     20  H   UNL     1     -41.361  21.044   0.581  0.00  0.00    +0.173 HD
BRANCH  19  21
ATOM     21  S   UNL     1     -41.190  22.810  -1.010  0.00  0.00    +0.056 S 
ATOM     22  O   UNL     1     -42.301  23.695  -0.709  0.00  0.00    -0.154 OA
ATOM     23  O   UNL     1     -39.968  23.333  -1.589  0.00  0.00    -0.154 OA
ATOM     24  C   UNL     1     -41.814  21.550  -2.098  0.00  0.00    +0.200 C 
ENDBRANCH  19  21
ENDBRANCH  14  19
BRANCH   2  25
ATOM     25  C   UNL     1     -33.540  26.928   4.311  0.00  0.00    -0.073 C 
BRANCH  25  26
ATOM     26  C   UNL     1     -33.203  27.587   2.972  0.00  0.00    +0.004 C 
BRANCH  26  30
ATOM     27  O   UNL     1     -37.580  31.047   1.041  0.00  0.00    -0.242 OA
ATOM     28  N   UNL     1     -37.196  29.721   0.941  0.00  0.00    -0.048 NA
ATOM     29  N   UNL     1     -36.695  31.783   1.810  0.00  0.00    -0.048 NA
ATOM     30  C   UNL     1     -34.133  28.737   2.672  0.00  0.00    -0.023 C 
ATOM     31  C   UNL     1     -35.257  28.483   1.874  0.00  0.00    +0.020 C 
ATOM     32  C   UNL     1     -33.816  30.005   3.212  0.00  0.00    -0.003 C 
ATOM     33  C   UNL     1     -36.065  29.612   1.647  0.00  0.00    +0.143 A 
ATOM     34  C   UNL     1     -34.609  31.147   2.998  0.00  0.00    +0.024 C 
ATOM     35  C   UNL     1     -35.745  30.923   2.200  0.00  0.00    +0.143 A 
ENDBRANCH  26  30
ENDBRANCH  25  26
ENDBRANCH   2  25
TORSDOF 6
ENDMDL
MODEL 7
REMARK VINA RESULT:      -7.1      4.557      9.717
REMARK  Name = 197601
REMARK  6 active torsions:
REMARK  status: ('A' for Active; 'I' for Inactive)
REMARK    1  A    between atoms: N_2  and  C_25
REMARK    2  A    between atoms: C_9  and  O_17
REMARK    3  A    between atoms: C_14  and  N_19
REMARK    4  A    between atoms: N_19  and  S_21
REMARK    5  A    between atoms: C_25  and  C_26
REMARK    6  A    between atoms: C_26  and  C_30
REMARK                            x       y       z     vdW  Elec       q    Type
REMARK                         _______ _______ _______ _____ _____    ______ ____
ROOT
ATOM      1  O   UNL     1     -37.289  22.690   3.358  0.00  0.00    -0.483 OA
ATOM      2  N   UNL     1     -34.766  24.713   4.810  0.00  0.00    +0.387 N 
ATOM      3  C   UNL     1     -35.900  22.322   3.480  0.00  0.00    +0.132 C 
ATOM      4  C   UNL     1     -35.021  23.362   2.752  0.00  0.00    +0.017 C 
ATOM      5  C   UNL     1     -35.566  22.379   4.987  0.00  0.00    +0.017 C 
ATOM      6  C   UNL     1     -35.671  20.890   2.976  0.00  0.00    +0.074 C 
ATOM      7  C   UNL     1     -35.122  24.754   3.387  0.00  0.00    -0.074 C 
ATOM      8  C   UNL     1     -35.648  23.802   5.549  0.00  0.00    -0.074 C 
ATOM      9  C   UNL     1     -36.092  20.736   1.519  0.00  0.00    +0.139 C 
ATOM     10  C   UNL     1     -37.433  21.381   1.295  0.00  0.00    +0.040 C 
ATOM     11  C   UNL     1     -37.939  22.311   2.213  0.00  0.00    +0.136 C 
ATOM     12  C   UNL     1     -38.179  21.097   0.140  0.00  0.00    +0.017 C 
ATOM     13  C   UNL     1     -39.188  22.906   2.003  0.00  0.00    +0.038 C 
ATOM     14  C   UNL     1     -39.420  21.700  -0.073  0.00  0.00    +0.064 C 
ATOM     15  C   UNL     1     -39.926  22.600   0.861  0.00  0.00    +0.019 C 
ATOM     16  H   UNL     1     -33.813  24.358   4.886  0.00  0.00    -0.080 HD
ENDROOT
BRANCH   9  17
ATOM     17  O   UNL     1     -36.147  19.347   1.205  0.00  0.00    -0.380 OA
ATOM     18  H   UNL     1     -35.583  19.168   0.435  0.00  0.00    +0.211 HD
ENDBRANCH   9  17
BRANCH  14  19
ATOM     19  N   UNL     1     -40.170  21.392  -1.248  0.00  0.00    -0.219 N 
ATOM     20  H   UNL     1     -40.041  21.905  -2.078  0.00  0.00    +0.173 HD
BRANCH  19  21
ATOM     21  S   UNL     1     -41.305  20.099  -1.172  0.00  0.00    +0.056 S 
ATOM     22  O   UNL     1     -40.576  18.846  -1.238  0.00  0.00    -0.154 OA
ATOM     23  O   UNL     1     -42.283  20.328  -0.127  0.00  0.00    -0.154 OA
ATOM     24  C   UNL     1     -42.122  20.305  -2.739  0.00  0.00    +0.200 C 
ENDBRANCH  19  21
ENDBRANCH  14  19
BRANCH   2  25
ATOM     25  C   UNL     1     -34.812  26.055   5.389  0.00  0.00    -0.073 C 
BRANCH  25  26
ATOM     26  C   UNL     1     -33.594  26.310   6.277  0.00  0.00    +0.004 C 
BRANCH  26  30
ATOM     27  O   UNL     1     -30.931  30.452   3.020  0.00  0.00    -0.242 OA
ATOM     28  N   UNL     1     -31.769  29.368   2.822  0.00  0.00    -0.048 NA
ATOM     29  N   UNL     1     -30.623  30.627   4.358  0.00  0.00    -0.048 NA
ATOM     30  C   UNL     1     -32.784  27.483   5.783  0.00  0.00    -0.023 C 
ATOM     31  C   UNL     1     -32.775  27.741   4.405  0.00  0.00    +0.020 C 
ATOM     32  C   UNL     1     -32.081  28.253   6.737  0.00  0.00    -0.003 C 
ATOM     33  C   UNL     1     -31.993  28.851   4.035  0.00  0.00    +0.143 A 
ATOM     34  C   UNL     1     -31.294  29.368   6.391  0.00  0.00    +0.024 C 
ATOM     35  C   UNL     1     -31.265  29.651   5.013  0.00  0.00    +0.143 A 
ENDBRANCH  26  30
ENDBRANCH  25  26
ENDBRANCH   2  25
TORSDOF 6
ENDMDL
MODEL 8
REMARK VINA RESULT:      -6.9      1.805      2.506
REMARK  Name = 197601
REMARK  6 active torsions:
REMARK  status: ('A' for Active; 'I' for Inactive)
REMARK    1  A    between atoms: N_2  and  C_25
REMARK    2  A    between atoms: C_9  and  O_17
REMARK    3  A    between atoms: C_14  and  N_19
REMARK    4  A    between atoms: N_19  and  S_21
REMARK    5  A    between atoms: C_25  and  C_26
REMARK    6  A    between atoms: C_26  and  C_30
REMARK                            x       y       z     vdW  Elec       q    Type
REMARK                         _______ _______ _______ _____ _____    ______ ____
ROOT
ATOM      1  O   UNL     1     -34.930  23.110   2.637  0.00  0.00    -0.483 OA
ATOM      2  N   UNL     1     -35.036  20.412   0.340  0.00  0.00    +0.387 N 
ATOM      3  C   UNL     1     -36.113  22.361   2.292  0.00  0.00    +0.132 C 
ATOM      4  C   UNL     1     -36.363  22.456   0.772  0.00  0.00    +0.017 C 
ATOM      5  C   UNL     1     -35.811  20.887   2.641  0.00  0.00    +0.017 C 
ATOM      6  C   UNL     1     -37.315  22.830   3.125  0.00  0.00    +0.074 C 
ATOM      7  C   UNL     1     -35.234  21.814  -0.043  0.00  0.00    -0.074 C 
ATOM      8  C   UNL     1     -34.701  20.296   1.765  0.00  0.00    -0.074 C 
ATOM      9  C   UNL     1     -37.595  24.314   2.915  0.00  0.00    +0.139 C 
ATOM     10  C   UNL     1     -36.313  25.100   2.979  0.00  0.00    +0.040 C 
ATOM     11  C   UNL     1     -35.076  24.458   2.833  0.00  0.00    +0.136 C 
ATOM     12  C   UNL     1     -36.337  26.493   3.142  0.00  0.00    +0.017 C 
ATOM     13  C   UNL     1     -33.887  25.191   2.896  0.00  0.00    +0.038 C 
ATOM     14  C   UNL     1     -35.149  27.225   3.195  0.00  0.00    +0.064 C 
ATOM     15  C   UNL     1     -33.925  26.573   3.078  0.00  0.00    +0.019 C 
ATOM     16  H   UNL     1     -35.912  19.915   0.182  0.00  0.00    -0.080 HD
ENDROOT
BRANCH   9  17
ATOM     17  O   UNL     1     -38.502  24.753   3.922  0.00  0.00    -0.380 OA
ATOM     18  H   UNL     1     -39.407  24.740   3.570  0.00  0.00    +0.211 HD
ENDBRANCH   9  17
BRANCH  14  19
ATOM     19  N   UNL     1     -35.190  28.641   3.372  0.00  0.00    -0.219 N 
ATOM     20  H   UNL     1     -35.157  29.039   4.271  0.00  0.00    +0.173 HD
BRANCH  19  21
ATOM     21  S   UNL     1     -35.299  29.632   1.967  0.00  0.00    +0.056 S 
ATOM     22  O   UNL     1     -34.271  29.214   1.031  0.00  0.00    -0.154 OA
ATOM     23  O   UNL     1     -36.675  29.770   1.535  0.00  0.00    -0.154 OA
ATOM     24  C   UNL     1     -34.778  31.193   2.642  0.00  0.00    +0.200 C 
ENDBRANCH  19  21
ENDBRANCH  14  19
BRANCH   2  25
ATOM     25  C   UNL     1     -33.995  19.797  -0.483  0.00  0.00    -0.073 C 
BRANCH  25  26
ATOM     26  C   UNL     1     -32.605  20.083   0.089  0.00  0.00    +0.004 C 
BRANCH  26  30
ATOM     27  O   UNL     1     -30.620  14.526   0.260  0.00  0.00    -0.242 OA
ATOM     28  N   UNL     1     -31.837  15.183   0.208  0.00  0.00    -0.048 NA
ATOM     29  N   UNL     1     -29.557  15.413   0.276  0.00  0.00    -0.048 NA
ATOM     30  C   UNL     1     -31.760  18.835   0.139  0.00  0.00    -0.023 C 
ATOM     31  C   UNL     1     -32.416  17.596   0.143  0.00  0.00    +0.020 C 
ATOM     32  C   UNL     1     -30.355  18.986   0.181  0.00  0.00    -0.003 C 
ATOM     33  C   UNL     1     -31.549  16.489   0.192  0.00  0.00    +0.143 A 
ATOM     34  C   UNL     1     -29.469  17.894   0.230  0.00  0.00    +0.024 C 
ATOM     35  C   UNL     1     -30.099  16.636   0.235  0.00  0.00    +0.143 A 
ENDBRANCH  26  30
ENDBRANCH  25  26
ENDBRANCH   2  25
TORSDOF 6
ENDMDL
MODEL 9
REMARK VINA RESULT:      -6.8      3.556      9.755
REMARK  Name = 197601
REMARK  6 active torsions:
REMARK  status: ('A' for Active; 'I' for Inactive)
REMARK    1  A    between atoms: N_2  and  C_25
REMARK    2  A    between atoms: C_9  and  O_17
REMARK    3  A    between atoms: C_14  and  N_19
REMARK    4  A    between atoms: N_19  and  S_21
REMARK    5  A    between atoms: C_25  and  C_26
REMARK    6  A    between atoms: C_26  and  C_30
REMARK                            x       y       z     vdW  Elec       q    Type
REMARK                         _______ _______ _______ _____ _____    ______ ____
ROOT
ATOM      1  O   UNL     1     -34.759  20.711   0.453  0.00  0.00    -0.483 OA
ATOM      2  N   UNL     1     -37.129  22.633   2.258  0.00  0.00    +0.387 N 
ATOM      3  C   UNL     1     -36.185  20.499   0.435  0.00  0.00    +0.132 C 
ATOM      4  C   UNL     1     -36.689  20.229   1.869  0.00  0.00    +0.017 C 
ATOM      5  C   UNL     1     -36.815  21.820  -0.057  0.00  0.00    +0.017 C 
ATOM      6  C   UNL     1     -36.554  19.378  -0.548  0.00  0.00    +0.074 C 
ATOM      7  C   UNL     1     -36.478  21.432   2.794  0.00  0.00    -0.074 C 
ATOM      8  C   UNL     1     -36.601  22.972   0.930  0.00  0.00    -0.074 C 
ATOM      9  C   UNL     1     -35.868  18.066  -0.184  0.00  0.00    +0.139 C 
ATOM     10  C   UNL     1     -34.417  18.309   0.132  0.00  0.00    +0.040 C 
ATOM     11  C   UNL     1     -33.959  19.599   0.432  0.00  0.00    +0.136 C 
ATOM     12  C   UNL     1     -33.506  17.242   0.174  0.00  0.00    +0.017 C 
ATOM     13  C   UNL     1     -32.609  19.821   0.722  0.00  0.00    +0.038 C 
ATOM     14  C   UNL     1     -32.161  17.464   0.473  0.00  0.00    +0.064 C 
ATOM     15  C   UNL     1     -31.712  18.755   0.742  0.00  0.00    +0.019 C 
ATOM     16  H   UNL     1     -38.124  22.434   2.158  0.00  0.00    -0.080 HD
ENDROOT
BRANCH   9  17
ATOM     17  O   UNL     1     -35.998  17.165  -1.279  0.00  0.00    -0.380 OA
ATOM     18  H   UNL     1     -36.090  17.669  -2.104  0.00  0.00    +0.211 HD
ENDBRANCH   9  17
BRANCH  14  19
ATOM     19  N   UNL     1     -31.246  16.369   0.502  0.00  0.00    -0.219 N 
ATOM     20  H   UNL     1     -31.116  15.842   1.322  0.00  0.00    +0.173 HD
BRANCH  19  21
ATOM     21  S   UNL     1     -30.377  15.998  -0.938  0.00  0.00    +0.056 S 
ATOM     22  O   UNL     1     -30.375  14.556  -1.112  0.00  0.00    -0.154 OA
ATOM     23  O   UNL     1     -30.776  16.870  -2.025  0.00  0.00    -0.154 OA
ATOM     24  C   UNL     1     -28.733  16.460  -0.441  0.00  0.00    +0.200 C 
ENDBRANCH  19  21
ENDBRANCH  14  19
BRANCH   2  25
ATOM     25  C   UNL     1     -36.967  23.759   3.177  0.00  0.00    -0.073 C 
BRANCH  25  26
ATOM     26  C   UNL     1     -35.787  23.528   4.122  0.00  0.00    +0.004 C 
BRANCH  26  30
ATOM     27  O   UNL     1     -32.560  28.031   6.161  0.00  0.00    -0.242 OA
ATOM     28  N   UNL     1     -33.217  26.923   6.668  0.00  0.00    -0.048 NA
ATOM     29  N   UNL     1     -32.687  28.119   4.785  0.00  0.00    -0.048 NA
ATOM     30  C   UNL     1     -34.950  24.772   4.276  0.00  0.00    -0.023 C 
ATOM     31  C   UNL     1     -34.539  25.133   5.567  0.00  0.00    +0.020 C 
ATOM     32  C   UNL     1     -34.627  25.504   3.110  0.00  0.00    -0.003 C 
ATOM     33  C   UNL     1     -33.764  26.307   5.614  0.00  0.00    +0.143 A 
ATOM     34  C   UNL     1     -33.853  26.679   3.133  0.00  0.00    +0.024 C 
ATOM     35  C   UNL     1     -33.427  27.067   4.416  0.00  0.00    +0.143 A 
ENDBRANCH  26  30
ENDBRANCH  25  26
ENDBRANCH   2  25
TORSDOF 6
ENDMDL
