MODEL 1
REMARK VINA RESULT:      -5.6      0.000      0.000
REMARK  Name = 57346451
REMARK  8 active torsions:
REMARK  status: ('A' for Active; 'I' for Inactive)
REMARK    1  A    between atoms: N_1  and  C1*_8
REMARK    2  A    between atoms: C_3  and  N_23
REMARK    3  A    between atoms: C_5  and  C_19
REMARK    4  A    between atoms: C2*_7  and  O2*_11
REMARK    5  A    between atoms: C3*_9  and  O3*_13
REMARK    6  A    between atoms: C4*_10  and  C5*_15
REMARK    7  A    between atoms: C5*_15  and  O5*_16
REMARK    8  A    between atoms: C_20  and  N_21
REMARK                            x       y       z     vdW  Elec       q    Type
REMARK                         _______ _______ _______ _____ _____    ______ ____
ROOT
ATOM      1  N   UNL     1     -34.728  26.235   4.401  0.00  0.00    -0.211 NA
ATOM      2  N   UNL     1     -33.603  27.347   2.843  0.00  0.00    -0.251 NA
ATOM      3  C   UNL     1     -33.650  26.783   5.038  0.00  0.00    +0.160 C 
ATOM      4  C   UNL     1     -34.657  26.601   3.086  0.00  0.00    +0.204 C 
ATOM      5  C   UNL     1     -32.970  27.465   4.055  0.00  0.00    +0.125 C 
ENDROOT
BRANCH   1   8
ATOM      6  O4* UNL     1     -35.253  24.384   5.895  0.00  0.00    -0.336 OA
ATOM      7  C2* UNL     1     -36.650  24.636   3.964  0.00  0.00    +0.183 C 
ATOM      8  C1* UNL     1     -35.814  25.378   5.014  0.00  0.00    +0.209 C 
ATOM      9  C3* UNL     1     -36.205  23.192   4.095  0.00  0.00    +0.171 C 
ATOM     10  C4* UNL     1     -35.812  23.103   5.563  0.00  0.00    +0.175 C 
BRANCH   7  11
ATOM     11  O2* UNL     1     -38.034  24.750   4.287  0.00  0.00    -0.378 OA
ATOM     12  H2* UNL     1     -38.329  25.661   4.126  0.00  0.00    +0.211 HD
ENDBRANCH   7  11
BRANCH   9  13
ATOM     13  O3* UNL     1     -35.076  22.964   3.260  0.00  0.00    -0.379 OA
ATOM     14  H3* UNL     1     -34.848  23.784   2.794  0.00  0.00    +0.211 HD
ENDBRANCH   9  13
BRANCH  10  15
ATOM     15  C5* UNL     1     -34.811  22.015   5.906  0.00  0.00    +0.169 C 
BRANCH  15  16
ATOM     16  O5* UNL     1     -35.342  20.761   5.507  0.00  0.00    -0.379 OA
ATOM     17  H5* UNL     1     -34.715  20.057   5.735  0.00  0.00    +0.211 HD
ENDBRANCH  15  16
ENDBRANCH  10  15
ENDBRANCH   1   8
BRANCH   5  19
ATOM     18  O   UNL     1     -30.590  27.686   4.029  0.00  0.00    -0.284 OA
ATOM     19  C   UNL     1     -31.781  28.207   4.188  0.00  0.00    +0.229 C 
ATOM     20  C   UNL     1     -31.985  29.539   4.504  0.00  0.00    +0.146 C 
BRANCH  20  21
ATOM     21  N   UNL     1     -30.906  30.507   4.691  0.00  0.00    -0.125 NA
ATOM     22  N   UNL     1     -30.110  31.221   4.830  0.00  0.00    +0.004 NA
ENDBRANCH  20  21
ENDBRANCH   5  19
BRANCH   3  23
ATOM     23  N   UNL     1     -33.432  26.603   6.357  0.00  0.00    -0.305 NA
ATOM     24  H   UNL     1     -32.557  26.278   6.672  0.00  0.00    +0.120 HD
ATOM     25  H   UNL     1     -34.148  26.795   7.006  0.00  0.00    +0.120 HD
ENDBRANCH   3  23
TORSDOF 8
ENDMDL
MODEL 2
REMARK VINA RESULT:      -5.5      3.928      6.791
REMARK  Name = 57346451
REMARK  8 active torsions:
REMARK  status: ('A' for Active; 'I' for Inactive)
REMARK    1  A    between atoms: N_1  and  C1*_8
REMARK    2  A    between atoms: C_3  and  N_23
REMARK    3  A    between atoms: C_5  and  C_19
REMARK    4  A    between atoms: C2*_7  and  O2*_11
REMARK    5  A    between atoms: C3*_9  and  O3*_13
REMARK    6  A    between atoms: C4*_10  and  C5*_15
REMARK    7  A    between atoms: C5*_15  and  O5*_16
REMARK    8  A    between atoms: C_20  and  N_21
REMARK                            x       y       z     vdW  Elec       q    Type
REMARK                         _______ _______ _______ _____ _____    ______ ____
ROOT
ATOM      1  N   UNL     1     -36.801  26.033   2.533  0.00  0.00    -0.211 NA
ATOM      2  N   UNL     1     -38.325  27.021   1.254  0.00  0.00    -0.251 NA
ATOM      3  C   UNL     1     -38.011  25.577   2.973  0.00  0.00    +0.160 C 
ATOM      4  C   UNL     1     -37.039  26.896   1.500  0.00  0.00    +0.204 C 
ATOM      5  C   UNL     1     -38.936  26.200   2.169  0.00  0.00    +0.125 C 
ENDROOT
BRANCH   1   8
ATOM      6  O4* UNL     1     -35.429  24.326   3.597  0.00  0.00    -0.336 OA
ATOM      7  C2* UNL     1     -34.965  26.600   4.192  0.00  0.00    +0.183 C 
ATOM      8  C1* UNL     1     -35.434  25.667   3.069  0.00  0.00    +0.209 C 
ATOM      9  C3* UNL     1     -35.073  25.751   5.444  0.00  0.00    +0.171 C 
ATOM     10  C4* UNL     1     -34.838  24.346   4.907  0.00  0.00    +0.175 C 
BRANCH   7  11
ATOM     11  O2* UNL     1     -33.605  26.969   3.969  0.00  0.00    -0.378 OA
ATOM     12  H2* UNL     1     -33.437  27.837   4.369  0.00  0.00    +0.211 HD
ENDBRANCH   7  11
BRANCH   9  13
ATOM     13  O3* UNL     1     -36.384  25.867   5.985  0.00  0.00    -0.379 OA
ATOM     14  H3* UNL     1     -36.951  25.175   5.610  0.00  0.00    +0.211 HD
ENDBRANCH   9  13
BRANCH  10  15
ATOM     15  C5* UNL     1     -35.426  23.222   5.740  0.00  0.00    +0.169 C 
BRANCH  15  16
ATOM     16  O5* UNL     1     -36.361  22.505   4.951  0.00  0.00    -0.379 OA
ATOM     17  H5* UNL     1     -36.491  21.621   5.326  0.00  0.00    +0.211 HD
ENDBRANCH  15  16
ENDBRANCH  10  15
ENDBRANCH   1   8
BRANCH   5  19
ATOM     18  O   UNL     1     -41.099  26.784   3.003  0.00  0.00    -0.284 OA
ATOM     19  C   UNL     1     -40.338  26.072   2.211  0.00  0.00    +0.229 C 
ATOM     20  C   UNL     1     -40.839  25.123   1.337  0.00  0.00    +0.146 C 
BRANCH  20  21
ATOM     21  N   UNL     1     -42.260  24.811   1.198  0.00  0.00    -0.125 NA
ATOM     22  N   UNL     1     -43.309  24.582   1.097  0.00  0.00    +0.004 NA
ENDBRANCH  20  21
ENDBRANCH   5  19
BRANCH   3  23
ATOM     23  N   UNL     1     -38.115  24.701   3.994  0.00  0.00    -0.305 NA
ATOM     24  H   UNL     1     -37.320  24.471   4.528  0.00  0.00    +0.120 HD
ATOM     25  H   UNL     1     -38.985  24.290   4.204  0.00  0.00    +0.120 HD
ENDBRANCH   3  23
TORSDOF 8
ENDMDL
MODEL 3
REMARK VINA RESULT:      -5.4      4.116      6.641
REMARK  Name = 57346451
REMARK  8 active torsions:
REMARK  status: ('A' for Active; 'I' for Inactive)
REMARK    1  A    between atoms: N_1  and  C1*_8
REMARK    2  A    between atoms: C_3  and  N_23
REMARK    3  A    between atoms: C_5  and  C_19
REMARK    4  A    between atoms: C2*_7  and  O2*_11
REMARK    5  A    between atoms: C3*_9  and  O3*_13
REMARK    6  A    between atoms: C4*_10  and  C5*_15
REMARK    7  A    between atoms: C5*_15  and  O5*_16
REMARK    8  A    between atoms: C_20  and  N_21
REMARK                            x       y       z     vdW  Elec       q    Type
REMARK                         _______ _______ _______ _____ _____    ______ ____
ROOT
ATOM      1  N   UNL     1     -38.320  23.640   2.966  0.00  0.00    -0.211 NA
ATOM      2  N   UNL     1     -40.298  24.043   2.040  0.00  0.00    -0.251 NA
ATOM      3  C   UNL     1     -38.582  24.959   3.205  0.00  0.00    +0.160 C 
ATOM      4  C   UNL     1     -39.377  23.132   2.265  0.00  0.00    +0.204 C 
ATOM      5  C   UNL     1     -39.809  25.185   2.623  0.00  0.00    +0.125 C 
ENDROOT
BRANCH   1   8
ATOM      6  O4* UNL     1     -36.510  23.422   4.581  0.00  0.00    -0.336 OA
ATOM      7  C2* UNL     1     -36.001  22.838   2.313  0.00  0.00    +0.183 C 
ATOM      8  C1* UNL     1     -37.094  22.859   3.389  0.00  0.00    +0.209 C 
ATOM      9  C3* UNL     1     -34.926  23.756   2.864  0.00  0.00    +0.171 C 
ATOM     10  C4* UNL     1     -35.100  23.596   4.368  0.00  0.00    +0.175 C 
BRANCH   7  11
ATOM     11  O2* UNL     1     -35.490  21.514   2.178  0.00  0.00    -0.378 OA
ATOM     12  H2* UNL     1     -36.092  20.990   1.626  0.00  0.00    +0.211 HD
ENDBRANCH   7  11
BRANCH   9  13
ATOM     13  O3* UNL     1     -35.196  25.095   2.469  0.00  0.00    -0.379 OA
ATOM     14  H3* UNL     1     -35.180  25.157   1.501  0.00  0.00    +0.211 HD
ENDBRANCH   9  13
BRANCH  10  15
ATOM     15  C5* UNL     1     -34.605  24.758   5.209  0.00  0.00    +0.169 C 
BRANCH  15  16
ATOM     16  O5* UNL     1     -33.365  25.208   4.687  0.00  0.00    -0.379 OA
ATOM     17  H5* UNL     1     -32.894  24.463   4.284  0.00  0.00    +0.211 HD
ENDBRANCH  15  16
ENDBRANCH  10  15
ENDBRANCH   1   8
BRANCH   5  19
ATOM     18  O   UNL     1     -40.618  27.143   1.517  0.00  0.00    -0.284 OA
ATOM     19  C   UNL     1     -40.534  26.392   2.585  0.00  0.00    +0.229 C 
ATOM     20  C   UNL     1     -41.150  26.712   3.783  0.00  0.00    +0.146 C 
BRANCH  20  21
ATOM     21  N   UNL     1     -41.959  27.912   3.989  0.00  0.00    -0.125 NA
ATOM     22  N   UNL     1     -42.555  28.797   4.141  0.00  0.00    +0.004 NA
ENDBRANCH  20  21
ENDBRANCH   5  19
BRANCH   3  23
ATOM     23  N   UNL     1     -37.722  25.747   3.882  0.00  0.00    -0.305 NA
ATOM     24  H   UNL     1     -38.044  26.574   4.311  0.00  0.00    +0.120 HD
ATOM     25  H   UNL     1     -36.771  25.498   3.947  0.00  0.00    +0.120 HD
ENDBRANCH   3  23
TORSDOF 8
ENDMDL
MODEL 4
REMARK VINA RESULT:      -5.4      4.832      7.987
REMARK  Name = 57346451
REMARK  8 active torsions:
REMARK  status: ('A' for Active; 'I' for Inactive)
REMARK    1  A    between atoms: N_1  and  C1*_8
REMARK    2  A    between atoms: C_3  and  N_23
REMARK    3  A    between atoms: C_5  and  C_19
REMARK    4  A    between atoms: C2*_7  and  O2*_11
REMARK    5  A    between atoms: C3*_9  and  O3*_13
REMARK    6  A    between atoms: C4*_10  and  C5*_15
REMARK    7  A    between atoms: C5*_15  and  O5*_16
REMARK    8  A    between atoms: C_20  and  N_21
REMARK                            x       y       z     vdW  Elec       q    Type
REMARK                         _______ _______ _______ _____ _____    ______ ____
ROOT
ATOM      1  N   UNL     1     -36.846  23.465   1.469  0.00  0.00    -0.211 NA
ATOM      2  N   UNL     1     -38.232  22.867  -0.160  0.00  0.00    -0.251 NA
ATOM      3  C   UNL     1     -37.833  22.735   2.068  0.00  0.00    +0.160 C 
ATOM      4  C   UNL     1     -37.127  23.517   0.132  0.00  0.00    +0.204 C 
ATOM      5  C   UNL     1     -38.677  22.377   1.043  0.00  0.00    +0.125 C 
ENDROOT
BRANCH   1   8
ATOM      6  O4* UNL     1     -35.200  23.323   3.258  0.00  0.00    -0.336 OA
ATOM      7  C2* UNL     1     -35.947  25.520   2.659  0.00  0.00    +0.183 C 
ATOM      8  C1* UNL     1     -35.650  24.109   2.136  0.00  0.00    +0.209 C 
ATOM      9  C3* UNL     1     -35.998  25.350   4.165  0.00  0.00    +0.171 C 
ATOM     10  C4* UNL     1     -35.043  24.187   4.395  0.00  0.00    +0.175 C 
BRANCH   7  11
ATOM     11  O2* UNL     1     -34.878  26.396   2.304  0.00  0.00    -0.378 OA
ATOM     12  H2* UNL     1     -35.204  27.310   2.285  0.00  0.00    +0.211 HD
ENDBRANCH   7  11
BRANCH   9  13
ATOM     13  O3* UNL     1     -37.319  24.998   4.559  0.00  0.00    -0.379 OA
ATOM     14  H3* UNL     1     -37.929  25.716   4.326  0.00  0.00    +0.211 HD
ENDBRANCH   9  13
BRANCH  10  15
ATOM     15  C5* UNL     1     -35.278  23.392   5.666  0.00  0.00    +0.169 C 
BRANCH  15  16
ATOM     16  O5* UNL     1     -35.986  22.206   5.342  0.00  0.00    -0.379 OA
ATOM     17  H5* UNL     1     -36.533  22.360   4.557  0.00  0.00    +0.211 HD
ENDBRANCH  15  16
ENDBRANCH  10  15
ENDBRANCH   1   8
BRANCH   5  19
ATOM     18  O   UNL     1     -40.312  21.119   2.251  0.00  0.00    -0.284 OA
ATOM     19  C   UNL     1     -39.857  21.613   1.127  0.00  0.00    +0.229 C 
ATOM     20  C   UNL     1     -40.495  21.433  -0.088  0.00  0.00    +0.146 C 
BRANCH  20  21
ATOM     21  N   UNL     1     -41.736  20.679  -0.254  0.00  0.00    -0.125 NA
ATOM     22  N   UNL     1     -42.651  20.123  -0.376  0.00  0.00    +0.004 NA
ENDBRANCH  20  21
ENDBRANCH   5  19
BRANCH   3  23
ATOM     23  N   UNL     1     -37.841  22.501   3.397  0.00  0.00    -0.305 NA
ATOM     24  H   UNL     1     -37.147  21.931   3.800  0.00  0.00    +0.120 HD
ATOM     25  H   UNL     1     -38.542  22.899   3.963  0.00  0.00    +0.120 HD
ENDBRANCH   3  23
TORSDOF 8
ENDMDL
MODEL 5
REMARK VINA RESULT:      -5.3      2.362      6.584
REMARK  Name = 57346451
REMARK  8 active torsions:
REMARK  status: ('A' for Active; 'I' for Inactive)
REMARK    1  A    between atoms: N_1  and  C1*_8
REMARK    2  A    between atoms: C_3  and  N_23
REMARK    3  A    between atoms: C_5  and  C_19
REMARK    4  A    between atoms: C2*_7  and  O2*_11
REMARK    5  A    between atoms: C3*_9  and  O3*_13
REMARK    6  A    between atoms: C4*_10  and  C5*_15
REMARK    7  A    between atoms: C5*_15  and  O5*_16
REMARK    8  A    between atoms: C_20  and  N_21
REMARK                            x       y       z     vdW  Elec       q    Type
REMARK                         _______ _______ _______ _____ _____    ______ ____
ROOT
ATOM      1  N   UNL     1     -32.884  27.692   3.799  0.00  0.00    -0.211 NA
ATOM      2  N   UNL     1     -34.713  26.595   3.178  0.00  0.00    -0.251 NA
ATOM      3  C   UNL     1     -33.283  26.979   4.895  0.00  0.00    +0.160 C 
ATOM      4  C   UNL     1     -33.773  27.429   2.794  0.00  0.00    +0.204 C 
ATOM      5  C   UNL     1     -34.414  26.310   4.488  0.00  0.00    +0.125 C 
ENDROOT
BRANCH   1   8
ATOM      6  O4* UNL     1     -30.599  28.138   4.513  0.00  0.00    -0.336 OA
ATOM      7  C2* UNL     1     -31.995  30.047   4.124  0.00  0.00    +0.183 C 
ATOM      8  C1* UNL     1     -31.686  28.608   3.690  0.00  0.00    +0.209 C 
ATOM      9  C3* UNL     1     -31.286  30.188   5.458  0.00  0.00    +0.171 C 
ATOM     10  C4* UNL     1     -30.111  29.232   5.306  0.00  0.00    +0.175 C 
BRANCH   7  11
ATOM     11  O2* UNL     1     -31.441  30.960   3.179  0.00  0.00    -0.378 OA
ATOM     12  H2* UNL     1     -30.583  31.279   3.502  0.00  0.00    +0.211 HD
ENDBRANCH   7  11
BRANCH   9  13
ATOM     13  O3* UNL     1     -32.149  29.758   6.503  0.00  0.00    -0.379 OA
ATOM     14  H3* UNL     1     -32.853  30.413   6.631  0.00  0.00    +0.211 HD
ENDBRANCH   9  13
BRANCH  10  15
ATOM     15  C5* UNL     1     -29.536  28.694   6.603  0.00  0.00    +0.169 C 
BRANCH  15  16
ATOM     16  O5* UNL     1     -29.912  27.334   6.744  0.00  0.00    -0.379 OA
ATOM     17  H5* UNL     1     -30.746  27.278   7.234  0.00  0.00    +0.211 HD
ENDBRANCH  15  16
ENDBRANCH  10  15
ENDBRANCH   1   8
BRANCH   5  19
ATOM     18  O   UNL     1     -36.242  25.834   5.952  0.00  0.00    -0.284 OA
ATOM     19  C   UNL     1     -35.216  25.434   5.245  0.00  0.00    +0.229 C 
ATOM     20  C   UNL     1     -34.819  24.110   5.173  0.00  0.00    +0.146 C 
BRANCH  20  21
ATOM     21  N   UNL     1     -35.494  23.018   5.871  0.00  0.00    -0.125 NA
ATOM     22  N   UNL     1     -35.993  22.212   6.385  0.00  0.00    +0.004 NA
ENDBRANCH  20  21
ENDBRANCH   5  19
BRANCH   3  23
ATOM     23  N   UNL     1     -32.607  27.025   6.062  0.00  0.00    -0.305 NA
ATOM     24  H   UNL     1     -32.416  27.893   6.486  0.00  0.00    +0.120 HD
ATOM     25  H   UNL     1     -32.303  26.191   6.488  0.00  0.00    +0.120 HD
ENDBRANCH   3  23
TORSDOF 8
ENDMDL
MODEL 6
REMARK VINA RESULT:      -5.3      4.702      7.375
REMARK  Name = 57346451
REMARK  8 active torsions:
REMARK  status: ('A' for Active; 'I' for Inactive)
REMARK    1  A    between atoms: N_1  and  C1*_8
REMARK    2  A    between atoms: C_3  and  N_23
REMARK    3  A    between atoms: C_5  and  C_19
REMARK    4  A    between atoms: C2*_7  and  O2*_11
REMARK    5  A    between atoms: C3*_9  and  O3*_13
REMARK    6  A    between atoms: C4*_10  and  C5*_15
REMARK    7  A    between atoms: C5*_15  and  O5*_16
REMARK    8  A    between atoms: C_20  and  N_21
REMARK                            x       y       z     vdW  Elec       q    Type
REMARK                         _______ _______ _______ _____ _____    ______ ____
ROOT
ATOM      1  N   UNL     1     -35.672  22.153   2.673  0.00  0.00    -0.211 NA
ATOM      2  N   UNL     1     -34.453  22.138   0.817  0.00  0.00    -0.251 NA
ATOM      3  C   UNL     1     -35.800  20.897   2.153  0.00  0.00    +0.160 C 
ATOM      4  C   UNL     1     -34.854  22.862   1.838  0.00  0.00    +0.204 C 
ATOM      5  C   UNL     1     -35.039  20.911   1.007  0.00  0.00    +0.125 C 
ENDROOT
BRANCH   1   8
ATOM      6  O4* UNL     1     -36.635  24.085   3.800  0.00  0.00    -0.336 OA
ATOM      7  C2* UNL     1     -35.392  22.556   5.164  0.00  0.00    +0.183 C 
ATOM      8  C1* UNL     1     -36.305  22.688   3.939  0.00  0.00    +0.209 C 
ATOM      9  C3* UNL     1     -34.946  23.978   5.445  0.00  0.00    +0.171 C 
ATOM     10  C4* UNL     1     -36.126  24.796   4.941  0.00  0.00    +0.175 C 
BRANCH   7  11
ATOM     11  O2* UNL     1     -36.143  22.054   6.268  0.00  0.00    -0.378 OA
ATOM     12  H2* UNL     1     -37.091  22.119   6.069  0.00  0.00    +0.211 HD
ENDBRANCH   7  11
BRANCH   9  13
ATOM     13  O3* UNL     1     -33.777  24.268   4.688  0.00  0.00    -0.379 OA
ATOM     14  H3* UNL     1     -34.031  24.664   3.839  0.00  0.00    +0.211 HD
ENDBRANCH   9  13
BRANCH  10  15
ATOM     15  C5* UNL     1     -35.807  26.225   4.540  0.00  0.00    +0.169 C 
BRANCH  15  16
ATOM     16  O5* UNL     1     -34.785  26.722   5.389  0.00  0.00    -0.379 OA
ATOM     17  H5* UNL     1     -33.927  26.373   5.102  0.00  0.00    +0.211 HD
ENDBRANCH  15  16
ENDBRANCH  10  15
ENDBRANCH   1   8
BRANCH   5  19
ATOM     18  O   UNL     1     -35.571  18.774   0.077  0.00  0.00    -0.284 OA
ATOM     19  C   UNL     1     -34.834  19.856   0.096  0.00  0.00    +0.229 C 
ATOM     20  C   UNL     1     -33.782  20.068  -0.778  0.00  0.00    +0.146 C 
BRANCH  20  21
ATOM     21  N   UNL     1     -33.378  19.119  -1.813  0.00  0.00    -0.125 NA
ATOM     22  N   UNL     1     -33.080  18.418  -2.576  0.00  0.00    +0.004 NA
ENDBRANCH  20  21
ENDBRANCH   5  19
BRANCH   3  23
ATOM     23  N   UNL     1     -36.551  19.949   2.751  0.00  0.00    -0.305 NA
ATOM     24  H   UNL     1     -37.447  20.174   3.093  0.00  0.00    +0.120 HD
ATOM     25  H   UNL     1     -36.203  19.032   2.848  0.00  0.00    +0.120 HD
ENDBRANCH   3  23
TORSDOF 8
ENDMDL
MODEL 7
REMARK VINA RESULT:      -5.3      3.422      5.071
REMARK  Name = 57346451
REMARK  8 active torsions:
REMARK  status: ('A' for Active; 'I' for Inactive)
REMARK    1  A    between atoms: N_1  and  C1*_8
REMARK    2  A    between atoms: C_3  and  N_23
REMARK    3  A    between atoms: C_5  and  C_19
REMARK    4  A    between atoms: C2*_7  and  O2*_11
REMARK    5  A    between atoms: C3*_9  and  O3*_13
REMARK    6  A    between atoms: C4*_10  and  C5*_15
REMARK    7  A    between atoms: C5*_15  and  O5*_16
REMARK    8  A    between atoms: C_20  and  N_21
REMARK                            x       y       z     vdW  Elec       q    Type
REMARK                         _______ _______ _______ _____ _____    ______ ____
ROOT
ATOM      1  N   UNL     1     -38.129  23.563   3.040  0.00  0.00    -0.211 NA
ATOM      2  N   UNL     1     -37.404  25.460   3.939  0.00  0.00    -0.251 NA
ATOM      3  C   UNL     1     -36.917  23.272   3.600  0.00  0.00    +0.160 C 
ATOM      4  C   UNL     1     -38.379  24.887   3.269  0.00  0.00    +0.204 C 
ATOM      5  C   UNL     1     -36.489  24.458   4.149  0.00  0.00    +0.125 C 
ENDROOT
BRANCH   1   8
ATOM      6  O4* UNL     1     -38.434  21.318   2.146  0.00  0.00    -0.336 OA
ATOM      7  C2* UNL     1     -39.409  23.114   0.894  0.00  0.00    +0.183 C 
ATOM      8  C1* UNL     1     -39.046  22.615   2.298  0.00  0.00    +0.209 C 
ATOM      9  C3* UNL     1     -38.627  22.203  -0.033  0.00  0.00    +0.171 C 
ATOM     10  C4* UNL     1     -38.542  20.913   0.772  0.00  0.00    +0.175 C 
BRANCH   7  11
ATOM     11  O2* UNL     1     -40.809  22.947   0.675  0.00  0.00    -0.378 OA
ATOM     12  H2* UNL     1     -41.028  22.002   0.699  0.00  0.00    +0.211 HD
ENDBRANCH   7  11
BRANCH   9  13
ATOM     13  O3* UNL     1     -37.330  22.744  -0.248  0.00  0.00    -0.379 OA
ATOM     14  H3* UNL     1     -37.401  23.557  -0.772  0.00  0.00    +0.211 HD
ENDBRANCH   9  13
BRANCH  10  15
ATOM     15  C5* UNL     1     -37.380  20.002   0.424  0.00  0.00    +0.169 C 
BRANCH  15  16
ATOM     16  O5* UNL     1     -36.828  19.483   1.623  0.00  0.00    -0.379 OA
ATOM     17  H5* UNL     1     -36.371  18.649   1.435  0.00  0.00    +0.211 HD
ENDBRANCH  15  16
ENDBRANCH  10  15
ENDBRANCH   1   8
BRANCH   5  19
ATOM     18  O   UNL     1     -34.443  23.754   5.166  0.00  0.00    -0.284 OA
ATOM     19  C   UNL     1     -35.290  24.700   4.846  0.00  0.00    +0.229 C 
ATOM     20  C   UNL     1     -35.087  26.032   5.165  0.00  0.00    +0.146 C 
BRANCH  20  21
ATOM     21  N   UNL     1     -33.916  26.529   5.885  0.00  0.00    -0.125 NA
ATOM     22  N   UNL     1     -33.053  26.895   6.416  0.00  0.00    +0.004 NA
ENDBRANCH  20  21
ENDBRANCH   5  19
BRANCH   3  23
ATOM     23  N   UNL     1     -36.383  22.034   3.543  0.00  0.00    -0.305 NA
ATOM     24  H   UNL     1     -36.440  21.511   2.711  0.00  0.00    +0.120 HD
ATOM     25  H   UNL     1     -35.938  21.652   4.335  0.00  0.00    +0.120 HD
ENDBRANCH   3  23
TORSDOF 8
ENDMDL
MODEL 8
REMARK VINA RESULT:      -5.3      3.300      5.194
REMARK  Name = 57346451
REMARK  8 active torsions:
REMARK  status: ('A' for Active; 'I' for Inactive)
REMARK    1  A    between atoms: N_1  and  C1*_8
REMARK    2  A    between atoms: C_3  and  N_23
REMARK    3  A    between atoms: C_5  and  C_19
REMARK    4  A    between atoms: C2*_7  and  O2*_11
REMARK    5  A    between atoms: C3*_9  and  O3*_13
REMARK    6  A    between atoms: C4*_10  and  C5*_15
REMARK    7  A    between atoms: C5*_15  and  O5*_16
REMARK    8  A    between atoms: C_20  and  N_21
REMARK                            x       y       z     vdW  Elec       q    Type
REMARK                         _______ _______ _______ _____ _____    ______ ____
ROOT
ATOM      1  N   UNL     1     -37.151  24.601   2.549  0.00  0.00    -0.211 NA
ATOM      2  N   UNL     1     -35.273  24.266   3.687  0.00  0.00    -0.251 NA
ATOM      3  C   UNL     1     -36.720  25.839   2.931  0.00  0.00    +0.160 C 
ATOM      4  C   UNL     1     -36.251  23.689   3.025  0.00  0.00    +0.204 C 
ATOM      5  C   UNL     1     -35.559  25.608   3.632  0.00  0.00    +0.125 C 
ENDROOT
BRANCH   1   8
ATOM      6  O4* UNL     1     -38.705  25.330   0.822  0.00  0.00    -0.336 OA
ATOM      7  C2* UNL     1     -39.628  24.052   2.626  0.00  0.00    +0.183 C 
ATOM      8  C1* UNL     1     -38.391  24.270   1.747  0.00  0.00    +0.209 C 
ATOM      9  C3* UNL     1     -40.473  25.288   2.383  0.00  0.00    +0.171 C 
ATOM     10  C4* UNL     1     -40.095  25.667   0.959  0.00  0.00    +0.175 C 
BRANCH   7  11
ATOM     11  O2* UNL     1     -40.328  22.889   2.187  0.00  0.00    -0.378 OA
ATOM     12  H2* UNL     1     -40.288  22.209   2.878  0.00  0.00    +0.211 HD
ENDBRANCH   7  11
BRANCH   9  13
ATOM     13  O3* UNL     1     -40.090  26.312   3.293  0.00  0.00    -0.379 OA
ATOM     14  H3* UNL     1     -40.638  27.099   3.144  0.00  0.00    +0.211 HD
ENDBRANCH   9  13
BRANCH  10  15
ATOM     15  C5* UNL     1     -40.295  27.128   0.597  0.00  0.00    +0.169 C 
BRANCH  15  16
ATOM     16  O5* UNL     1     -39.026  27.752   0.486  0.00  0.00    -0.379 OA
ATOM     17  H5* UNL     1     -39.112  28.698   0.678  0.00  0.00    +0.211 HD
ENDBRANCH  15  16
ENDBRANCH  10  15
ENDBRANCH   1   8
BRANCH   5  19
ATOM     18  O   UNL     1     -34.632  27.801   3.841  0.00  0.00    -0.284 OA
ATOM     19  C   UNL     1     -34.718  26.558   4.243  0.00  0.00    +0.229 C 
ATOM     20  C   UNL     1     -33.990  26.058   5.309  0.00  0.00    +0.146 C 
BRANCH  20  21
ATOM     21  N   UNL     1     -33.053  26.852   6.101  0.00  0.00    -0.125 NA
ATOM     22  N   UNL     1     -32.360  27.437   6.684  0.00  0.00    +0.004 NA
ENDBRANCH  20  21
ENDBRANCH   5  19
BRANCH   3  23
ATOM     23  N   UNL     1     -37.398  26.962   2.613  0.00  0.00    -0.305 NA
ATOM     24  H   UNL     1     -36.916  27.745   2.260  0.00  0.00    +0.120 HD
ATOM     25  H   UNL     1     -38.375  26.998   2.734  0.00  0.00    +0.120 HD
ENDBRANCH   3  23
TORSDOF 8
ENDMDL
MODEL 9
REMARK VINA RESULT:      -5.2      2.550      6.977
REMARK  Name = 57346451
REMARK  8 active torsions:
REMARK  status: ('A' for Active; 'I' for Inactive)
REMARK    1  A    between atoms: N_1  and  C1*_8
REMARK    2  A    between atoms: C_3  and  N_23
REMARK    3  A    between atoms: C_5  and  C_19
REMARK    4  A    between atoms: C2*_7  and  O2*_11
REMARK    5  A    between atoms: C3*_9  and  O3*_13
REMARK    6  A    between atoms: C4*_10  and  C5*_15
REMARK    7  A    between atoms: C5*_15  and  O5*_16
REMARK    8  A    between atoms: C_20  and  N_21
REMARK                            x       y       z     vdW  Elec       q    Type
REMARK                         _______ _______ _______ _____ _____    ______ ____
ROOT
ATOM      1  N   UNL     1     -31.858  27.832   5.391  0.00  0.00    -0.211 NA
ATOM      2  N   UNL     1     -33.289  26.913   6.819  0.00  0.00    -0.251 NA
ATOM      3  C   UNL     1     -32.817  27.234   4.625  0.00  0.00    +0.160 C 
ATOM      4  C   UNL     1     -32.183  27.613   6.700  0.00  0.00    +0.204 C 
ATOM      5  C   UNL     1     -33.690  26.672   5.528  0.00  0.00    +0.125 C 
ENDROOT
BRANCH   1   8
ATOM      6  O4* UNL     1     -29.795  27.768   4.099  0.00  0.00    -0.336 OA
ATOM      7  C2* UNL     1     -29.793  29.151   6.056  0.00  0.00    +0.183 C 
ATOM      8  C1* UNL     1     -30.649  28.603   4.907  0.00  0.00    +0.209 C 
ATOM      9  C3* UNL     1     -28.553  28.278   6.040  0.00  0.00    +0.171 C 
ATOM     10  C4* UNL     1     -28.443  27.894   4.572  0.00  0.00    +0.175 C 
BRANCH   7  11
ATOM     11  O2* UNL     1     -29.439  30.506   5.782  0.00  0.00    -0.378 OA
ATOM     12  H2* UNL     1     -28.613  30.723   6.244  0.00  0.00    +0.211 HD
ENDBRANCH   7  11
BRANCH   9  13
ATOM     13  O3* UNL     1     -28.774  27.126   6.844  0.00  0.00    -0.379 OA
ATOM     14  H3* UNL     1     -29.242  26.453   6.324  0.00  0.00    +0.211 HD
ENDBRANCH   9  13
BRANCH  10  15
ATOM     15  C5* UNL     1     -27.691  26.606   4.289  0.00  0.00    +0.169 C 
BRANCH  15  16
ATOM     16  O5* UNL     1     -28.456  25.814   3.395  0.00  0.00    -0.379 OA
ATOM     17  H5* UNL     1     -29.381  25.801   3.685  0.00  0.00    +0.211 HD
ENDBRANCH  15  16
ENDBRANCH  10  15
ENDBRANCH   1   8
BRANCH   5  19
ATOM     18  O   UNL     1     -36.049  26.477   5.196  0.00  0.00    -0.284 OA
ATOM     19  C   UNL     1     -34.858  25.936   5.253  0.00  0.00    +0.229 C 
ATOM     20  C   UNL     1     -34.633  24.586   5.046  0.00  0.00    +0.146 C 
BRANCH  20  21
ATOM     21  N   UNL     1     -35.687  23.620   4.744  0.00  0.00    -0.125 NA
ATOM     22  N   UNL     1     -36.466  22.908   4.520  0.00  0.00    +0.004 NA
ENDBRANCH  20  21
ENDBRANCH   5  19
BRANCH   3  23
ATOM     23  N   UNL     1     -32.781  27.271   3.276  0.00  0.00    -0.305 NA
ATOM     24  H   UNL     1     -32.230  27.947   2.817  0.00  0.00    +0.120 HD
ATOM     25  H   UNL     1     -33.304  26.623   2.751  0.00  0.00    +0.120 HD
ENDBRANCH   3  23
TORSDOF 8
ENDMDL
