MODEL 1
REMARK VINA RESULT:      -6.7      0.000      0.000
REMARK  Name = 196458
REMARK  7 active torsions:
REMARK  status: ('A' for Active; 'I' for Inactive)
REMARK    1  A    between atoms: C_4  and  C_7
REMARK    2  A    between atoms: C_5  and  C_20
REMARK    3  A    between atoms: C_7  and  N_9
REMARK    4  A    between atoms: N_9  and  C_11
REMARK    5  A    between atoms: C_16  and  N_19
REMARK    6  A    between atoms: C_20  and  N_23
REMARK    7  A    between atoms: C_24  and  C_29
REMARK                            x       y       z     vdW  Elec       q    Type
REMARK                         _______ _______ _______ _____ _____    ______ ____
ROOT
ATOM      1  O   UNL     1     -40.315  23.166   1.946  0.00  0.00    -0.273 OA
ATOM      2  O   UNL     1     -38.707  20.980   1.255  0.00  0.00    -0.273 OA
ATOM      3  N   UNL     1     -38.058  22.872   2.453  0.00  0.00    -0.253 N 
ATOM      4  C   UNL     1     -39.273  23.562   2.463  0.00  0.00    +0.246 C 
ATOM      5  C   UNL     1     -37.850  21.628   1.852  0.00  0.00    +0.246 C 
ATOM      6  H   UNL     1     -37.291  23.293   2.903  0.00  0.00    +0.158 HD
ENDROOT
BRANCH   4   7
ATOM      7  C   UNL     1     -39.168  24.886   3.208  0.00  0.00    +0.147 C 
ATOM      8  C   UNL     1     -40.476  25.660   3.118  0.00  0.00    +0.031 C 
BRANCH   7   9
ATOM      9  N   UNL     1     -38.101  25.673   2.630  0.00  0.00    -0.327 N 
ATOM     10  H   UNL     1     -38.219  26.015   1.715  0.00  0.00    +0.147 HD
BRANCH   9  11
ATOM     11  C   UNL     1     -36.922  25.969   3.293  0.00  0.00    +0.045 C 
ATOM     12  C   UNL     1     -36.784  25.652   4.644  0.00  0.00    +0.016 C 
ATOM     13  C   UNL     1     -35.873  26.583   2.610  0.00  0.00    +0.016 C 
ATOM     14  C   UNL     1     -35.597  25.949   5.313  0.00  0.00    +0.025 C 
ATOM     15  C   UNL     1     -34.685  26.880   3.278  0.00  0.00    +0.025 C 
ATOM     16  C   UNL     1     -34.547  26.563   4.629  0.00  0.00    +0.143 C 
BRANCH  16  19
ATOM     17  O   UNL     1     -32.295  27.061   4.639  0.00  0.00    -0.126 OA
ATOM     18  O   UNL     1     -33.345  26.929   6.563  0.00  0.00    -0.126 OA
ATOM     19  N   UNL     1     -33.338  26.866   5.310  0.00  0.00    +0.058 N 
ENDBRANCH  16  19
ENDBRANCH   9  11
ENDBRANCH   7   9
ENDBRANCH   4   7
BRANCH   5  20
ATOM     20  C   UNL     1     -36.429  21.123   2.068  0.00  0.00    +0.149 C 
ATOM     21  C   UNL     1     -36.258  19.720   1.509  0.00  0.00    +0.031 C 
BRANCH  20  23
ATOM     22  O   UNL     1     -34.894  23.119   3.521  0.00  0.00    -0.266 OA
ATOM     23  N   UNL     1     -36.146  21.156   3.479  0.00  0.00    -0.291 N 
ATOM     24  C   UNL     1     -35.400  22.155   4.087  0.00  0.00    +0.318 C 
ATOM     25  H   UNL     1     -36.502  20.431   4.042  0.00  0.00    +0.150 HD
BRANCH  24  29
ATOM     26  F   UNL     1     -33.963  22.004   5.965  0.00  0.00    -0.162 F 
ATOM     27  F   UNL     1     -35.725  20.720   5.947  0.00  0.00    -0.162 F 
ATOM     28  F   UNL     1     -35.941  22.862   6.285  0.00  0.00    -0.162 F 
ATOM     29  C   UNL     1     -35.259  21.936   5.565  0.00  0.00    +0.469 C 
ENDBRANCH  24  29
ENDBRANCH  20  23
ENDBRANCH   5  20
TORSDOF 7
ENDMDL
MODEL 2
REMARK VINA RESULT:      -6.7      4.030      6.784
REMARK  Name = 196458
REMARK  7 active torsions:
REMARK  status: ('A' for Active; 'I' for Inactive)
REMARK    1  A    between atoms: C_4  and  C_7
REMARK    2  A    between atoms: C_5  and  C_20
REMARK    3  A    between atoms: C_7  and  N_9
REMARK    4  A    between atoms: N_9  and  C_11
REMARK    5  A    between atoms: C_16  and  N_19
REMARK    6  A    between atoms: C_20  and  N_23
REMARK    7  A    between atoms: C_24  and  C_29
REMARK                            x       y       z     vdW  Elec       q    Type
REMARK                         _______ _______ _______ _____ _____    ______ ____
ROOT
ATOM      1  O   UNL     1     -37.608  21.563   1.361  0.00  0.00    -0.273 OA
ATOM      2  O   UNL     1     -37.243  22.983   3.748  0.00  0.00    -0.273 OA
ATOM      3  N   UNL     1     -35.779  21.434   2.801  0.00  0.00    -0.253 N 
ATOM      4  C   UNL     1     -36.511  21.097   1.660  0.00  0.00    +0.246 C 
ATOM      5  C   UNL     1     -36.187  22.353   3.771  0.00  0.00    +0.246 C 
ATOM      6  H   UNL     1     -34.910  20.992   2.932  0.00  0.00    +0.158 HD
ENDROOT
BRANCH   4   7
ATOM      7  C   UNL     1     -35.785  20.071   0.801  0.00  0.00    +0.147 C 
ATOM      8  C   UNL     1     -36.747  18.999   0.312  0.00  0.00    +0.031 C 
BRANCH   7   9
ATOM      9  N   UNL     1     -34.734  19.457   1.583  0.00  0.00    -0.327 N 
ATOM     10  H   UNL     1     -34.957  19.125   2.482  0.00  0.00    +0.147 HD
BRANCH   9  11
ATOM     11  C   UNL     1     -33.432  19.311   1.135  0.00  0.00    +0.045 C 
ATOM     12  C   UNL     1     -32.839  20.320   0.376  0.00  0.00    +0.016 C 
ATOM     13  C   UNL     1     -32.713  18.157   1.445  0.00  0.00    +0.016 C 
ATOM     14  C   UNL     1     -31.526  20.174  -0.074  0.00  0.00    +0.025 C 
ATOM     15  C   UNL     1     -31.400  18.011   0.996  0.00  0.00    +0.025 C 
ATOM     16  C   UNL     1     -30.807  19.020   0.237  0.00  0.00    +0.143 C 
BRANCH  16  19
ATOM     17  O   UNL     1     -29.025  17.718  -0.432  0.00  0.00    -0.126 OA
ATOM     18  O   UNL     1     -28.773  19.898  -0.402  0.00  0.00    -0.126 OA
ATOM     19  N   UNL     1     -29.471  18.872  -0.221  0.00  0.00    +0.058 N 
ENDBRANCH  16  19
ENDBRANCH   9  11
ENDBRANCH   7   9
ENDBRANCH   4   7
BRANCH   5  20
ATOM     20  C   UNL     1     -35.136  22.535   4.859  0.00  0.00    +0.149 C 
ATOM     21  C   UNL     1     -35.361  21.559   6.003  0.00  0.00    +0.031 C 
BRANCH  20  23
ATOM     22  O   UNL     1     -33.325  24.711   4.201  0.00  0.00    -0.266 OA
ATOM     23  N   UNL     1     -35.196  23.897   5.323  0.00  0.00    -0.291 N 
ATOM     24  C   UNL     1     -34.282  24.872   4.953  0.00  0.00    +0.318 C 
ATOM     25  H   UNL     1     -35.925  24.149   5.934  0.00  0.00    +0.150 HD
BRANCH  24  29
ATOM     26  F   UNL     1     -35.859  26.268   6.039  0.00  0.00    -0.162 F 
ATOM     27  F   UNL     1     -34.415  27.228   4.717  0.00  0.00    -0.162 F 
ATOM     28  F   UNL     1     -33.774  26.449   6.650  0.00  0.00    -0.162 F 
ATOM     29  C   UNL     1     -34.581  26.199   5.587  0.00  0.00    +0.469 C 
ENDBRANCH  24  29
ENDBRANCH  20  23
ENDBRANCH   5  20
TORSDOF 7
ENDMDL
MODEL 3
REMARK VINA RESULT:      -6.6      3.566      5.302
REMARK  Name = 196458
REMARK  7 active torsions:
REMARK  status: ('A' for Active; 'I' for Inactive)
REMARK    1  A    between atoms: C_4  and  C_7
REMARK    2  A    between atoms: C_5  and  C_20
REMARK    3  A    between atoms: C_7  and  N_9
REMARK    4  A    between atoms: N_9  and  C_11
REMARK    5  A    between atoms: C_16  and  N_19
REMARK    6  A    between atoms: C_20  and  N_23
REMARK    7  A    between atoms: C_24  and  C_29
REMARK                            x       y       z     vdW  Elec       q    Type
REMARK                         _______ _______ _______ _____ _____    ______ ____
ROOT
ATOM      1  O   UNL     1     -35.027  28.200   2.916  0.00  0.00    -0.273 OA
ATOM      2  O   UNL     1     -37.199  26.579   2.208  0.00  0.00    -0.273 OA
ATOM      3  N   UNL     1     -35.394  25.990   3.562  0.00  0.00    -0.253 N 
ATOM      4  C   UNL     1     -34.682  27.192   3.528  0.00  0.00    +0.246 C 
ATOM      5  C   UNL     1     -36.603  25.758   2.903  0.00  0.00    +0.246 C 
ATOM      6  H   UNL     1     -35.015  25.252   4.090  0.00  0.00    +0.158 HD
ENDROOT
BRANCH   4   7
ATOM      7  C   UNL     1     -33.408  27.122   4.358  0.00  0.00    +0.147 C 
ATOM      8  C   UNL     1     -33.664  26.416   5.681  0.00  0.00    +0.031 C 
BRANCH   7   9
ATOM      9  N   UNL     1     -32.933  28.465   4.611  0.00  0.00    -0.327 N 
ATOM     10  H   UNL     1     -33.470  29.219   4.278  0.00  0.00    +0.147 HD
BRANCH   9  11
ATOM     11  C   UNL     1     -31.763  28.747   5.296  0.00  0.00    +0.045 C 
ATOM     12  C   UNL     1     -30.531  28.400   4.743  0.00  0.00    +0.016 C 
ATOM     13  C   UNL     1     -31.817  29.380   6.538  0.00  0.00    +0.016 C 
ATOM     14  C   UNL     1     -29.352  28.685   5.433  0.00  0.00    +0.025 C 
ATOM     15  C   UNL     1     -30.639  29.666   7.227  0.00  0.00    +0.025 C 
ATOM     16  C   UNL     1     -29.406  29.319   6.674  0.00  0.00    +0.143 C 
BRANCH  16  19
ATOM     17  O   UNL     1     -27.168  29.875   6.722  0.00  0.00    -0.126 OA
ATOM     18  O   UNL     1     -28.216  29.593   8.630  0.00  0.00    -0.126 OA
ATOM     19  N   UNL     1     -28.206  29.610   7.375  0.00  0.00    +0.058 N 
ENDBRANCH  16  19
ENDBRANCH   9  11
ENDBRANCH   7   9
ENDBRANCH   4   7
BRANCH   5  20
ATOM     20  C   UNL     1     -37.147  24.363   3.188  0.00  0.00    +0.149 C 
ATOM     21  C   UNL     1     -38.663  24.382   3.298  0.00  0.00    +0.031 C 
BRANCH  20  23
ATOM     22  O   UNL     1     -35.745  21.850   3.600  0.00  0.00    -0.266 OA
ATOM     23  N   UNL     1     -36.545  23.883   4.405  0.00  0.00    -0.291 N 
ATOM     24  C   UNL     1     -35.894  22.663   4.507  0.00  0.00    +0.318 C 
ATOM     25  H   UNL     1     -36.599  24.452   5.207  0.00  0.00    +0.150 HD
BRANCH  24  29
ATOM     26  F   UNL     1     -36.273  21.768   6.668  0.00  0.00    -0.162 F 
ATOM     27  F   UNL     1     -35.054  23.571   6.530  0.00  0.00    -0.162 F 
ATOM     28  F   UNL     1     -34.244  21.654   5.880  0.00  0.00    -0.162 F 
ATOM     29  C   UNL     1     -35.368  22.415   5.890  0.00  0.00    +0.469 C 
ENDBRANCH  24  29
ENDBRANCH  20  23
ENDBRANCH   5  20
TORSDOF 7
ENDMDL
MODEL 4
REMARK VINA RESULT:      -6.6      3.959      6.638
REMARK  Name = 196458
REMARK  7 active torsions:
REMARK  status: ('A' for Active; 'I' for Inactive)
REMARK    1  A    between atoms: C_4  and  C_7
REMARK    2  A    between atoms: C_5  and  C_20
REMARK    3  A    between atoms: C_7  and  N_9
REMARK    4  A    between atoms: N_9  and  C_11
REMARK    5  A    between atoms: C_16  and  N_19
REMARK    6  A    between atoms: C_20  and  N_23
REMARK    7  A    between atoms: C_24  and  C_29
REMARK                            x       y       z     vdW  Elec       q    Type
REMARK                         _______ _______ _______ _____ _____    ______ ____
ROOT
ATOM      1  O   UNL     1     -34.368  24.893   0.095  0.00  0.00    -0.273 OA
ATOM      2  O   UNL     1     -36.247  25.589   2.052  0.00  0.00    -0.273 OA
ATOM      3  N   UNL     1     -35.756  23.443   1.281  0.00  0.00    -0.253 N 
ATOM      4  C   UNL     1     -34.770  23.758   0.343  0.00  0.00    +0.246 C 
ATOM      5  C   UNL     1     -36.431  24.374   2.075  0.00  0.00    +0.246 C 
ATOM      6  H   UNL     1     -35.993  22.495   1.392  0.00  0.00    +0.158 HD
ENDROOT
BRANCH   4   7
ATOM      7  C   UNL     1     -34.225  22.517  -0.349  0.00  0.00    +0.147 C 
ATOM      8  C   UNL     1     -35.021  22.209  -1.609  0.00  0.00    +0.031 C 
BRANCH   7   9
ATOM      9  N   UNL     1     -34.307  21.394   0.559  0.00  0.00    -0.327 N 
ATOM     10  H   UNL     1     -35.082  21.339   1.163  0.00  0.00    +0.147 HD
BRANCH   9  11
ATOM     11  C   UNL     1     -33.354  20.392   0.626  0.00  0.00    +0.045 C 
ATOM     12  C   UNL     1     -32.130  20.550  -0.025  0.00  0.00    +0.016 C 
ATOM     13  C   UNL     1     -33.616  19.226   1.345  0.00  0.00    +0.016 C 
ATOM     14  C   UNL     1     -31.169  19.541   0.043  0.00  0.00    +0.025 C 
ATOM     15  C   UNL     1     -32.654  18.218   1.414  0.00  0.00    +0.025 C 
ATOM     16  C   UNL     1     -31.431  18.376   0.763  0.00  0.00    +0.143 C 
BRANCH  16  19
ATOM     17  O   UNL     1     -30.767  16.185   0.489  0.00  0.00    -0.126 OA
ATOM     18  O   UNL     1     -29.299  17.635   1.236  0.00  0.00    -0.126 OA
ATOM     19  N   UNL     1     -30.452  17.349   0.833  0.00  0.00    +0.058 N 
ENDBRANCH  16  19
ENDBRANCH   9  11
ENDBRANCH   7   9
ENDBRANCH   4   7
BRANCH   5  20
ATOM     20  C   UNL     1     -37.406  23.701   3.034  0.00  0.00    +0.149 C 
ATOM     21  C   UNL     1     -38.640  24.562   3.249  0.00  0.00    +0.031 C 
BRANCH  20  23
ATOM     22  O   UNL     1     -35.529  21.564   3.633  0.00  0.00    -0.266 OA
ATOM     23  N   UNL     1     -36.722  23.457   4.277  0.00  0.00    -0.291 N 
ATOM     24  C   UNL     1     -35.839  22.405   4.471  0.00  0.00    +0.318 C 
ATOM     25  H   UNL     1     -36.891  24.070   5.029  0.00  0.00    +0.150 HD
BRANCH  24  29
ATOM     26  F   UNL     1     -34.949  23.632   6.292  0.00  0.00    -0.162 F 
ATOM     27  F   UNL     1     -34.150  21.633   5.945  0.00  0.00    -0.162 F 
ATOM     28  F   UNL     1     -36.156  21.880   6.762  0.00  0.00    -0.162 F 
ATOM     29  C   UNL     1     -35.276  22.387   5.861  0.00  0.00    +0.469 C 
ENDBRANCH  24  29
ENDBRANCH  20  23
ENDBRANCH   5  20
TORSDOF 7
ENDMDL
MODEL 5
REMARK VINA RESULT:      -6.5      4.218      7.122
REMARK  Name = 196458
REMARK  7 active torsions:
REMARK  status: ('A' for Active; 'I' for Inactive)
REMARK    1  A    between atoms: C_4  and  C_7
REMARK    2  A    between atoms: C_5  and  C_20
REMARK    3  A    between atoms: C_7  and  N_9
REMARK    4  A    between atoms: N_9  and  C_11
REMARK    5  A    between atoms: C_16  and  N_19
REMARK    6  A    between atoms: C_20  and  N_23
REMARK    7  A    between atoms: C_24  and  C_29
REMARK                            x       y       z     vdW  Elec       q    Type
REMARK                         _______ _______ _______ _____ _____    ______ ____
ROOT
ATOM      1  O   UNL     1     -35.351  20.657   4.211  0.00  0.00    -0.273 OA
ATOM      2  O   UNL     1     -35.838  22.977   5.703  0.00  0.00    -0.273 OA
ATOM      3  N   UNL     1     -35.861  22.775   3.380  0.00  0.00    -0.253 N 
ATOM      4  C   UNL     1     -35.553  21.417   3.267  0.00  0.00    +0.246 C 
ATOM      5  C   UNL     1     -35.984  23.469   4.586  0.00  0.00    +0.246 C 
ATOM      6  H   UNL     1     -36.002  23.281   2.548  0.00  0.00    +0.158 HD
ENDROOT
BRANCH   4   7
ATOM      7  C   UNL     1     -35.501  20.965   1.814  0.00  0.00    +0.147 C 
ATOM      8  C   UNL     1     -36.903  20.860   1.232  0.00  0.00    +0.031 C 
BRANCH   7   9
ATOM      9  N   UNL     1     -34.851  19.675   1.742  0.00  0.00    -0.327 N 
ATOM     10  H   UNL     1     -35.337  18.889   2.081  0.00  0.00    +0.147 HD
BRANCH   9  11
ATOM     11  C   UNL     1     -33.581  19.485   1.224  0.00  0.00    +0.045 C 
ATOM     12  C   UNL     1     -32.876  18.318   1.517  0.00  0.00    +0.016 C 
ATOM     13  C   UNL     1     -33.008  20.459   0.407  0.00  0.00    +0.016 C 
ATOM     14  C   UNL     1     -31.597  18.125   0.994  0.00  0.00    +0.025 C 
ATOM     15  C   UNL     1     -31.729  20.267  -0.117  0.00  0.00    +0.025 C 
ATOM     16  C   UNL     1     -31.024  19.100   0.177  0.00  0.00    +0.143 C 
BRANCH  16  19
ATOM     17  O   UNL     1     -28.894  19.845  -0.299  0.00  0.00    -0.126 OA
ATOM     18  O   UNL     1     -29.436  17.795  -0.869  0.00  0.00    -0.126 OA
ATOM     19  N   UNL     1     -29.722  18.904  -0.356  0.00  0.00    +0.058 N 
ENDBRANCH  16  19
ENDBRANCH   9  11
ENDBRANCH   7   9
ENDBRANCH   4   7
BRANCH   5  20
ATOM     20  C   UNL     1     -36.382  24.923   4.366  0.00  0.00    +0.149 C 
ATOM     21  C   UNL     1     -35.984  25.783   5.555  0.00  0.00    +0.031 C 
BRANCH  20  23
ATOM     22  O   UNL     1     -37.788  24.712   1.830  0.00  0.00    -0.266 OA
ATOM     23  N   UNL     1     -37.804  24.975   4.144  0.00  0.00    -0.291 N 
ATOM     24  C   UNL     1     -38.387  24.864   2.891  0.00  0.00    +0.318 C 
ATOM     25  H   UNL     1     -38.393  25.094   4.924  0.00  0.00    +0.150 HD
BRANCH  24  29
ATOM     26  F   UNL     1     -40.334  26.167   2.532  0.00  0.00    -0.162 F 
ATOM     27  F   UNL     1     -40.354  24.778   4.213  0.00  0.00    -0.162 F 
ATOM     28  F   UNL     1     -40.485  24.022   2.172  0.00  0.00    -0.162 F 
ATOM     29  C   UNL     1     -39.884  24.957   2.952  0.00  0.00    +0.469 C 
ENDBRANCH  24  29
ENDBRANCH  20  23
ENDBRANCH   5  20
TORSDOF 7
ENDMDL
MODEL 6
REMARK VINA RESULT:      -6.5      3.416      6.603
REMARK  Name = 196458
REMARK  7 active torsions:
REMARK  status: ('A' for Active; 'I' for Inactive)
REMARK    1  A    between atoms: C_4  and  C_7
REMARK    2  A    between atoms: C_5  and  C_20
REMARK    3  A    between atoms: C_7  and  N_9
REMARK    4  A    between atoms: N_9  and  C_11
REMARK    5  A    between atoms: C_16  and  N_19
REMARK    6  A    between atoms: C_20  and  N_23
REMARK    7  A    between atoms: C_24  and  C_29
REMARK                            x       y       z     vdW  Elec       q    Type
REMARK                         _______ _______ _______ _____ _____    ______ ____
ROOT
ATOM      1  O   UNL     1     -32.233  25.247   0.715  0.00  0.00    -0.273 OA
ATOM      2  O   UNL     1     -32.335  26.140   3.367  0.00  0.00    -0.273 OA
ATOM      3  N   UNL     1     -33.968  24.917   2.237  0.00  0.00    -0.253 N 
ATOM      4  C   UNL     1     -33.339  24.791   0.996  0.00  0.00    +0.246 C 
ATOM      5  C   UNL     1     -33.430  25.580   3.343  0.00  0.00    +0.246 C 
ATOM      6  H   UNL     1     -34.856  24.507   2.341  0.00  0.00    +0.158 HD
ENDROOT
BRANCH   4   7
ATOM      7  C   UNL     1     -34.186  24.003   0.006  0.00  0.00    +0.147 C 
ATOM      8  C   UNL     1     -35.291  24.876  -0.572  0.00  0.00    +0.031 C 
BRANCH   7   9
ATOM      9  N   UNL     1     -34.773  22.868   0.684  0.00  0.00    -0.327 N 
ATOM     10  H   UNL     1     -35.649  22.986   1.117  0.00  0.00    +0.147 HD
BRANCH   9  11
ATOM     11  C   UNL     1     -34.169  21.624   0.757  0.00  0.00    +0.045 C 
ATOM     12  C   UNL     1     -33.013  21.366   0.020  0.00  0.00    +0.016 C 
ATOM     13  C   UNL     1     -34.715  20.630   1.568  0.00  0.00    +0.016 C 
ATOM     14  C   UNL     1     -32.403  20.114   0.095  0.00  0.00    +0.025 C 
ATOM     15  C   UNL     1     -34.105  19.378   1.643  0.00  0.00    +0.025 C 
ATOM     16  C   UNL     1     -32.949  19.120   0.907  0.00  0.00    +0.143 C 
BRANCH  16  19
ATOM     17  O   UNL     1     -32.743  16.921   0.241  0.00  0.00    -0.126 OA
ATOM     18  O   UNL     1     -31.382  17.676   1.789  0.00  0.00    -0.126 OA
ATOM     19  N   UNL     1     -32.329  17.845   0.982  0.00  0.00    +0.058 N 
ENDBRANCH  16  19
ENDBRANCH   9  11
ENDBRANCH   7   9
ENDBRANCH   4   7
BRANCH   5  20
ATOM     20  C   UNL     1     -34.342  25.488   4.560  0.00  0.00    +0.149 C 
ATOM     21  C   UNL     1     -33.868  26.415   5.667  0.00  0.00    +0.031 C 
BRANCH  20  23
ATOM     22  O   UNL     1     -36.667  23.778   4.906  0.00  0.00    -0.266 OA
ATOM     23  N   UNL     1     -34.366  24.119   5.005  0.00  0.00    -0.291 N 
ATOM     24  C   UNL     1     -35.531  23.379   5.141  0.00  0.00    +0.318 C 
ATOM     25  H   UNL     1     -33.510  23.686   5.224  0.00  0.00    +0.150 HD
BRANCH  24  29
ATOM     26  F   UNL     1     -35.426  21.065   4.641  0.00  0.00    -0.162 F 
ATOM     27  F   UNL     1     -36.095  21.629   6.638  0.00  0.00    -0.162 F 
ATOM     28  F   UNL     1     -33.995  21.841   6.091  0.00  0.00    -0.162 F 
ATOM     29  C   UNL     1     -35.263  21.985   5.626  0.00  0.00    +0.469 C 
ENDBRANCH  24  29
ENDBRANCH  20  23
ENDBRANCH   5  20
TORSDOF 7
ENDMDL
MODEL 7
REMARK VINA RESULT:      -6.4      2.780      4.282
REMARK  Name = 196458
REMARK  7 active torsions:
REMARK  status: ('A' for Active; 'I' for Inactive)
REMARK    1  A    between atoms: C_4  and  C_7
REMARK    2  A    between atoms: C_5  and  C_20
REMARK    3  A    between atoms: C_7  and  N_9
REMARK    4  A    between atoms: N_9  and  C_11
REMARK    5  A    between atoms: C_16  and  N_19
REMARK    6  A    between atoms: C_20  and  N_23
REMARK    7  A    between atoms: C_24  and  C_29
REMARK                            x       y       z     vdW  Elec       q    Type
REMARK                         _______ _______ _______ _____ _____    ______ ____
ROOT
ATOM      1  O   UNL     1     -35.210  20.597   3.275  0.00  0.00    -0.273 OA
ATOM      2  O   UNL     1     -37.436  20.632   1.576  0.00  0.00    -0.273 OA
ATOM      3  N   UNL     1     -36.970  22.125   3.306  0.00  0.00    -0.253 N 
ATOM      4  C   UNL     1     -35.761  21.586   3.753  0.00  0.00    +0.246 C 
ATOM      5  C   UNL     1     -37.730  21.618   2.249  0.00  0.00    +0.246 C 
ATOM      6  H   UNL     1     -37.312  22.923   3.770  0.00  0.00    +0.158 HD
ENDROOT
BRANCH   4   7
ATOM      7  C   UNL     1     -35.181  22.377   4.917  0.00  0.00    +0.147 C 
ATOM      8  C   UNL     1     -35.563  21.741   6.245  0.00  0.00    +0.031 C 
BRANCH   7   9
ATOM      9  N   UNL     1     -35.686  23.732   4.867  0.00  0.00    -0.327 N 
ATOM     10  H   UNL     1     -36.661  23.865   4.866  0.00  0.00    +0.147 HD
BRANCH   9  11
ATOM     11  C   UNL     1     -34.872  24.851   4.819  0.00  0.00    +0.045 C 
ATOM     12  C   UNL     1     -34.421  25.333   3.590  0.00  0.00    +0.016 C 
ATOM     13  C   UNL     1     -34.505  25.498   5.999  0.00  0.00    +0.016 C 
ATOM     14  C   UNL     1     -33.603  26.462   3.541  0.00  0.00    +0.025 C 
ATOM     15  C   UNL     1     -33.687  26.627   5.950  0.00  0.00    +0.025 C 
ATOM     16  C   UNL     1     -33.237  27.109   4.721  0.00  0.00    +0.143 C 
BRANCH  16  19
ATOM     17  O   UNL     1     -32.931  29.385   4.517  0.00  0.00    -0.126 OA
ATOM     18  O   UNL     1     -31.162  28.114   4.784  0.00  0.00    -0.126 OA
ATOM     19  N   UNL     1     -32.403  28.258   4.672  0.00  0.00    +0.058 N 
ENDBRANCH  16  19
ENDBRANCH   9  11
ENDBRANCH   7   9
ENDBRANCH   4   7
BRANCH   5  20
ATOM     20  C   UNL     1     -38.966  22.468   1.979  0.00  0.00    +0.149 C 
ATOM     21  C   UNL     1     -39.822  21.851   0.885  0.00  0.00    +0.031 C 
BRANCH  20  23
ATOM     22  O   UNL     1     -38.438  24.713   3.749  0.00  0.00    -0.266 OA
ATOM     23  N   UNL     1     -38.532  23.791   1.613  0.00  0.00    -0.291 N 
ATOM     24  C   UNL     1     -38.305  24.804   2.533  0.00  0.00    +0.318 C 
ATOM     25  H   UNL     1     -38.390  23.987   0.659  0.00  0.00    +0.150 HD
BRANCH  24  29
ATOM     26  F   UNL     1     -38.923  26.818   1.447  0.00  0.00    -0.162 F 
ATOM     27  F   UNL     1     -37.082  25.850   0.791  0.00  0.00    -0.162 F 
ATOM     28  F   UNL     1     -37.152  26.869   2.717  0.00  0.00    -0.162 F 
ATOM     29  C   UNL     1     -37.867  26.079   1.875  0.00  0.00    +0.469 C 
ENDBRANCH  24  29
ENDBRANCH  20  23
ENDBRANCH   5  20
TORSDOF 7
ENDMDL
MODEL 8
REMARK VINA RESULT:      -6.1      3.696      6.240
REMARK  Name = 196458
REMARK  7 active torsions:
REMARK  status: ('A' for Active; 'I' for Inactive)
REMARK    1  A    between atoms: C_4  and  C_7
REMARK    2  A    between atoms: C_5  and  C_20
REMARK    3  A    between atoms: C_7  and  N_9
REMARK    4  A    between atoms: N_9  and  C_11
REMARK    5  A    between atoms: C_16  and  N_19
REMARK    6  A    between atoms: C_20  and  N_23
REMARK    7  A    between atoms: C_24  and  C_29
REMARK                            x       y       z     vdW  Elec       q    Type
REMARK                         _______ _______ _______ _____ _____    ______ ____
ROOT
ATOM      1  O   UNL     1     -35.913  25.051  -0.696  0.00  0.00    -0.273 OA
ATOM      2  O   UNL     1     -37.790  25.765   1.256  0.00  0.00    -0.273 OA
ATOM      3  N   UNL     1     -36.701  23.714   1.044  0.00  0.00    -0.253 N 
ATOM      4  C   UNL     1     -35.923  23.985  -0.085  0.00  0.00    +0.246 C 
ATOM      5  C   UNL     1     -37.583  24.616   1.643  0.00  0.00    +0.246 C 
ATOM      6  H   UNL     1     -36.621  22.820   1.447  0.00  0.00    +0.158 HD
ENDROOT
BRANCH   4   7
ATOM      7  C   UNL     1     -35.061  22.794  -0.481  0.00  0.00    +0.147 C 
ATOM      8  C   UNL     1     -35.732  21.986  -1.583  0.00  0.00    +0.031 C 
BRANCH   7   9
ATOM      9  N   UNL     1     -34.854  21.953   0.677  0.00  0.00    -0.327 N 
ATOM     10  H   UNL     1     -35.394  22.127   1.481  0.00  0.00    +0.147 HD
BRANCH   9  11
ATOM     11  C   UNL     1     -33.936  20.917   0.716  0.00  0.00    +0.045 C 
ATOM     12  C   UNL     1     -34.235  19.748   1.416  0.00  0.00    +0.016 C 
ATOM     13  C   UNL     1     -32.715  21.041   0.055  0.00  0.00    +0.016 C 
ATOM     14  C   UNL     1     -33.311  18.703   1.455  0.00  0.00    +0.025 C 
ATOM     15  C   UNL     1     -31.792  19.996   0.093  0.00  0.00    +0.025 C 
ATOM     16  C   UNL     1     -32.090  18.827   0.793  0.00  0.00    +0.143 C 
BRANCH  16  19
ATOM     17  O   UNL     1     -29.936  18.031   1.004  0.00  0.00    -0.126 OA
ATOM     18  O   UNL     1     -31.559  16.585   0.695  0.00  0.00    -0.126 OA
ATOM     19  N   UNL     1     -31.150  17.763   0.832  0.00  0.00    +0.058 N 
ENDBRANCH  16  19
ENDBRANCH   9  11
ENDBRANCH   7   9
ENDBRANCH   4   7
BRANCH   5  20
ATOM     20  C   UNL     1     -38.236  24.030   2.889  0.00  0.00    +0.149 C 
ATOM     21  C   UNL     1     -39.542  24.741   3.205  0.00  0.00    +0.031 C 
BRANCH  20  23
ATOM     22  O   UNL     1     -36.089  22.198   3.585  0.00  0.00    -0.266 OA
ATOM     23  N   UNL     1     -37.307  24.143   3.982  0.00  0.00    -0.291 N 
ATOM     24  C   UNL     1     -36.310  23.214   4.238  0.00  0.00    +0.318 C 
ATOM     25  H   UNL     1     -37.384  24.921   4.580  0.00  0.00    +0.150 HD
BRANCH  24  29
ATOM     26  F   UNL     1     -35.677  22.704   6.464  0.00  0.00    -0.162 F 
ATOM     27  F   UNL     1     -35.803  24.811   5.916  0.00  0.00    -0.162 F 
ATOM     28  F   UNL     1     -34.161  23.586   5.171  0.00  0.00    -0.162 F 
ATOM     29  C   UNL     1     -35.491  23.578   5.442  0.00  0.00    +0.469 C 
ENDBRANCH  24  29
ENDBRANCH  20  23
ENDBRANCH   5  20
TORSDOF 7
ENDMDL
MODEL 9
REMARK VINA RESULT:      -6.0      4.182      7.250
REMARK  Name = 196458
REMARK  7 active torsions:
REMARK  status: ('A' for Active; 'I' for Inactive)
REMARK    1  A    between atoms: C_4  and  C_7
REMARK    2  A    between atoms: C_5  and  C_20
REMARK    3  A    between atoms: C_7  and  N_9
REMARK    4  A    between atoms: N_9  and  C_11
REMARK    5  A    between atoms: C_16  and  N_19
REMARK    6  A    between atoms: C_20  and  N_23
REMARK    7  A    between atoms: C_24  and  C_29
REMARK                            x       y       z     vdW  Elec       q    Type
REMARK                         _______ _______ _______ _____ _____    ______ ____
ROOT
ATOM      1  O   UNL     1     -34.845  21.701  -0.507  0.00  0.00    -0.273 OA
ATOM      2  O   UNL     1     -35.904  23.559   1.301  0.00  0.00    -0.273 OA
ATOM      3  N   UNL     1     -36.434  21.293   1.150  0.00  0.00    -0.253 N 
ATOM      4  C   UNL     1     -35.598  20.934   0.089  0.00  0.00    +0.246 C 
ATOM      5  C   UNL     1     -36.535  22.578   1.689  0.00  0.00    +0.246 C 
ATOM      6  H   UNL     1     -36.992  20.587   1.548  0.00  0.00    +0.158 HD
ENDROOT
BRANCH   4   7
ATOM      7  C   UNL     1     -35.716  19.456  -0.253  0.00  0.00    +0.147 C 
ATOM      8  C   UNL     1     -37.176  19.033  -0.325  0.00  0.00    +0.031 C 
BRANCH   7   9
ATOM      9  N   UNL     1     -35.038  18.679   0.761  0.00  0.00    -0.327 N 
ATOM     10  H   UNL     1     -35.511  18.504   1.607  0.00  0.00    +0.147 HD
BRANCH   9  11
ATOM     11  C   UNL     1     -33.760  18.168   0.608  0.00  0.00    +0.045 C 
ATOM     12  C   UNL     1     -33.580  16.880   0.105  0.00  0.00    +0.016 C 
ATOM     13  C   UNL     1     -32.653  18.942   0.955  0.00  0.00    +0.016 C 
ATOM     14  C   UNL     1     -32.293  16.365  -0.051  0.00  0.00    +0.025 C 
ATOM     15  C   UNL     1     -31.366  18.429   0.799  0.00  0.00    +0.025 C 
ATOM     16  C   UNL     1     -31.186  17.140   0.296  0.00  0.00    +0.143 C 
BRANCH  16  19
ATOM     17  O   UNL     1     -29.623  15.903  -0.864  0.00  0.00    -0.126 OA
ATOM     18  O   UNL     1     -29.006  16.882   1.001  0.00  0.00    -0.126 OA
ATOM     19  N   UNL     1     -29.875  16.617   0.137  0.00  0.00    +0.058 N 
ENDBRANCH  16  19
ENDBRANCH   9  11
ENDBRANCH   7   9
ENDBRANCH   4   7
BRANCH   5  20
ATOM     20  C   UNL     1     -37.494  22.623   2.873  0.00  0.00    +0.149 C 
ATOM     21  C   UNL     1     -38.508  23.743   2.709  0.00  0.00    +0.031 C 
BRANCH  20  23
ATOM     22  O   UNL     1     -35.424  20.868   3.915  0.00  0.00    -0.266 OA
ATOM     23  N   UNL     1     -36.721  22.796   4.075  0.00  0.00    -0.291 N 
ATOM     24  C   UNL     1     -35.749  21.900   4.495  0.00  0.00    +0.318 C 
ATOM     25  H   UNL     1     -36.892  23.592   4.628  0.00  0.00    +0.150 HD
BRANCH  24  29
ATOM     26  F   UNL     1     -34.722  23.627   5.751  0.00  0.00    -0.162 F 
ATOM     27  F   UNL     1     -33.995  21.595   6.062  0.00  0.00    -0.162 F 
ATOM     28  F   UNL     1     -35.943  22.188   6.841  0.00  0.00    -0.162 F 
ATOM     29  C   UNL     1     -35.105  22.325   5.782  0.00  0.00    +0.469 C 
ENDBRANCH  24  29
ENDBRANCH  20  23
ENDBRANCH   5  20
TORSDOF 7
ENDMDL
