MODEL 1
REMARK VINA RESULT:      -7.7      0.000      0.000
REMARK  Name = 59751652
REMARK  7 active torsions:
REMARK  status: ('A' for Active; 'I' for Inactive)
REMARK    1  A    between atoms: O_1  and  C_4
REMARK    2  A    between atoms: O_1  and  C_22
REMARK    3  A    between atoms: C_19  and  O_24
REMARK    4  A    between atoms: C_20  and  O_26
REMARK    5  A    between atoms: C_21  and  O_28
REMARK    6  A    between atoms: C_23  and  C_31
REMARK    7  A    between atoms: C_31  and  O_32
REMARK                            x       y       z     vdW  Elec       q    Type
REMARK                         _______ _______ _______ _____ _____    ______ ____
ROOT
ATOM      1  O   UNL     1     -36.005  22.712   0.884  0.00  0.00    -0.451 OA
ENDROOT
BRANCH   1   4
ATOM      2  C   UNL     1     -32.723  21.240   0.046  0.00  0.00    +0.003 C 
ATOM      3  C   UNL     1     -34.018  21.367   0.600  0.00  0.00    +0.034 C 
ATOM      4  C   UNL     1     -34.750  22.542   0.371  0.00  0.00    +0.141 C 
ATOM      5  C   UNL     1     -31.971  20.060   0.268  0.00  0.00    +0.000 C 
ATOM      6  C   UNL     1     -32.179  22.290  -0.729  0.00  0.00    +0.000 C 
ATOM      7  C   UNL     1     -32.516  19.010   1.043  0.00  0.00    +0.000 C 
ATOM      8  C   UNL     1     -30.677  19.933  -0.285  0.00  0.00    +0.000 C 
ATOM      9  C   UNL     1     -34.211  23.576  -0.393  0.00  0.00    +0.037 C 
ATOM     10  C   UNL     1     -34.542  20.317   1.365  0.00  0.00    +0.003 C 
ATOM     11  C   UNL     1     -32.935  23.452  -0.939  0.00  0.00    +0.003 C 
ATOM     12  C   UNL     1     -33.801  19.154   1.584  0.00  0.00    +0.000 C 
ATOM     13  C   UNL     1     -30.894  22.147  -1.269  0.00  0.00    +0.000 C 
ATOM     14  C   UNL     1     -30.152  20.984  -1.050  0.00  0.00    +0.000 C 
ATOM     15  C   UNL     1     -31.759  17.848   1.254  0.00  0.00    +0.000 C 
ATOM     16  C   UNL     1     -29.945  18.758  -0.057  0.00  0.00    +0.000 C 
ATOM     17  C   UNL     1     -30.483  17.724   0.707  0.00  0.00    +0.000 C 
ENDBRANCH   1   4
BRANCH   1  22
ATOM     18  O   UNL     1     -35.308  23.824   2.813  0.00  0.00    -0.307 OA
ATOM     19  C   UNL     1     -37.926  24.937   3.217  0.00  0.00    +0.173 C 
ATOM     20  C   UNL     1     -37.658  23.817   2.212  0.00  0.00    +0.210 C 
ATOM     21  C   UNL     1     -36.842  24.990   4.294  0.00  0.00    +0.178 C 
ATOM     22  C   UNL     1     -36.214  23.854   1.712  0.00  0.00    +0.318 C 
ATOM     23  C   UNL     1     -35.455  24.953   3.667  0.00  0.00    +0.246 C 
BRANCH  19  24
ATOM     24  O   UNL     1     -39.179  24.710   3.862  0.00  0.00    -0.379 OA
ATOM     25  H   UNL     1     -39.791  25.431   3.646  0.00  0.00    +0.211 HD
ENDBRANCH  19  24
BRANCH  20  26
ATOM     26  O   UNL     1     -38.524  23.975   1.087  0.00  0.00    -0.377 OA
ATOM     27  H   UNL     1     -38.022  24.341   0.342  0.00  0.00    +0.211 HD
ENDBRANCH  20  26
BRANCH  21  28
ATOM     28  O   UNL     1     -36.979  26.202   5.034  0.00  0.00    -0.379 OA
ATOM     29  H   UNL     1     -37.412  26.872   4.483  0.00  0.00    +0.211 HD
ENDBRANCH  21  28
BRANCH  23  31
ATOM     30  O   UNL     1     -33.245  25.116   4.621  0.00  0.00    -0.247 OA
ATOM     31  C   UNL     1     -34.404  24.737   4.707  0.00  0.00    +0.344 C 
BRANCH  31  32
ATOM     32  O   UNL     1     -34.907  24.058   5.765  0.00  0.00    -0.478 OA
ATOM     33  H   UNL     1     -35.571  24.448   6.299  0.00  0.00    +0.295 HD
ENDBRANCH  31  32
ENDBRANCH  23  31
ENDBRANCH   1  22
TORSDOF 7
ENDMDL
MODEL 2
REMARK VINA RESULT:      -7.5      1.023      1.336
REMARK  Name = 59751652
REMARK  7 active torsions:
REMARK  status: ('A' for Active; 'I' for Inactive)
REMARK    1  A    between atoms: O_1  and  C_4
REMARK    2  A    between atoms: O_1  and  C_22
REMARK    3  A    between atoms: C_19  and  O_24
REMARK    4  A    between atoms: C_20  and  O_26
REMARK    5  A    between atoms: C_21  and  O_28
REMARK    6  A    between atoms: C_23  and  C_31
REMARK    7  A    between atoms: C_31  and  O_32
REMARK                            x       y       z     vdW  Elec       q    Type
REMARK                         _______ _______ _______ _____ _____    ______ ____
ROOT
ATOM      1  O   UNL     1     -36.071  22.176   1.296  0.00  0.00    -0.451 OA
ENDROOT
BRANCH   1   4
ATOM      2  C   UNL     1     -32.718  21.150   0.136  0.00  0.00    +0.003 C 
ATOM      3  C   UNL     1     -33.979  21.087   0.774  0.00  0.00    +0.034 C 
ATOM      4  C   UNL     1     -34.843  22.190   0.697  0.00  0.00    +0.141 C 
ATOM      5  C   UNL     1     -31.834  20.045   0.204  0.00  0.00    +0.000 C 
ATOM      6  C   UNL     1     -32.340  22.316  -0.569  0.00  0.00    +0.000 C 
ATOM      7  C   UNL     1     -32.213  18.879   0.910  0.00  0.00    +0.000 C 
ATOM      8  C   UNL     1     -30.573  20.109  -0.433  0.00  0.00    +0.000 C 
ATOM      9  C   UNL     1     -34.468  23.338   0.001  0.00  0.00    +0.037 C 
ATOM     10  C   UNL     1     -34.338  19.924   1.468  0.00  0.00    +0.003 C 
ATOM     11  C   UNL     1     -33.226  23.402  -0.627  0.00  0.00    +0.003 C 
ATOM     12  C   UNL     1     -33.466  18.835   1.536  0.00  0.00    +0.000 C 
ATOM     13  C   UNL     1     -31.086  22.361  -1.194  0.00  0.00    +0.000 C 
ATOM     14  C   UNL     1     -30.214  21.272  -1.127  0.00  0.00    +0.000 C 
ATOM     15  C   UNL     1     -31.326  17.795   0.969  0.00  0.00    +0.000 C 
ATOM     16  C   UNL     1     -29.709  19.006  -0.356  0.00  0.00    +0.000 C 
ATOM     17  C   UNL     1     -30.084  17.859   0.340  0.00  0.00    +0.000 C 
ENDBRANCH   1   4
BRANCH   1  22
ATOM     18  O   UNL     1     -36.398  23.737   2.998  0.00  0.00    -0.307 OA
ATOM     19  C   UNL     1     -38.854  24.640   1.813  0.00  0.00    +0.173 C 
ATOM     20  C   UNL     1     -38.145  23.365   1.357  0.00  0.00    +0.210 C 
ATOM     21  C   UNL     1     -38.442  25.030   3.232  0.00  0.00    +0.178 C 
ATOM     22  C   UNL     1     -36.641  23.441   1.625  0.00  0.00    +0.318 C 
ATOM     23  C   UNL     1     -36.927  25.001   3.383  0.00  0.00    +0.246 C 
BRANCH  19  24
ATOM     24  O   UNL     1     -40.266  24.429   1.804  0.00  0.00    -0.379 OA
ATOM     25  H   UNL     1     -40.657  24.879   1.038  0.00  0.00    +0.211 HD
ENDBRANCH  19  24
BRANCH  20  26
ATOM     26  O   UNL     1     -38.340  23.191  -0.047  0.00  0.00    -0.377 OA
ATOM     27  H   UNL     1     -37.633  22.632  -0.404  0.00  0.00    +0.211 HD
ENDBRANCH  20  26
BRANCH  21  28
ATOM     28  O   UNL     1     -38.905  26.351   3.506  0.00  0.00    -0.379 OA
ATOM     29  H   UNL     1     -38.557  26.646   4.362  0.00  0.00    +0.211 HD
ENDBRANCH  21  28
BRANCH  23  31
ATOM     30  O   UNL     1     -36.179  24.188   5.527  0.00  0.00    -0.247 OA
ATOM     31  C   UNL     1     -36.529  25.119   4.818  0.00  0.00    +0.344 C 
BRANCH  31  32
ATOM     32  O   UNL     1     -36.612  26.406   5.235  0.00  0.00    -0.478 OA
ATOM     33  H   UNL     1     -37.438  26.760   5.498  0.00  0.00    +0.295 HD
ENDBRANCH  31  32
ENDBRANCH  23  31
ENDBRANCH   1  22
TORSDOF 7
ENDMDL
MODEL 3
REMARK VINA RESULT:      -7.4      1.349      2.406
REMARK  Name = 59751652
REMARK  7 active torsions:
REMARK  status: ('A' for Active; 'I' for Inactive)
REMARK    1  A    between atoms: O_1  and  C_4
REMARK    2  A    between atoms: O_1  and  C_22
REMARK    3  A    between atoms: C_19  and  O_24
REMARK    4  A    between atoms: C_20  and  O_26
REMARK    5  A    between atoms: C_21  and  O_28
REMARK    6  A    between atoms: C_23  and  C_31
REMARK    7  A    between atoms: C_31  and  O_32
REMARK                            x       y       z     vdW  Elec       q    Type
REMARK                         _______ _______ _______ _____ _____    ______ ____
ROOT
ATOM      1  O   UNL     1     -36.468  21.475   1.728  0.00  0.00    -0.451 OA
ENDROOT
BRANCH   1   4
ATOM      2  C   UNL     1     -33.092  21.194   0.258  0.00  0.00    +0.003 C 
ATOM      3  C   UNL     1     -34.262  20.846   0.973  0.00  0.00    +0.034 C 
ATOM      4  C   UNL     1     -35.319  21.765   1.050  0.00  0.00    +0.141 C 
ATOM      5  C   UNL     1     -32.016  20.276   0.171  0.00  0.00    +0.000 C 
ATOM      6  C   UNL     1     -32.997  22.457  -0.371  0.00  0.00    +0.000 C 
ATOM      7  C   UNL     1     -32.112  19.013   0.800  0.00  0.00    +0.000 C 
ATOM      8  C   UNL     1     -30.847  20.625  -0.544  0.00  0.00    +0.000 C 
ATOM      9  C   UNL     1     -35.223  23.010   0.430  0.00  0.00    +0.037 C 
ATOM     10  C   UNL     1     -34.339  19.590   1.589  0.00  0.00    +0.003 C 
ATOM     11  C   UNL     1     -34.071  23.355  -0.275  0.00  0.00    +0.003 C 
ATOM     12  C   UNL     1     -33.278  18.686   1.504  0.00  0.00    +0.000 C 
ATOM     13  C   UNL     1     -31.831  22.785  -1.075  0.00  0.00    +0.000 C 
ATOM     14  C   UNL     1     -30.769  21.881  -1.160  0.00  0.00    +0.000 C 
ATOM     15  C   UNL     1     -31.038  18.117   0.705  0.00  0.00    +0.000 C 
ATOM     16  C   UNL     1     -29.790  19.706  -0.620  0.00  0.00    +0.000 C 
ATOM     17  C   UNL     1     -29.886  18.461  -0.000  0.00  0.00    +0.000 C 
ENDBRANCH   1   4
BRANCH   1  22
ATOM     18  O   UNL     1     -37.035  23.655   2.335  0.00  0.00    -0.307 OA
ATOM     19  C   UNL     1     -35.874  23.320   4.942  0.00  0.00    +0.173 C 
ATOM     20  C   UNL     1     -35.646  22.319   3.809  0.00  0.00    +0.210 C 
ATOM     21  C   UNL     1     -36.283  24.690   4.402  0.00  0.00    +0.178 C 
ATOM     22  C   UNL     1     -36.809  22.332   2.816  0.00  0.00    +0.318 C 
ATOM     23  C   UNL     1     -37.400  24.555   3.375  0.00  0.00    +0.246 C 
BRANCH  19  24
ATOM     24  O   UNL     1     -34.666  23.480   5.686  0.00  0.00    -0.379 OA
ATOM     25  H   UNL     1     -34.790  24.165   6.362  0.00  0.00    +0.211 HD
ENDBRANCH  19  24
BRANCH  20  26
ATOM     26  O   UNL     1     -35.539  21.004   4.354  0.00  0.00    -0.377 OA
ATOM     27  H   UNL     1     -35.068  21.042   5.201  0.00  0.00    +0.211 HD
ENDBRANCH  20  26
BRANCH  21  28
ATOM     28  O   UNL     1     -36.747  25.498   5.482  0.00  0.00    -0.379 OA
ATOM     29  H   UNL     1     -37.449  25.029   5.959  0.00  0.00    +0.211 HD
ENDBRANCH  21  28
BRANCH  23  31
ATOM     30  O   UNL     1     -37.029  26.193   1.643  0.00  0.00    -0.247 OA
ATOM     31  C   UNL     1     -37.622  25.844   2.653  0.00  0.00    +0.344 C 
BRANCH  31  32
ATOM     32  O   UNL     1     -38.574  26.583   3.273  0.00  0.00    -0.478 OA
ATOM     33  H   UNL     1     -38.821  27.417   2.922  0.00  0.00    +0.295 HD
ENDBRANCH  31  32
ENDBRANCH  23  31
ENDBRANCH   1  22
TORSDOF 7
ENDMDL
MODEL 4
REMARK VINA RESULT:      -7.4      1.706      2.241
REMARK  Name = 59751652
REMARK  7 active torsions:
REMARK  status: ('A' for Active; 'I' for Inactive)
REMARK    1  A    between atoms: O_1  and  C_4
REMARK    2  A    between atoms: O_1  and  C_22
REMARK    3  A    between atoms: C_19  and  O_24
REMARK    4  A    between atoms: C_20  and  O_26
REMARK    5  A    between atoms: C_21  and  O_28
REMARK    6  A    between atoms: C_23  and  C_31
REMARK    7  A    between atoms: C_31  and  O_32
REMARK                            x       y       z     vdW  Elec       q    Type
REMARK                         _______ _______ _______ _____ _____    ______ ____
ROOT
ATOM      1  O   UNL     1     -35.554  21.491   0.785  0.00  0.00    -0.451 OA
ENDROOT
BRANCH   1   4
ATOM      2  C   UNL     1     -32.044  20.748  -0.091  0.00  0.00    +0.003 C 
ATOM      3  C   UNL     1     -33.343  20.581   0.445  0.00  0.00    +0.034 C 
ATOM      4  C   UNL     1     -34.288  21.605   0.286  0.00  0.00    +0.141 C 
ATOM      5  C   UNL     1     -31.078  19.722   0.060  0.00  0.00    +0.000 C 
ATOM      6  C   UNL     1     -31.710  21.938  -0.778  0.00  0.00    +0.000 C 
ATOM      7  C   UNL     1     -31.413  18.532   0.748  0.00  0.00    +0.000 C 
ATOM      8  C   UNL     1     -29.781  19.889  -0.475  0.00  0.00    +0.000 C 
ATOM      9  C   UNL     1     -33.956  22.778  -0.391  0.00  0.00    +0.037 C 
ATOM     10  C   UNL     1     -33.656  19.396   1.122  0.00  0.00    +0.003 C 
ATOM     11  C   UNL     1     -32.677  22.944  -0.920  0.00  0.00    +0.003 C 
ATOM     12  C   UNL     1     -32.704  18.385   1.272  0.00  0.00    +0.000 C 
ATOM     13  C   UNL     1     -30.419  22.086  -1.302  0.00  0.00    +0.000 C 
ATOM     14  C   UNL     1     -29.466  21.076  -1.152  0.00  0.00    +0.000 C 
ATOM     15  C   UNL     1     -30.446  17.527   0.890  0.00  0.00    +0.000 C 
ATOM     16  C   UNL     1     -28.836  18.865  -0.316  0.00  0.00    +0.000 C 
ATOM     17  C   UNL     1     -29.167  17.693   0.361  0.00  0.00    +0.000 C 
ENDBRANCH   1   4
BRANCH   1  22
ATOM     18  O   UNL     1     -34.925  23.218   2.223  0.00  0.00    -0.307 OA
ATOM     19  C   UNL     1     -35.718  21.699   4.529  0.00  0.00    +0.173 C 
ATOM     20  C   UNL     1     -35.594  21.073   3.140  0.00  0.00    +0.210 C 
ATOM     21  C   UNL     1     -34.889  22.978   4.641  0.00  0.00    +0.178 C 
ATOM     22  C   UNL     1     -35.811  22.115   2.042  0.00  0.00    +0.318 C 
ATOM     23  C   UNL     1     -35.148  23.896   3.453  0.00  0.00    +0.246 C 
BRANCH  19  24
ATOM     24  O   UNL     1     -35.243  20.777   5.511  0.00  0.00    -0.379 OA
ATOM     25  H   UNL     1     -35.225  21.209   6.379  0.00  0.00    +0.211 HD
ENDBRANCH  19  24
BRANCH  20  26
ATOM     26  O   UNL     1     -36.582  20.054   2.990  0.00  0.00    -0.377 OA
ATOM     27  H   UNL     1     -36.269  19.237   3.407  0.00  0.00    +0.211 HD
ENDBRANCH  20  26
BRANCH  21  28
ATOM     28  O   UNL     1     -35.248  23.664   5.839  0.00  0.00    -0.379 OA
ATOM     29  H   UNL     1     -34.911  23.176   6.606  0.00  0.00    +0.211 HD
ENDBRANCH  21  28
BRANCH  23  31
ATOM     30  O   UNL     1     -33.309  25.228   4.268  0.00  0.00    -0.247 OA
ATOM     31  C   UNL     1     -34.158  25.014   3.415  0.00  0.00    +0.344 C 
BRANCH  31  32
ATOM     32  O   UNL     1     -34.327  25.768   2.301  0.00  0.00    -0.478 OA
ATOM     33  H   UNL     1     -33.677  25.759   1.627  0.00  0.00    +0.295 HD
ENDBRANCH  31  32
ENDBRANCH  23  31
ENDBRANCH   1  22
TORSDOF 7
ENDMDL
MODEL 5
REMARK VINA RESULT:      -7.3      1.186      2.669
REMARK  Name = 59751652
REMARK  7 active torsions:
REMARK  status: ('A' for Active; 'I' for Inactive)
REMARK    1  A    between atoms: O_1  and  C_4
REMARK    2  A    between atoms: O_1  and  C_22
REMARK    3  A    between atoms: C_19  and  O_24
REMARK    4  A    between atoms: C_20  and  O_26
REMARK    5  A    between atoms: C_21  and  O_28
REMARK    6  A    between atoms: C_23  and  C_31
REMARK    7  A    between atoms: C_31  and  O_32
REMARK                            x       y       z     vdW  Elec       q    Type
REMARK                         _______ _______ _______ _____ _____    ______ ____
ROOT
ATOM      1  O   UNL     1     -35.651  23.240   0.548  0.00  0.00    -0.451 OA
ENDROOT
BRANCH   1   4
ATOM      2  C   UNL     1     -33.059  20.610   0.502  0.00  0.00    +0.003 C 
ATOM      3  C   UNL     1     -33.698  21.849   0.261  0.00  0.00    +0.034 C 
ATOM      4  C   UNL     1     -34.994  22.061   0.754  0.00  0.00    +0.141 C 
ATOM      5  C   UNL     1     -31.750  20.380   0.011  0.00  0.00    +0.000 C 
ATOM      6  C   UNL     1     -33.728  19.600   1.233  0.00  0.00    +0.000 C 
ATOM      7  C   UNL     1     -31.083  21.390  -0.721  0.00  0.00    +0.000 C 
ATOM      8  C   UNL     1     -31.113  19.142   0.251  0.00  0.00    +0.000 C 
ATOM      9  C   UNL     1     -35.651  21.064   1.475  0.00  0.00    +0.037 C 
ATOM     10  C   UNL     1     -33.021  22.838  -0.464  0.00  0.00    +0.003 C 
ATOM     11  C   UNL     1     -35.023  19.842   1.713  0.00  0.00    +0.003 C 
ATOM     12  C   UNL     1     -31.731  22.611  -0.949  0.00  0.00    +0.000 C 
ATOM     13  C   UNL     1     -33.080  18.378   1.462  0.00  0.00    +0.000 C 
ATOM     14  C   UNL     1     -31.790  18.152   0.977  0.00  0.00    +0.000 C 
ATOM     15  C   UNL     1     -29.788  21.147  -1.200  0.00  0.00    +0.000 C 
ATOM     16  C   UNL     1     -29.817  18.930  -0.242  0.00  0.00    +0.000 C 
ATOM     17  C   UNL     1     -29.160  19.926  -0.962  0.00  0.00    +0.000 C 
ENDBRANCH   1   4
BRANCH   1  22
ATOM     18  O   UNL     1     -35.668  23.483   2.869  0.00  0.00    -0.307 OA
ATOM     19  C   UNL     1     -37.029  26.006   2.678  0.00  0.00    +0.173 C 
ATOM     20  C   UNL     1     -36.887  25.060   1.485  0.00  0.00    +0.210 C 
ATOM     21  C   UNL     1     -36.878  25.260   4.003  0.00  0.00    +0.178 C 
ATOM     22  C   UNL     1     -35.646  24.177   1.624  0.00  0.00    +0.318 C 
ATOM     23  C   UNL     1     -35.644  24.367   3.983  0.00  0.00    +0.246 C 
BRANCH  19  24
ATOM     24  O   UNL     1     -38.323  26.610   2.656  0.00  0.00    -0.379 OA
ATOM     25  H   UNL     1     -38.355  27.282   1.957  0.00  0.00    +0.211 HD
ENDBRANCH  19  24
BRANCH  20  26
ATOM     26  O   UNL     1     -36.759  25.825   0.287  0.00  0.00    -0.377 OA
ATOM     27  H   UNL     1     -37.536  26.397   0.184  0.00  0.00    +0.211 HD
ENDBRANCH  20  26
BRANCH  21  28
ATOM     28  O   UNL     1     -36.741  26.208   5.060  0.00  0.00    -0.379 OA
ATOM     29  H   UNL     1     -37.154  25.859   5.865  0.00  0.00    +0.211 HD
ENDBRANCH  21  28
BRANCH  23  31
ATOM     30  O   UNL     1     -35.050  23.654   6.210  0.00  0.00    -0.247 OA
ATOM     31  C   UNL     1     -35.633  23.443   5.156  0.00  0.00    +0.344 C 
BRANCH  31  32
ATOM     32  O   UNL     1     -36.358  22.328   4.897  0.00  0.00    -0.478 OA
ATOM     33  H   UNL     1     -37.167  22.395   4.428  0.00  0.00    +0.295 HD
ENDBRANCH  31  32
ENDBRANCH  23  31
ENDBRANCH   1  22
TORSDOF 7
ENDMDL
MODEL 6
REMARK VINA RESULT:      -7.2      4.256      6.671
REMARK  Name = 59751652
REMARK  7 active torsions:
REMARK  status: ('A' for Active; 'I' for Inactive)
REMARK    1  A    between atoms: O_1  and  C_4
REMARK    2  A    between atoms: O_1  and  C_22
REMARK    3  A    between atoms: C_19  and  O_24
REMARK    4  A    between atoms: C_20  and  O_26
REMARK    5  A    between atoms: C_21  and  O_28
REMARK    6  A    between atoms: C_23  and  C_31
REMARK    7  A    between atoms: C_31  and  O_32
REMARK                            x       y       z     vdW  Elec       q    Type
REMARK                         _______ _______ _______ _____ _____    ______ ____
ROOT
ATOM      1  O   UNL     1     -34.661  28.463   3.354  0.00  0.00    -0.451 OA
ENDROOT
BRANCH   1   4
ATOM      2  C   UNL     1     -35.009  24.794   3.113  0.00  0.00    +0.003 C 
ATOM      3  C   UNL     1     -34.886  26.081   3.687  0.00  0.00    +0.034 C 
ATOM      4  C   UNL     1     -34.780  27.200   2.847  0.00  0.00    +0.141 C 
ATOM      5  C   UNL     1     -35.117  23.654   3.947  0.00  0.00    +0.000 C 
ATOM      6  C   UNL     1     -35.023  24.646   1.706  0.00  0.00    +0.000 C 
ATOM      7  C   UNL     1     -35.101  23.804   5.353  0.00  0.00    +0.000 C 
ATOM      8  C   UNL     1     -35.239  22.368   3.373  0.00  0.00    +0.000 C 
ATOM      9  C   UNL     1     -34.795  27.051   1.461  0.00  0.00    +0.037 C 
ATOM     10  C   UNL     1     -34.874  26.210   5.081  0.00  0.00    +0.003 C 
ATOM     11  C   UNL     1     -34.916  25.783   0.894  0.00  0.00    +0.003 C 
ATOM     12  C   UNL     1     -34.979  25.086   5.904  0.00  0.00    +0.000 C 
ATOM     13  C   UNL     1     -35.145  23.363   1.155  0.00  0.00    +0.000 C 
ATOM     14  C   UNL     1     -35.251  22.239   1.977  0.00  0.00    +0.000 C 
ATOM     15  C   UNL     1     -35.209  22.665   6.165  0.00  0.00    +0.000 C 
ATOM     16  C   UNL     1     -35.345  21.249   4.213  0.00  0.00    +0.000 C 
ATOM     17  C   UNL     1     -35.330  21.398   5.598  0.00  0.00    +0.000 C 
ENDBRANCH   1   4
BRANCH   1  22
ATOM     18  O   UNL     1     -32.917  28.802   4.866  0.00  0.00    -0.307 OA
ATOM     19  C   UNL     1     -31.999  31.108   3.418  0.00  0.00    +0.173 C 
ATOM     20  C   UNL     1     -33.353  30.454   3.144  0.00  0.00    +0.210 C 
ATOM     21  C   UNL     1     -31.490  30.769   4.819  0.00  0.00    +0.178 C 
ATOM     22  C   UNL     1     -33.338  28.971   3.514  0.00  0.00    +0.318 C 
ATOM     23  C   UNL     1     -31.592  29.273   5.085  0.00  0.00    +0.246 C 
BRANCH  19  24
ATOM     24  O   UNL     1     -32.127  32.527   3.326  0.00  0.00    -0.379 OA
ATOM     25  H   UNL     1     -32.950  32.749   2.863  0.00  0.00    +0.211 HD
ENDBRANCH  19  24
BRANCH  20  26
ATOM     26  O   UNL     1     -33.658  30.563   1.753  0.00  0.00    -0.377 OA
ATOM     27  H   UNL     1     -33.969  29.707   1.422  0.00  0.00    +0.211 HD
ENDBRANCH  20  26
BRANCH  21  28
ATOM     28  O   UNL     1     -30.123  31.162   4.927  0.00  0.00    -0.379 OA
ATOM     29  H   UNL     1     -29.554  30.448   4.602  0.00  0.00    +0.211 HD
ENDBRANCH  21  28
BRANCH  23  31
ATOM     30  O   UNL     1     -31.381  29.788   7.432  0.00  0.00    -0.247 OA
ATOM     31  C   UNL     1     -31.351  28.967   6.527  0.00  0.00    +0.344 C 
BRANCH  31  32
ATOM     32  O   UNL     1     -31.090  27.649   6.701  0.00  0.00    -0.478 OA
ATOM     33  H   UNL     1     -31.770  27.016   6.572  0.00  0.00    +0.295 HD
ENDBRANCH  31  32
ENDBRANCH  23  31
ENDBRANCH   1  22
TORSDOF 7
ENDMDL
MODEL 7
REMARK VINA RESULT:      -7.2      1.494      2.036
REMARK  Name = 59751652
REMARK  7 active torsions:
REMARK  status: ('A' for Active; 'I' for Inactive)
REMARK    1  A    between atoms: O_1  and  C_4
REMARK    2  A    between atoms: O_1  and  C_22
REMARK    3  A    between atoms: C_19  and  O_24
REMARK    4  A    between atoms: C_20  and  O_26
REMARK    5  A    between atoms: C_21  and  O_28
REMARK    6  A    between atoms: C_23  and  C_31
REMARK    7  A    between atoms: C_31  and  O_32
REMARK                            x       y       z     vdW  Elec       q    Type
REMARK                         _______ _______ _______ _____ _____    ______ ____
ROOT
ATOM      1  O   UNL     1     -34.872  21.254   0.693  0.00  0.00    -0.451 OA
ENDROOT
BRANCH   1   4
ATOM      2  C   UNL     1     -31.386  20.396  -0.174  0.00  0.00    +0.003 C 
ATOM      3  C   UNL     1     -32.689  20.275   0.364  0.00  0.00    +0.034 C 
ATOM      4  C   UNL     1     -33.603  21.324   0.192  0.00  0.00    +0.141 C 
ATOM      5  C   UNL     1     -30.451  19.345  -0.009  0.00  0.00    +0.000 C 
ATOM      6  C   UNL     1     -31.018  21.567  -0.876  0.00  0.00    +0.000 C 
ATOM      7  C   UNL     1     -30.820  18.174   0.694  0.00  0.00    +0.000 C 
ATOM      8  C   UNL     1     -29.149  19.467  -0.547  0.00  0.00    +0.000 C 
ATOM      9  C   UNL     1     -33.237  22.478  -0.500  0.00  0.00    +0.037 C 
ATOM     10  C   UNL     1     -33.037  19.108   1.057  0.00  0.00    +0.003 C 
ATOM     11  C   UNL     1     -31.954  22.599  -1.031  0.00  0.00    +0.003 C 
ATOM     12  C   UNL     1     -32.115  18.072   1.220  0.00  0.00    +0.000 C 
ATOM     13  C   UNL     1     -29.723  21.671  -1.402  0.00  0.00    +0.000 C 
ATOM     14  C   UNL     1     -28.800  20.634  -1.239  0.00  0.00    +0.000 C 
ATOM     15  C   UNL     1     -29.883  17.143   0.848  0.00  0.00    +0.000 C 
ATOM     16  C   UNL     1     -28.235  18.417  -0.375  0.00  0.00    +0.000 C 
ATOM     17  C   UNL     1     -28.600  17.264   0.318  0.00  0.00    +0.000 C 
ENDBRANCH   1   4
BRANCH   1  22
ATOM     18  O   UNL     1     -35.316  21.832   2.909  0.00  0.00    -0.307 OA
ATOM     19  C   UNL     1     -37.242  23.803   2.096  0.00  0.00    +0.173 C 
ATOM     20  C   UNL     1     -36.672  22.766   1.128  0.00  0.00    +0.210 C 
ATOM     21  C   UNL     1     -37.110  23.342   3.548  0.00  0.00    +0.178 C 
ATOM     22  C   UNL     1     -35.281  22.306   1.565  0.00  0.00    +0.318 C 
ATOM     23  C   UNL     1     -35.698  22.846   3.831  0.00  0.00    +0.246 C 
BRANCH  19  24
ATOM     24  O   UNL     1     -38.628  24.003   1.820  0.00  0.00    -0.379 OA
ATOM     25  H   UNL     1     -39.152  23.331   2.285  0.00  0.00    +0.211 HD
ENDBRANCH  19  24
BRANCH  20  26
ATOM     26  O   UNL     1     -36.563  23.344  -0.173  0.00  0.00    -0.377 OA
ATOM     27  H   UNL     1     -35.730  23.836  -0.239  0.00  0.00    +0.211 HD
ENDBRANCH  20  26
BRANCH  21  28
ATOM     28  O   UNL     1     -37.393  24.439   4.414  0.00  0.00    -0.379 OA
ATOM     29  H   UNL     1     -37.078  24.236   5.308  0.00  0.00    +0.211 HD
ENDBRANCH  21  28
BRANCH  23  31
ATOM     30  O   UNL     1     -35.867  22.675   6.232  0.00  0.00    -0.247 OA
ATOM     31  C   UNL     1     -35.629  22.153   5.153  0.00  0.00    +0.344 C 
BRANCH  31  32
ATOM     32  O   UNL     1     -35.263  20.857   4.997  0.00  0.00    -0.478 OA
ATOM     33  H   UNL     1     -35.820  20.172   5.313  0.00  0.00    +0.295 HD
ENDBRANCH  31  32
ENDBRANCH  23  31
ENDBRANCH   1  22
TORSDOF 7
ENDMDL
MODEL 8
REMARK VINA RESULT:      -7.2      4.086      6.380
REMARK  Name = 59751652
REMARK  7 active torsions:
REMARK  status: ('A' for Active; 'I' for Inactive)
REMARK    1  A    between atoms: O_1  and  C_4
REMARK    2  A    between atoms: O_1  and  C_22
REMARK    3  A    between atoms: C_19  and  O_24
REMARK    4  A    between atoms: C_20  and  O_26
REMARK    5  A    between atoms: C_21  and  O_28
REMARK    6  A    between atoms: C_23  and  C_31
REMARK    7  A    between atoms: C_31  and  O_32
REMARK                            x       y       z     vdW  Elec       q    Type
REMARK                         _______ _______ _______ _____ _____    ______ ____
ROOT
ATOM      1  O   UNL     1     -35.803  22.555   2.576  0.00  0.00    -0.451 OA
ENDROOT
BRANCH   1   4
ATOM      2  C   UNL     1     -33.960  25.468   3.902  0.00  0.00    +0.003 C 
ATOM      3  C   UNL     1     -34.465  24.526   2.975  0.00  0.00    +0.034 C 
ATOM      4  C   UNL     1     -35.291  23.488   3.432  0.00  0.00    +0.141 C 
ATOM      5  C   UNL     1     -33.125  26.522   3.457  0.00  0.00    +0.000 C 
ATOM      6  C   UNL     1     -34.289  25.357   5.274  0.00  0.00    +0.000 C 
ATOM      7  C   UNL     1     -32.797  26.633   2.086  0.00  0.00    +0.000 C 
ATOM      8  C   UNL     1     -32.621  27.463   4.384  0.00  0.00    +0.000 C 
ATOM      9  C   UNL     1     -35.614  23.381   4.784  0.00  0.00    +0.037 C 
ATOM     10  C   UNL     1     -34.130  24.651   1.621  0.00  0.00    +0.003 C 
ATOM     11  C   UNL     1     -35.117  24.308   5.699  0.00  0.00    +0.003 C 
ATOM     12  C   UNL     1     -33.306  25.691   1.182  0.00  0.00    +0.000 C 
ATOM     13  C   UNL     1     -33.780  26.299   6.178  0.00  0.00    +0.000 C 
ATOM     14  C   UNL     1     -32.956  27.338   5.739  0.00  0.00    +0.000 C 
ATOM     15  C   UNL     1     -31.969  27.681   1.661  0.00  0.00    +0.000 C 
ATOM     16  C   UNL     1     -31.795  28.501   3.927  0.00  0.00    +0.000 C 
ATOM     17  C   UNL     1     -31.472  28.608   2.576  0.00  0.00    +0.000 C 
ENDBRANCH   1   4
BRANCH   1  22
ATOM     18  O   UNL     1     -37.568  24.080   2.495  0.00  0.00    -0.307 OA
ATOM     19  C   UNL     1     -39.421  22.021   1.734  0.00  0.00    +0.173 C 
ATOM     20  C   UNL     1     -38.015  21.708   2.246  0.00  0.00    +0.210 C 
ATOM     21  C   UNL     1     -39.882  23.408   2.182  0.00  0.00    +0.178 C 
ATOM     22  C   UNL     1     -37.053  22.862   1.960  0.00  0.00    +0.318 C 
ATOM     23  C   UNL     1     -38.807  24.450   1.903  0.00  0.00    +0.246 C 
BRANCH  19  24
ATOM     24  O   UNL     1     -40.342  21.060   2.254  0.00  0.00    -0.379 OA
ATOM     25  H   UNL     1     -41.238  21.271   1.947  0.00  0.00    +0.211 HD
ENDBRANCH  19  24
BRANCH  20  26
ATOM     26  O   UNL     1     -37.521  20.542   1.587  0.00  0.00    -0.377 OA
ATOM     27  H   UNL     1     -36.604  20.381   1.860  0.00  0.00    +0.211 HD
ENDBRANCH  20  26
BRANCH  21  28
ATOM     28  O   UNL     1     -41.062  23.762   1.463  0.00  0.00    -0.379 OA
ATOM     29  H   UNL     1     -41.324  24.666   1.695  0.00  0.00    +0.211 HD
ENDBRANCH  21  28
BRANCH  23  31
ATOM     30  O   UNL     1     -40.015  26.516   2.215  0.00  0.00    -0.247 OA
ATOM     31  C   UNL     1     -39.133  25.747   2.570  0.00  0.00    +0.344 C 
BRANCH  31  32
ATOM     32  O   UNL     1     -38.315  25.962   3.628  0.00  0.00    -0.478 OA
ATOM     33  H   UNL     1     -37.553  26.500   3.529  0.00  0.00    +0.295 HD
ENDBRANCH  31  32
ENDBRANCH  23  31
ENDBRANCH   1  22
TORSDOF 7
ENDMDL
MODEL 9
REMARK VINA RESULT:      -7.2      1.376      3.748
REMARK  Name = 59751652
REMARK  7 active torsions:
REMARK  status: ('A' for Active; 'I' for Inactive)
REMARK    1  A    between atoms: O_1  and  C_4
REMARK    2  A    between atoms: O_1  and  C_22
REMARK    3  A    between atoms: C_19  and  O_24
REMARK    4  A    between atoms: C_20  and  O_26
REMARK    5  A    between atoms: C_21  and  O_28
REMARK    6  A    between atoms: C_23  and  C_31
REMARK    7  A    between atoms: C_31  and  O_32
REMARK                            x       y       z     vdW  Elec       q    Type
REMARK                         _______ _______ _______ _____ _____    ______ ____
ROOT
ATOM      1  O   UNL     1     -35.390  22.509   0.537  0.00  0.00    -0.451 OA
ENDROOT
BRANCH   1   4
ATOM      2  C   UNL     1     -32.452  20.280   0.351  0.00  0.00    +0.003 C 
ATOM      3  C   UNL     1     -33.272  21.415   0.151  0.00  0.00    +0.034 C 
ATOM      4  C   UNL     1     -34.562  21.436   0.702  0.00  0.00    +0.141 C 
ATOM      5  C   UNL     1     -31.147  20.243  -0.199  0.00  0.00    +0.000 C 
ATOM      6  C   UNL     1     -32.935  19.182   1.100  0.00  0.00    +0.000 C 
ATOM      7  C   UNL     1     -30.665  21.341  -0.949  0.00  0.00    +0.000 C 
ATOM      8  C   UNL     1     -30.328  19.108   0.001  0.00  0.00    +0.000 C 
ATOM      9  C   UNL     1     -35.036  20.352   1.440  0.00  0.00    +0.037 C 
ATOM     10  C   UNL     1     -32.778  22.494  -0.594  0.00  0.00    +0.003 C 
ATOM     11  C   UNL     1     -34.229  19.233   1.639  0.00  0.00    +0.003 C 
ATOM     12  C   UNL     1     -31.491  22.457  -1.137  0.00  0.00    +0.000 C 
ATOM     13  C   UNL     1     -32.109  18.065   1.288  0.00  0.00    +0.000 C 
ATOM     14  C   UNL     1     -30.822  18.029   0.745  0.00  0.00    +0.000 C 
ATOM     15  C   UNL     1     -29.371  21.289  -1.487  0.00  0.00    +0.000 C 
ATOM     16  C   UNL     1     -29.038  19.087  -0.550  0.00  0.00    +0.000 C 
ATOM     17  C   UNL     1     -28.564  20.170  -1.288  0.00  0.00    +0.000 C 
ENDBRANCH   1   4
BRANCH   1  22
ATOM     18  O   UNL     1     -37.566  22.583   1.376  0.00  0.00    -0.307 OA
ATOM     19  C   UNL     1     -36.955  24.880   2.989  0.00  0.00    +0.173 C 
ATOM     20  C   UNL     1     -36.017  24.377   1.892  0.00  0.00    +0.210 C 
ATOM     21  C   UNL     1     -38.389  24.404   2.759  0.00  0.00    +0.178 C 
ATOM     22  C   UNL     1     -36.199  22.878   1.653  0.00  0.00    +0.318 C 
ATOM     23  C   UNL     1     -38.421  22.910   2.465  0.00  0.00    +0.246 C 
BRANCH  19  24
ATOM     24  O   UNL     1     -36.958  26.308   2.995  0.00  0.00    -0.379 OA
ATOM     25  H   UNL     1     -36.274  26.632   3.602  0.00  0.00    +0.211 HD
ENDBRANCH  19  24
BRANCH  20  26
ATOM     26  O   UNL     1     -34.663  24.606   2.285  0.00  0.00    -0.377 OA
ATOM     27  H   UNL     1     -34.644  25.220   3.036  0.00  0.00    +0.211 HD
ENDBRANCH  20  26
BRANCH  21  28
ATOM     28  O   UNL     1     -39.159  24.659   3.932  0.00  0.00    -0.379 OA
ATOM     29  H   UNL     1     -38.625  25.157   4.569  0.00  0.00    +0.211 HD
ENDBRANCH  21  28
BRANCH  23  31
ATOM     30  O   UNL     1     -40.633  23.247   1.561  0.00  0.00    -0.247 OA
ATOM     31  C   UNL     1     -39.771  22.489   1.981  0.00  0.00    +0.344 C 
BRANCH  31  32
ATOM     32  O   UNL     1     -39.916  21.145   2.072  0.00  0.00    -0.478 OA
ATOM     33  H   UNL     1     -39.744  20.710   2.884  0.00  0.00    +0.295 HD
ENDBRANCH  31  32
ENDBRANCH  23  31
ENDBRANCH   1  22
TORSDOF 7
ENDMDL
