MODEL 1
REMARK VINA RESULT:      -6.7      0.000      0.000
REMARK  Name = 57928435
REMARK  4 active torsions:
REMARK  status: ('A' for Active; 'I' for Inactive)
REMARK    1  A    between atoms: C_3  and  N_16
REMARK    2  A    between atoms: C_5  and  C_13
REMARK    3  A    between atoms: N_16  and  C_22
REMARK    4  A    between atoms: C_20  and  O_28
REMARK                            x       y       z     vdW  Elec       q    Type
REMARK                         _______ _______ _______ _____ _____    ______ ____
ROOT
ATOM      1  N   UNL     1     -39.073  21.141   0.873  0.00  0.00    -0.229 NA
ATOM      2  N   UNL     1     -37.066  19.815   1.014  0.00  0.00    -0.297 N 
ATOM      3  C   UNL     1     -37.715  22.859   2.707  0.00  0.00    +0.053 C 
ATOM      4  C   UNL     1     -37.108  21.684   2.236  0.00  0.00    +0.046 C 
ATOM      5  C   UNL     1     -38.998  23.157   2.250  0.00  0.00    +0.085 C 
ATOM      6  C   UNL     1     -37.835  20.900   1.344  0.00  0.00    +0.133 C 
ATOM      7  C   UNL     1     -35.863  21.030   2.437  0.00  0.00    +0.020 C 
ATOM      8  C   UNL     1     -39.609  22.285   1.359  0.00  0.00    +0.106 C 
ATOM      9  C   UNL     1     -35.866  19.884   1.673  0.00  0.00    +0.063 C 
ATOM     10  H   UNL     1     -37.336  19.095   0.399  0.00  0.00    +0.154 HD
ENDROOT
BRANCH   5  13
ATOM     11  O   UNL     1     -39.712  24.704   3.874  0.00  0.00    -0.270 OA
ATOM     12  N   UNL     1     -40.380  25.091   1.715  0.00  0.00    -0.325 N 
ATOM     13  C   UNL     1     -39.712  24.349   2.684  0.00  0.00    +0.245 C 
ATOM     14  H   UNL     1     -40.873  25.903   1.970  0.00  0.00    +0.145 HD
ATOM     15  H   UNL     1     -40.358  24.804   0.774  0.00  0.00    +0.145 HD
ENDBRANCH   5  13
BRANCH   3  16
ATOM     16  N   UNL     1     -37.067  23.698   3.594  0.00  0.00    -0.334 N 
ATOM     17  H   UNL     1     -37.282  23.619   4.552  0.00  0.00    +0.147 HD
BRANCH  16  22
ATOM     18  C   UNL     1     -36.342  26.031   3.909  0.00  0.00    +0.020 C 
ATOM     19  C   UNL     1     -34.656  24.198   3.487  0.00  0.00    +0.020 C 
ATOM     20  C   UNL     1     -33.878  26.575   3.831  0.00  0.00    +0.088 C 
ATOM     21  C   UNL     1     -34.807  25.271   5.773  0.00  0.00    +0.002 C 
ATOM     22  C   UNL     1     -36.089  24.688   3.190  0.00  0.00    +0.069 C 
ATOM     23  C   UNL     1     -35.291  27.084   3.504  0.00  0.00    +0.029 C 
ATOM     24  C   UNL     1     -33.621  25.261   3.073  0.00  0.00    +0.029 C 
ATOM     25  C   UNL     1     -36.219  25.787   5.429  0.00  0.00    +0.002 C 
ATOM     26  C   UNL     1     -34.537  23.961   5.007  0.00  0.00    +0.002 C 
ATOM     27  C   UNL     1     -33.772  26.322   5.345  0.00  0.00    +0.027 C 
BRANCH  20  28
ATOM     28  O   UNL     1     -32.914  27.549   3.456  0.00  0.00    -0.387 OA
ATOM     29  H   UNL     1     -32.030  27.248   3.723  0.00  0.00    +0.210 HD
ENDBRANCH  20  28
ENDBRANCH  16  22
ENDBRANCH   3  16
TORSDOF 4
ENDMDL
MODEL 2
REMARK VINA RESULT:      -6.7      1.396      3.205
REMARK  Name = 57928435
REMARK  4 active torsions:
REMARK  status: ('A' for Active; 'I' for Inactive)
REMARK    1  A    between atoms: C_3  and  N_16
REMARK    2  A    between atoms: C_5  and  C_13
REMARK    3  A    between atoms: N_16  and  C_22
REMARK    4  A    between atoms: C_20  and  O_28
REMARK                            x       y       z     vdW  Elec       q    Type
REMARK                         _______ _______ _______ _____ _____    ______ ____
ROOT
ATOM      1  N   UNL     1     -40.157  22.290   0.800  0.00  0.00    -0.229 NA
ATOM      2  N   UNL     1     -41.261  24.308   1.518  0.00  0.00    -0.297 N 
ATOM      3  C   UNL     1     -38.085  23.142   2.572  0.00  0.00    +0.053 C 
ATOM      4  C   UNL     1     -39.253  23.905   2.409  0.00  0.00    +0.046 C 
ATOM      5  C   UNL     1     -37.973  21.959   1.843  0.00  0.00    +0.085 C 
ATOM      6  C   UNL     1     -40.216  23.422   1.527  0.00  0.00    +0.133 C 
ATOM      7  C   UNL     1     -39.754  25.124   2.937  0.00  0.00    +0.020 C 
ATOM      8  C   UNL     1     -39.012  21.596   0.997  0.00  0.00    +0.106 C 
ATOM      9  C   UNL     1     -40.991  25.346   2.371  0.00  0.00    +0.063 C 
ATOM     10  H   UNL     1     -42.080  24.214   0.979  0.00  0.00    +0.154 HD
ENDROOT
BRANCH   5  13
ATOM     11  O   UNL     1     -35.685  21.487   1.551  0.00  0.00    -0.270 OA
ATOM     12  N   UNL     1     -36.966  19.843   2.507  0.00  0.00    -0.325 N 
ATOM     13  C   UNL     1     -36.800  21.103   1.942  0.00  0.00    +0.245 C 
ATOM     14  H   UNL     1     -36.195  19.236   2.591  0.00  0.00    +0.145 HD
ATOM     15  H   UNL     1     -37.852  19.559   2.825  0.00  0.00    +0.145 HD
ENDBRANCH   5  13
BRANCH   3  16
ATOM     16  N   UNL     1     -37.077  23.544   3.428  0.00  0.00    -0.334 N 
ATOM     17  H   UNL     1     -37.014  23.111   4.310  0.00  0.00    +0.147 HD
BRANCH  16  22
ATOM     18  C   UNL     1     -36.426  25.884   3.840  0.00  0.00    +0.020 C 
ATOM     19  C   UNL     1     -34.677  24.105   3.446  0.00  0.00    +0.020 C 
ATOM     20  C   UNL     1     -33.976  26.490   3.890  0.00  0.00    +0.088 C 
ATOM     21  C   UNL     1     -34.959  25.109   5.750  0.00  0.00    +0.002 C 
ATOM     22  C   UNL     1     -36.107  24.569   3.097  0.00  0.00    +0.069 C 
ATOM     23  C   UNL     1     -35.385  26.973   3.512  0.00  0.00    +0.029 C 
ATOM     24  C   UNL     1     -33.651  25.205   3.109  0.00  0.00    +0.029 C 
ATOM     25  C   UNL     1     -36.366  25.600   5.356  0.00  0.00    +0.002 C 
ATOM     26  C   UNL     1     -34.620  23.828   4.962  0.00  0.00    +0.002 C 
ATOM     27  C   UNL     1     -33.932  26.196   5.400  0.00  0.00    +0.027 C 
BRANCH  20  28
ATOM     28  O   UNL     1     -33.020  27.496   3.587  0.00  0.00    -0.387 OA
ATOM     29  H   UNL     1     -32.172  27.273   4.002  0.00  0.00    +0.210 HD
ENDBRANCH  20  28
ENDBRANCH  16  22
ENDBRANCH   3  16
TORSDOF 4
ENDMDL
MODEL 3
REMARK VINA RESULT:      -6.6      1.700      3.357
REMARK  Name = 57928435
REMARK  4 active torsions:
REMARK  status: ('A' for Active; 'I' for Inactive)
REMARK    1  A    between atoms: C_3  and  N_16
REMARK    2  A    between atoms: C_5  and  C_13
REMARK    3  A    between atoms: N_16  and  C_22
REMARK    4  A    between atoms: C_20  and  O_28
REMARK                            x       y       z     vdW  Elec       q    Type
REMARK                         _______ _______ _______ _____ _____    ______ ____
ROOT
ATOM      1  N   UNL     1     -38.397  20.554   0.301  0.00  0.00    -0.229 NA
ATOM      2  N   UNL     1     -40.270  22.064   0.429  0.00  0.00    -0.297 N 
ATOM      3  C   UNL     1     -37.435  22.024   2.553  0.00  0.00    +0.053 C 
ATOM      4  C   UNL     1     -38.661  22.348   1.951  0.00  0.00    +0.046 C 
ATOM      5  C   UNL     1     -36.707  20.962   2.016  0.00  0.00    +0.085 C 
ATOM      6  C   UNL     1     -39.061  21.585   0.858  0.00  0.00    +0.133 C 
ATOM      7  C   UNL     1     -39.678  23.315   2.170  0.00  0.00    +0.020 C 
ATOM      8  C   UNL     1     -37.225  20.285   0.921  0.00  0.00    +0.106 C 
ATOM      9  C   UNL     1     -40.655  23.116   1.219  0.00  0.00    +0.063 C 
ATOM     10  H   UNL     1     -40.784  21.708  -0.332  0.00  0.00    +0.154 HD
ENDROOT
BRANCH   5  13
ATOM     11  O   UNL     1     -35.222  20.539   3.793  0.00  0.00    -0.270 OA
ATOM     12  N   UNL     1     -34.433  20.157   1.674  0.00  0.00    -0.325 N 
ATOM     13  C   UNL     1     -35.423  20.552   2.568  0.00  0.00    +0.245 C 
ATOM     14  H   UNL     1     -33.553  19.873   2.010  0.00  0.00    +0.145 HD
ATOM     15  H   UNL     1     -34.613  20.160   0.707  0.00  0.00    +0.145 HD
ENDBRANCH   5  13
BRANCH   3  16
ATOM     16  N   UNL     1     -36.959  22.727   3.644  0.00  0.00    -0.334 N 
ATOM     17  H   UNL     1     -36.672  22.219   4.436  0.00  0.00    +0.147 HD
BRANCH  16  22
ATOM     18  C   UNL     1     -36.210  24.641   5.002  0.00  0.00    +0.020 C 
ATOM     19  C   UNL     1     -36.048  24.701   2.482  0.00  0.00    +0.020 C 
ATOM     20  C   UNL     1     -35.248  26.669   3.847  0.00  0.00    +0.088 C 
ATOM     21  C   UNL     1     -33.947  24.515   3.877  0.00  0.00    +0.002 C 
ATOM     22  C   UNL     1     -36.862  24.173   3.683  0.00  0.00    +0.069 C 
ATOM     23  C   UNL     1     -36.080  26.176   5.042  0.00  0.00    +0.029 C 
ATOM     24  C   UNL     1     -35.931  26.236   2.538  0.00  0.00    +0.029 C 
ATOM     25  C   UNL     1     -34.792  24.034   5.073  0.00  0.00    +0.002 C 
ATOM     26  C   UNL     1     -34.631  24.096   2.561  0.00  0.00    +0.002 C 
ATOM     27  C   UNL     1     -33.843  26.047   3.921  0.00  0.00    +0.027 C 
BRANCH  20  28
ATOM     28  O   UNL     1     -35.130  28.084   3.888  0.00  0.00    -0.387 OA
ATOM     29  H   UNL     1     -35.804  28.482   3.314  0.00  0.00    +0.210 HD
ENDBRANCH  20  28
ENDBRANCH  16  22
ENDBRANCH   3  16
TORSDOF 4
ENDMDL
MODEL 4
REMARK VINA RESULT:      -6.2      1.485      3.377
REMARK  Name = 57928435
REMARK  4 active torsions:
REMARK  status: ('A' for Active; 'I' for Inactive)
REMARK    1  A    between atoms: C_3  and  N_16
REMARK    2  A    between atoms: C_5  and  C_13
REMARK    3  A    between atoms: N_16  and  C_22
REMARK    4  A    between atoms: C_20  and  O_28
REMARK                            x       y       z     vdW  Elec       q    Type
REMARK                         _______ _______ _______ _____ _____    ______ ____
ROOT
ATOM      1  N   UNL     1     -39.811  21.613   0.395  0.00  0.00    -0.229 NA
ATOM      2  N   UNL     1     -41.132  23.586   0.804  0.00  0.00    -0.297 N 
ATOM      3  C   UNL     1     -38.161  22.642   2.488  0.00  0.00    +0.053 C 
ATOM      4  C   UNL     1     -39.314  23.330   2.074  0.00  0.00    +0.046 C 
ATOM      5  C   UNL     1     -37.852  21.444   1.845  0.00  0.00    +0.085 C 
ATOM      6  C   UNL     1     -40.065  22.763   1.048  0.00  0.00    +0.133 C 
ATOM      7  C   UNL     1     -39.968  24.534   2.445  0.00  0.00    +0.020 C 
ATOM      8  C   UNL     1     -38.691  20.994   0.835  0.00  0.00    +0.106 C 
ATOM      9  C   UNL     1     -41.084  24.666   1.647  0.00  0.00    +0.063 C 
ATOM     10  H   UNL     1     -41.828  23.427   0.126  0.00  0.00    +0.154 HD
ENDROOT
BRANCH   5  13
ATOM     11  O   UNL     1     -35.907  21.026   3.104  0.00  0.00    -0.270 OA
ATOM     12  N   UNL     1     -36.455  19.477   1.503  0.00  0.00    -0.325 N 
ATOM     13  C   UNL     1     -36.677  20.661   2.200  0.00  0.00    +0.245 C 
ATOM     14  H   UNL     1     -35.672  18.921   1.716  0.00  0.00    +0.145 HD
ATOM     15  H   UNL     1     -37.083  19.196   0.800  0.00  0.00    +0.145 HD
ENDBRANCH   5  13
BRANCH   3  16
ATOM     16  N   UNL     1     -37.356  23.130   3.500  0.00  0.00    -0.334 N 
ATOM     17  H   UNL     1     -37.018  22.496   4.173  0.00  0.00    +0.147 HD
BRANCH  16  22
ATOM     18  C   UNL     1     -36.266  24.782   4.967  0.00  0.00    +0.020 C 
ATOM     19  C   UNL     1     -36.072  24.955   2.455  0.00  0.00    +0.020 C 
ATOM     20  C   UNL     1     -34.921  26.651   3.931  0.00  0.00    +0.088 C 
ATOM     21  C   UNL     1     -34.058  24.289   3.833  0.00  0.00    +0.002 C 
ATOM     22  C   UNL     1     -36.983  24.525   3.624  0.00  0.00    +0.069 C 
ATOM     23  C   UNL     1     -35.844  26.259   5.097  0.00  0.00    +0.029 C 
ATOM     24  C   UNL     1     -35.662  26.434   2.600  0.00  0.00    +0.029 C 
ATOM     25  C   UNL     1     -34.992  23.911   5.000  0.00  0.00    +0.002 C 
ATOM     26  C   UNL     1     -34.798  24.086   2.495  0.00  0.00    +0.002 C 
ATOM     27  C   UNL     1     -33.662  25.767   3.966  0.00  0.00    +0.027 C 
BRANCH  20  28
ATOM     28  O   UNL     1     -34.534  28.012   4.055  0.00  0.00    -0.387 OA
ATOM     29  H   UNL     1     -34.555  28.270   4.991  0.00  0.00    +0.210 HD
ENDBRANCH  20  28
ENDBRANCH  16  22
ENDBRANCH   3  16
TORSDOF 4
ENDMDL
MODEL 5
REMARK VINA RESULT:      -6.1      2.522      6.463
REMARK  Name = 57928435
REMARK  4 active torsions:
REMARK  status: ('A' for Active; 'I' for Inactive)
REMARK    1  A    between atoms: C_3  and  N_16
REMARK    2  A    between atoms: C_5  and  C_13
REMARK    3  A    between atoms: N_16  and  C_22
REMARK    4  A    between atoms: C_20  and  O_28
REMARK                            x       y       z     vdW  Elec       q    Type
REMARK                         _______ _______ _______ _____ _____    ______ ____
ROOT
ATOM      1  N   UNL     1     -34.832  26.113   5.412  0.00  0.00    -0.229 NA
ATOM      2  N   UNL     1     -35.128  27.802   3.720  0.00  0.00    -0.297 N 
ATOM      3  C   UNL     1     -35.829  24.344   3.403  0.00  0.00    +0.053 C 
ATOM      4  C   UNL     1     -35.683  25.717   3.147  0.00  0.00    +0.046 C 
ATOM      5  C   UNL     1     -35.471  23.876   4.667  0.00  0.00    +0.085 C 
ATOM      6  C   UNL     1     -35.191  26.513   4.177  0.00  0.00    +0.133 C 
ATOM      7  C   UNL     1     -35.919  26.576   2.041  0.00  0.00    +0.020 C 
ATOM      8  C   UNL     1     -34.993  24.783   5.603  0.00  0.00    +0.106 C 
ATOM      9  C   UNL     1     -35.568  27.853   2.423  0.00  0.00    +0.063 C 
ATOM     10  H   UNL     1     -34.815  28.575   4.244  0.00  0.00    +0.154 HD
ENDROOT
BRANCH   5  13
ATOM     11  O   UNL     1     -35.288  21.570   4.230  0.00  0.00    -0.270 OA
ATOM     12  N   UNL     1     -36.037  22.171   6.313  0.00  0.00    -0.325 N 
ATOM     13  C   UNL     1     -35.590  22.471   5.030  0.00  0.00    +0.245 C 
ATOM     14  H   UNL     1     -36.130  21.232   6.594  0.00  0.00    +0.145 HD
ATOM     15  H   UNL     1     -36.260  22.897   6.939  0.00  0.00    +0.145 HD
ENDBRANCH   5  13
BRANCH   3  16
ATOM     16  N   UNL     1     -36.310  23.478   2.438  0.00  0.00    -0.334 N 
ATOM     17  H   UNL     1     -35.660  22.946   1.925  0.00  0.00    +0.147 HD
BRANCH  16  22
ATOM     18  C   UNL     1     -38.051  23.862   0.738  0.00  0.00    +0.020 C 
ATOM     19  C   UNL     1     -38.127  21.826   2.232  0.00  0.00    +0.020 C 
ATOM     20  C   UNL     1     -39.914  22.177   0.482  0.00  0.00    +0.088 C 
ATOM     21  C   UNL     1     -37.575  21.570  -0.223  0.00  0.00    +0.002 C 
ATOM     22  C   UNL     1     -37.719  23.312   2.142  0.00  0.00    +0.069 C 
ATOM     23  C   UNL     1     -39.543  23.667   0.405  0.00  0.00    +0.029 C 
ATOM     24  C   UNL     1     -39.622  21.652   1.899  0.00  0.00    +0.029 C 
ATOM     25  C   UNL     1     -37.219  23.068  -0.292  0.00  0.00    +0.002 C 
ATOM     26  C   UNL     1     -37.298  21.038   1.198  0.00  0.00    +0.002 C 
ATOM     27  C   UNL     1     -39.069  21.395  -0.538  0.00  0.00    +0.027 C 
BRANCH  20  28
ATOM     28  O   UNL     1     -41.289  22.003   0.174  0.00  0.00    -0.387 OA
ATOM     29  H   UNL     1     -41.417  22.070  -0.786  0.00  0.00    +0.210 HD
ENDBRANCH  20  28
ENDBRANCH  16  22
ENDBRANCH   3  16
TORSDOF 4
ENDMDL
MODEL 6
REMARK VINA RESULT:      -6.1      2.826      4.103
REMARK  Name = 57928435
REMARK  4 active torsions:
REMARK  status: ('A' for Active; 'I' for Inactive)
REMARK    1  A    between atoms: C_3  and  N_16
REMARK    2  A    between atoms: C_5  and  C_13
REMARK    3  A    between atoms: N_16  and  C_22
REMARK    4  A    between atoms: C_20  and  O_28
REMARK                            x       y       z     vdW  Elec       q    Type
REMARK                         _______ _______ _______ _____ _____    ______ ____
ROOT
ATOM      1  N   UNL     1     -33.371  20.394  -0.510  0.00  0.00    -0.229 NA
ATOM      2  N   UNL     1     -32.481  22.338  -1.621  0.00  0.00    -0.297 N 
ATOM      3  C   UNL     1     -34.629  22.309   1.196  0.00  0.00    +0.053 C 
ATOM      4  C   UNL     1     -33.809  22.720   0.132  0.00  0.00    +0.046 C 
ATOM      5  C   UNL     1     -34.808  20.940   1.388  0.00  0.00    +0.085 C 
ATOM      6  C   UNL     1     -33.232  21.726  -0.653  0.00  0.00    +0.133 C 
ATOM      7  C   UNL     1     -33.376  23.964  -0.397  0.00  0.00    +0.020 C 
ATOM      8  C   UNL     1     -34.171  20.056   0.528  0.00  0.00    +0.106 C 
ATOM      9  C   UNL     1     -32.561  23.698  -1.475  0.00  0.00    +0.063 C 
ATOM     10  H   UNL     1     -31.961  21.871  -2.316  0.00  0.00    +0.154 HD
ENDROOT
BRANCH   5  13
ATOM     11  O   UNL     1     -35.273  20.485   3.651  0.00  0.00    -0.270 OA
ATOM     12  N   UNL     1     -36.860  19.850   2.122  0.00  0.00    -0.325 N 
ATOM     13  C   UNL     1     -35.636  20.416   2.465  0.00  0.00    +0.245 C 
ATOM     14  H   UNL     1     -37.447  19.486   2.823  0.00  0.00    +0.145 HD
ATOM     15  H   UNL     1     -37.139  19.815   1.179  0.00  0.00    +0.145 HD
ENDBRANCH   5  13
BRANCH   3  16
ATOM     16  N   UNL     1     -35.243  23.227   2.028  0.00  0.00    -0.334 N 
ATOM     17  H   UNL     1     -36.220  23.334   1.962  0.00  0.00    +0.147 HD
BRANCH  16  22
ATOM     18  C   UNL     1     -34.881  25.532   2.818  0.00  0.00    +0.020 C 
ATOM     19  C   UNL     1     -34.847  23.590   4.433  0.00  0.00    +0.020 C 
ATOM     20  C   UNL     1     -34.497  25.943   5.279  0.00  0.00    +0.088 C 
ATOM     21  C   UNL     1     -36.772  25.230   4.472  0.00  0.00    +0.002 C 
ATOM     22  C   UNL     1     -34.527  24.039   2.991  0.00  0.00    +0.069 C 
ATOM     23  C   UNL     1     -34.142  26.401   3.855  0.00  0.00    +0.029 C 
ATOM     24  C   UNL     1     -34.098  24.468   5.454  0.00  0.00    +0.029 C 
ATOM     25  C   UNL     1     -36.399  25.690   3.049  0.00  0.00    +0.002 C 
ATOM     26  C   UNL     1     -36.364  23.755   4.661  0.00  0.00    +0.002 C 
ATOM     27  C   UNL     1     -36.014  26.092   5.492  0.00  0.00    +0.027 C 
BRANCH  20  28
ATOM     28  O   UNL     1     -33.815  26.747   6.230  0.00  0.00    -0.387 OA
ATOM     29  H   UNL     1     -34.237  27.620   6.279  0.00  0.00    +0.210 HD
ENDBRANCH  20  28
ENDBRANCH  16  22
ENDBRANCH   3  16
TORSDOF 4
ENDMDL
MODEL 7
REMARK VINA RESULT:      -6.0      3.477      6.761
REMARK  Name = 57928435
REMARK  4 active torsions:
REMARK  status: ('A' for Active; 'I' for Inactive)
REMARK    1  A    between atoms: C_3  and  N_16
REMARK    2  A    between atoms: C_5  and  C_13
REMARK    3  A    between atoms: N_16  and  C_22
REMARK    4  A    between atoms: C_20  and  O_28
REMARK                            x       y       z     vdW  Elec       q    Type
REMARK                         _______ _______ _______ _____ _____    ______ ____
ROOT
ATOM      1  N   UNL     1     -33.501  30.237   1.060  0.00  0.00    -0.229 NA
ATOM      2  N   UNL     1     -35.591  30.026  -0.120  0.00  0.00    -0.297 N 
ATOM      3  C   UNL     1     -34.643  28.308   2.830  0.00  0.00    +0.053 C 
ATOM      4  C   UNL     1     -35.356  28.773   1.713  0.00  0.00    +0.046 C 
ATOM      5  C   UNL     1     -33.363  28.818   3.043  0.00  0.00    +0.085 C 
ATOM      6  C   UNL     1     -34.731  29.713   0.899  0.00  0.00    +0.133 C 
ATOM      7  C   UNL     1     -36.636  28.527   1.149  0.00  0.00    +0.020 C 
ATOM      8  C   UNL     1     -32.860  29.753   2.150  0.00  0.00    +0.106 C 
ATOM      9  C   UNL     1     -36.752  29.311   0.022  0.00  0.00    +0.063 C 
ATOM     10  H   UNL     1     -35.404  30.668  -0.843  0.00  0.00    +0.154 HD
ENDROOT
BRANCH   5  13
ATOM     11  O   UNL     1     -31.848  27.376   4.124  0.00  0.00    -0.270 OA
ATOM     12  N   UNL     1     -32.562  29.203   5.312  0.00  0.00    -0.325 N 
ATOM     13  C   UNL     1     -32.547  28.401   4.175  0.00  0.00    +0.245 C 
ATOM     14  H   UNL     1     -32.023  28.953   6.097  0.00  0.00    +0.145 HD
ATOM     15  H   UNL     1     -33.111  30.019   5.331  0.00  0.00    +0.145 HD
ENDBRANCH   5  13
BRANCH   3  16
ATOM     16  N   UNL     1     -35.185  27.374   3.693  0.00  0.00    -0.334 N 
ATOM     17  H   UNL     1     -35.230  27.596   4.651  0.00  0.00    +0.147 HD
BRANCH  16  22
ATOM     18  C   UNL     1     -34.559  25.039   3.221  0.00  0.00    +0.020 C 
ATOM     19  C   UNL     1     -36.819  25.600   4.199  0.00  0.00    +0.020 C 
ATOM     20  C   UNL     1     -36.198  23.193   3.750  0.00  0.00    +0.088 C 
ATOM     21  C   UNL     1     -35.079  24.444   5.625  0.00  0.00    +0.002 C 
ATOM     22  C   UNL     1     -35.693  26.086   3.263  0.00  0.00    +0.069 C 
ATOM     23  C   UNL     1     -35.094  23.660   2.788  0.00  0.00    +0.029 C 
ATOM     24  C   UNL     1     -37.343  24.222   3.749  0.00  0.00    +0.029 C 
ATOM     25  C   UNL     1     -33.981  24.906   4.647  0.00  0.00    +0.002 C 
ATOM     26  C   UNL     1     -36.236  25.464   5.621  0.00  0.00    +0.002 C 
ATOM     27  C   UNL     1     -35.615  23.079   5.169  0.00  0.00    +0.027 C 
BRANCH  20  28
ATOM     28  O   UNL     1     -36.688  21.922   3.347  0.00  0.00    -0.387 OA
ATOM     29  H   UNL     1     -36.853  21.927   2.391  0.00  0.00    +0.210 HD
ENDBRANCH  20  28
ENDBRANCH  16  22
ENDBRANCH   3  16
TORSDOF 4
ENDMDL
MODEL 8
REMARK VINA RESULT:      -6.0      1.485      1.950
REMARK  Name = 57928435
REMARK  4 active torsions:
REMARK  status: ('A' for Active; 'I' for Inactive)
REMARK    1  A    between atoms: C_3  and  N_16
REMARK    2  A    between atoms: C_5  and  C_13
REMARK    3  A    between atoms: N_16  and  C_22
REMARK    4  A    between atoms: C_20  and  O_28
REMARK                            x       y       z     vdW  Elec       q    Type
REMARK                         _______ _______ _______ _____ _____    ______ ____
ROOT
ATOM      1  N   UNL     1     -37.248  19.330  -0.047  0.00  0.00    -0.229 NA
ATOM      2  N   UNL     1     -35.002  18.745   0.601  0.00  0.00    -0.297 N 
ATOM      3  C   UNL     1     -36.940  21.427   1.869  0.00  0.00    +0.053 C 
ATOM      4  C   UNL     1     -35.902  20.512   1.628  0.00  0.00    +0.046 C 
ATOM      5  C   UNL     1     -38.120  21.277   1.143  0.00  0.00    +0.085 C 
ATOM      6  C   UNL     1     -36.130  19.519   0.679  0.00  0.00    +0.133 C 
ATOM      7  C   UNL     1     -34.588  20.310   2.126  0.00  0.00    +0.020 C 
ATOM      8  C   UNL     1     -38.213  20.240   0.226  0.00  0.00    +0.106 C 
ATOM      9  C   UNL     1     -34.058  19.216   1.476  0.00  0.00    +0.063 C 
ATOM     10  H   UNL     1     -34.888  17.967   0.007  0.00  0.00    +0.154 HD
ENDROOT
BRANCH   5  13
ATOM     11  O   UNL     1     -40.081  21.992   2.234  0.00  0.00    -0.270 OA
ATOM     12  N   UNL     1     -39.370  23.252   0.455  0.00  0.00    -0.325 N 
ATOM     13  C   UNL     1     -39.254  22.173   1.324  0.00  0.00    +0.245 C 
ATOM     14  H   UNL     1     -40.123  23.880   0.547  0.00  0.00    +0.145 HD
ATOM     15  H   UNL     1     -38.699  23.390  -0.252  0.00  0.00    +0.145 HD
ENDBRANCH   5  13
BRANCH   3  16
ATOM     16  N   UNL     1     -36.801  22.446   2.793  0.00  0.00    -0.334 N 
ATOM     17  H   UNL     1     -37.264  22.356   3.657  0.00  0.00    +0.147 HD
BRANCH  16  22
ATOM     18  C   UNL     1     -36.895  24.903   2.637  0.00  0.00    +0.020 C 
ATOM     19  C   UNL     1     -34.857  23.742   3.575  0.00  0.00    +0.020 C 
ATOM     20  C   UNL     1     -34.931  26.264   3.453  0.00  0.00    +0.088 C 
ATOM     21  C   UNL     1     -36.383  25.049   5.111  0.00  0.00    +0.002 C 
ATOM     22  C   UNL     1     -36.012  23.639   2.557  0.00  0.00    +0.069 C 
ATOM     23  C   UNL     1     -36.059  26.178   2.412  0.00  0.00    +0.029 C 
ATOM     24  C   UNL     1     -34.032  25.021   3.332  0.00  0.00    +0.029 C 
ATOM     25  C   UNL     1     -37.503  24.969   4.055  0.00  0.00    +0.002 C 
ATOM     26  C   UNL     1     -35.469  23.813   4.989  0.00  0.00    +0.002 C 
ATOM     27  C   UNL     1     -35.548  26.314   4.861  0.00  0.00    +0.027 C 
BRANCH  20  28
ATOM     28  O   UNL     1     -34.164  27.440   3.241  0.00  0.00    -0.387 OA
ATOM     29  H   UNL     1     -34.627  28.020   2.616  0.00  0.00    +0.210 HD
ENDBRANCH  20  28
ENDBRANCH  16  22
ENDBRANCH   3  16
TORSDOF 4
ENDMDL
MODEL 9
REMARK VINA RESULT:      -5.9      2.930      4.207
REMARK  Name = 57928435
REMARK  4 active torsions:
REMARK  status: ('A' for Active; 'I' for Inactive)
REMARK    1  A    between atoms: C_3  and  N_16
REMARK    2  A    between atoms: C_5  and  C_13
REMARK    3  A    between atoms: N_16  and  C_22
REMARK    4  A    between atoms: C_20  and  O_28
REMARK                            x       y       z     vdW  Elec       q    Type
REMARK                         _______ _______ _______ _____ _____    ______ ____
ROOT
ATOM      1  N   UNL     1     -35.380  20.639   3.348  0.00  0.00    -0.229 NA
ATOM      2  N   UNL     1     -35.447  21.101   5.711  0.00  0.00    -0.297 N 
ATOM      3  C   UNL     1     -35.087  23.469   3.100  0.00  0.00    +0.053 C 
ATOM      4  C   UNL     1     -35.208  22.864   4.362  0.00  0.00    +0.046 C 
ATOM      5  C   UNL     1     -35.114  22.643   1.978  0.00  0.00    +0.085 C 
ATOM      6  C   UNL     1     -35.347  21.480   4.399  0.00  0.00    +0.133 C 
ATOM      7  C   UNL     1     -35.229  23.315   5.708  0.00  0.00    +0.020 C 
ATOM      8  C   UNL     1     -35.259  21.275   2.159  0.00  0.00    +0.106 C 
ATOM      9  C   UNL     1     -35.377  22.208   6.516  0.00  0.00    +0.063 C 
ATOM     10  H   UNL     1     -35.555  20.175   6.028  0.00  0.00    +0.154 HD
ENDROOT
BRANCH   5  13
ATOM     11  O   UNL     1     -35.860  23.942   0.161  0.00  0.00    -0.270 OA
ATOM     12  N   UNL     1     -33.883  22.812  -0.118  0.00  0.00    -0.325 N 
ATOM     13  C   UNL     1     -35.000  23.176   0.627  0.00  0.00    +0.245 C 
ATOM     14  H   UNL     1     -33.772  23.154  -1.035  0.00  0.00    +0.145 HD
ATOM     15  H   UNL     1     -33.205  22.216   0.271  0.00  0.00    +0.145 HD
ENDBRANCH   5  13
BRANCH   3  16
ATOM     16  N   UNL     1     -34.944  24.838   2.969  0.00  0.00    -0.334 N 
ATOM     17  H   UNL     1     -35.713  25.357   2.638  0.00  0.00    +0.147 HD
BRANCH  16  22
ATOM     18  C   UNL     1     -32.904  25.835   2.014  0.00  0.00    +0.020 C 
ATOM     19  C   UNL     1     -34.036  26.874   4.019  0.00  0.00    +0.020 C 
ATOM     20  C   UNL     1     -31.960  27.936   3.049  0.00  0.00    +0.088 C 
ATOM     21  C   UNL     1     -34.128  28.037   1.775  0.00  0.00    +0.002 C 
ATOM     22  C   UNL     1     -33.723  25.550   3.291  0.00  0.00    +0.069 C 
ATOM     23  C   UNL     1     -31.615  26.614   2.345  0.00  0.00    +0.029 C 
ATOM     24  C   UNL     1     -32.737  27.637   4.343  0.00  0.00    +0.029 C 
ATOM     25  C   UNL     1     -33.769  26.709   1.080  0.00  0.00    +0.002 C 
ATOM     26  C   UNL     1     -34.896  27.745   3.080  0.00  0.00    +0.002 C 
ATOM     27  C   UNL     1     -32.834  28.791   2.115  0.00  0.00    +0.027 C 
BRANCH  20  28
ATOM     28  O   UNL     1     -30.770  28.650   3.351  0.00  0.00    -0.387 OA
ATOM     29  H   UNL     1     -30.519  28.484   4.274  0.00  0.00    +0.210 HD
ENDBRANCH  20  28
ENDBRANCH  16  22
ENDBRANCH   3  16
TORSDOF 4
ENDMDL
