MODEL 1
REMARK VINA RESULT:      -6.9      0.000      0.000
REMARK  Name = 53486426
REMARK  6 active torsions:
REMARK  status: ('A' for Active; 'I' for Inactive)
REMARK    1  A    between atoms: C_16  and  O_20
REMARK    2  A    between atoms: O_20  and  C_22
REMARK    3  A    between atoms: C_22  and  C_23
REMARK    4  A    between atoms: C_23  and  C_24
REMARK    5  A    between atoms: C_24  and  C_26
REMARK    6  A    between atoms: C_26  and  O_27
REMARK                            x       y       z     vdW  Elec       q    Type
REMARK                         _______ _______ _______ _____ _____    ______ ____
ROOT
ATOM      1  O   UNL     1     -36.994  24.771   4.921  0.00  0.00    -0.218 OA
ATOM      2  O   UNL     1     -35.026  23.094   3.597  0.00  0.00    -0.306 OA
ATOM      3  O   UNL     1     -37.198  22.608   2.906  0.00  0.00    -0.293 OA
ATOM      4  O   UNL     1     -36.470  23.501   5.418  0.00  0.00    -0.197 OA
ATOM      5  C   UNL     1     -36.658  24.935   3.518  0.00  0.00    +0.178 C 
ATOM      6  C   UNL     1     -35.579  26.065   3.511  0.00  0.00    +0.033 C 
ATOM      7  C   UNL     1     -37.972  25.401   2.833  0.00  0.00    +0.039 C 
ATOM      8  C   UNL     1     -35.367  26.680   2.102  0.00  0.00    +0.003 C 
ATOM      9  C   UNL     1     -36.168  23.604   2.895  0.00  0.00    +0.268 C 
ATOM     10  C   UNL     1     -37.713  26.010   1.445  0.00  0.00    +0.003 C 
ATOM     11  C   UNL     1     -38.994  24.233   2.797  0.00  0.00    +0.073 C 
ATOM     12  C   UNL     1     -34.228  25.639   4.132  0.00  0.00    +0.008 C 
ATOM     13  C   UNL     1     -36.700  27.142   1.507  0.00  0.00    +0.000 C 
ATOM     14  C   UNL     1     -35.109  23.390   4.993  0.00  0.00    +0.221 C 
ATOM     15  C   UNL     1     -34.305  24.665   5.311  0.00  0.00    +0.059 C 
ATOM     16  C   UNL     1     -38.365  22.976   2.178  0.00  0.00    +0.292 C 
ATOM     17  C   UNL     1     -34.392  27.864   2.114  0.00  0.00    +0.000 C 
ATOM     18  C   UNL     1     -40.311  24.608   2.111  0.00  0.00    +0.007 C 
ATOM     19  C   UNL     1     -34.526  22.195   5.745  0.00  0.00    +0.064 C 
ENDROOT
BRANCH  16  20
ATOM     20  O   UNL     1     -39.312  21.910   2.239  0.00  0.00    -0.424 OA
BRANCH  20  22
ATOM     21  O   UNL     1     -40.712  20.901   0.709  0.00  0.00    -0.250 OA
ATOM     22  C   UNL     1     -39.610  21.312   1.045  0.00  0.00    +0.319 C 
BRANCH  22  23
ATOM     23  C   UNL     1     -38.353  21.238   0.205  0.00  0.00    +0.121 C 
BRANCH  23  24
ATOM     24  C   UNL     1     -37.704  19.858   0.219  0.00  0.00    +0.121 C 
BRANCH  24  26
ATOM     25  O   UNL     1     -35.360  19.861   0.800  0.00  0.00    -0.250 OA
ATOM     26  C   UNL     1     -36.528  19.815   1.162  0.00  0.00    +0.314 C 
BRANCH  26  27
ATOM     27  O   UNL     1     -36.903  19.742   2.463  0.00  0.00    -0.480 OA
ATOM     28  H   UNL     1     -37.810  19.657   2.685  0.00  0.00    +0.295 HD
ENDBRANCH  26  27
ENDBRANCH  24  26
ENDBRANCH  23  24
ENDBRANCH  22  23
ENDBRANCH  20  22
ENDBRANCH  16  20
TORSDOF 6
ENDMDL
MODEL 2
REMARK VINA RESULT:      -6.4      3.608      5.952
REMARK  Name = 53486426
REMARK  6 active torsions:
REMARK  status: ('A' for Active; 'I' for Inactive)
REMARK    1  A    between atoms: C_16  and  O_20
REMARK    2  A    between atoms: O_20  and  C_22
REMARK    3  A    between atoms: C_22  and  C_23
REMARK    4  A    between atoms: C_23  and  C_24
REMARK    5  A    between atoms: C_24  and  C_26
REMARK    6  A    between atoms: C_26  and  O_27
REMARK                            x       y       z     vdW  Elec       q    Type
REMARK                         _______ _______ _______ _____ _____    ______ ____
ROOT
ATOM      1  O   UNL     1     -33.024  29.958   3.801  0.00  0.00    -0.218 OA
ATOM      2  O   UNL     1     -31.470  28.052   5.348  0.00  0.00    -0.306 OA
ATOM      3  O   UNL     1     -33.651  27.315   4.984  0.00  0.00    -0.293 OA
ATOM      4  O   UNL     1     -32.868  29.951   5.253  0.00  0.00    -0.197 OA
ATOM      5  C   UNL     1     -32.576  28.694   3.245  0.00  0.00    +0.178 C 
ATOM      6  C   UNL     1     -31.248  29.049   2.502  0.00  0.00    +0.033 C 
ATOM      7  C   UNL     1     -33.688  28.268   2.247  0.00  0.00    +0.039 C 
ATOM      8  C   UNL     1     -30.806  27.944   1.507  0.00  0.00    +0.003 C 
ATOM      9  C   UNL     1     -32.404  27.620   4.349  0.00  0.00    +0.268 C 
ATOM     10  C   UNL     1     -33.203  27.178   1.276  0.00  0.00    +0.003 C 
ATOM     11  C   UNL     1     -34.968  27.857   3.022  0.00  0.00    +0.073 C 
ATOM     12  C   UNL     1     -30.087  29.427   3.452  0.00  0.00    +0.008 C 
ATOM     13  C   UNL     1     -31.942  27.601   0.539  0.00  0.00    +0.000 C 
ATOM     14  C   UNL     1     -31.557  29.465   5.553  0.00  0.00    +0.221 C 
ATOM     15  C   UNL     1     -30.476  30.185   4.725  0.00  0.00    +0.059 C 
ATOM     16  C   UNL     1     -34.643  26.809   4.097  0.00  0.00    +0.292 C 
ATOM     17  C   UNL     1     -29.566  28.339   0.696  0.00  0.00    +0.000 C 
ATOM     18  C   UNL     1     -36.105  27.398   2.104  0.00  0.00    +0.007 C 
ATOM     19  C   UNL     1     -31.339  29.721   7.043  0.00  0.00    +0.064 C 
ENDROOT
BRANCH  16  20
ATOM     20  O   UNL     1     -35.830  26.522   4.834  0.00  0.00    -0.424 OA
BRANCH  20  22
ATOM     21  O   UNL     1     -37.342  24.812   4.502  0.00  0.00    -0.250 OA
ATOM     22  C   UNL     1     -36.233  25.214   4.825  0.00  0.00    +0.319 C 
BRANCH  22  23
ATOM     23  C   UNL     1     -35.083  24.343   5.283  0.00  0.00    +0.121 C 
BRANCH  23  24
ATOM     24  C   UNL     1     -35.102  22.951   4.662  0.00  0.00    +0.121 C 
BRANCH  24  26
ATOM     25  O   UNL     1     -36.037  22.143   6.738  0.00  0.00    -0.250 OA
ATOM     26  C   UNL     1     -35.467  21.901   5.682  0.00  0.00    +0.314 C 
BRANCH  26  27
ATOM     27  O   UNL     1     -35.112  20.650   5.295  0.00  0.00    -0.480 OA
ATOM     28  H   UNL     1     -35.155  20.411   4.390  0.00  0.00    +0.295 HD
ENDBRANCH  26  27
ENDBRANCH  24  26
ENDBRANCH  23  24
ENDBRANCH  22  23
ENDBRANCH  20  22
ENDBRANCH  16  20
TORSDOF 6
ENDMDL
MODEL 3
REMARK VINA RESULT:      -6.3      2.274      5.567
REMARK  Name = 53486426
REMARK  6 active torsions:
REMARK  status: ('A' for Active; 'I' for Inactive)
REMARK    1  A    between atoms: C_16  and  O_20
REMARK    2  A    between atoms: O_20  and  C_22
REMARK    3  A    between atoms: C_22  and  C_23
REMARK    4  A    between atoms: C_23  and  C_24
REMARK    5  A    between atoms: C_24  and  C_26
REMARK    6  A    between atoms: C_26  and  O_27
REMARK                            x       y       z     vdW  Elec       q    Type
REMARK                         _______ _______ _______ _____ _____    ______ ____
ROOT
ATOM      1  O   UNL     1     -39.561  23.801   1.529  0.00  0.00    -0.218 OA
ATOM      2  O   UNL     1     -38.884  26.285   2.877  0.00  0.00    -0.306 OA
ATOM      3  O   UNL     1     -37.704  24.470   3.739  0.00  0.00    -0.293 OA
ATOM      4  O   UNL     1     -40.254  24.374   2.679  0.00  0.00    -0.197 OA
ATOM      5  C   UNL     1     -38.279  24.458   1.341  0.00  0.00    +0.178 C 
ATOM      6  C   UNL     1     -38.469  25.309   0.045  0.00  0.00    +0.033 C 
ATOM      7  C   UNL     1     -37.258  23.309   1.121  0.00  0.00    +0.039 C 
ATOM      8  C   UNL     1     -37.122  25.778  -0.565  0.00  0.00    +0.003 C 
ATOM      9  C   UNL     1     -37.887  25.297   2.584  0.00  0.00    +0.268 C 
ATOM     10  C   UNL     1     -35.942  23.817   0.508  0.00  0.00    +0.003 C 
ATOM     11  C   UNL     1     -37.042  22.529   2.445  0.00  0.00    +0.073 C 
ATOM     12  C   UNL     1     -39.435  26.504   0.222  0.00  0.00    +0.008 C 
ATOM     13  C   UNL     1     -36.182  24.588  -0.780  0.00  0.00    +0.000 C 
ATOM     14  C   UNL     1     -40.193  25.799   2.568  0.00  0.00    +0.221 C 
ATOM     15  C   UNL     1     -40.618  26.281   1.168  0.00  0.00    +0.059 C 
ATOM     16  C   UNL     1     -36.684  23.487   3.592  0.00  0.00    +0.292 C 
ATOM     17  C   UNL     1     -37.300  26.517  -1.897  0.00  0.00    +0.000 C 
ATOM     18  C   UNL     1     -36.025  21.392   2.315  0.00  0.00    +0.007 C 
ATOM     19  C   UNL     1     -41.143  26.349   3.629  0.00  0.00    +0.064 C 
ENDROOT
BRANCH  16  20
ATOM     20  O   UNL     1     -36.575  22.737   4.800  0.00  0.00    -0.424 OA
BRANCH  20  22
ATOM     21  O   UNL     1     -35.201  22.471   6.633  0.00  0.00    -0.250 OA
ATOM     22  C   UNL     1     -35.464  22.992   5.558  0.00  0.00    +0.319 C 
BRANCH  22  23
ATOM     23  C   UNL     1     -34.613  24.025   4.851  0.00  0.00    +0.121 C 
BRANCH  23  24
ATOM     24  C   UNL     1     -34.445  25.311   5.652  0.00  0.00    +0.121 C 
BRANCH  24  26
ATOM     25  O   UNL     1     -34.793  27.196   4.182  0.00  0.00    -0.250 OA
ATOM     26  C   UNL     1     -35.233  26.443   5.041  0.00  0.00    +0.314 C 
BRANCH  26  27
ATOM     27  O   UNL     1     -36.495  26.526   5.530  0.00  0.00    -0.480 OA
ATOM     28  H   UNL     1     -37.223  26.289   4.990  0.00  0.00    +0.295 HD
ENDBRANCH  26  27
ENDBRANCH  24  26
ENDBRANCH  23  24
ENDBRANCH  22  23
ENDBRANCH  20  22
ENDBRANCH  16  20
TORSDOF 6
ENDMDL
MODEL 4
REMARK VINA RESULT:      -6.2      2.217      6.395
REMARK  Name = 53486426
REMARK  6 active torsions:
REMARK  status: ('A' for Active; 'I' for Inactive)
REMARK    1  A    between atoms: C_16  and  O_20
REMARK    2  A    between atoms: O_20  and  C_22
REMARK    3  A    between atoms: C_22  and  C_23
REMARK    4  A    between atoms: C_23  and  C_24
REMARK    5  A    between atoms: C_24  and  C_26
REMARK    6  A    between atoms: C_26  and  O_27
REMARK                            x       y       z     vdW  Elec       q    Type
REMARK                         _______ _______ _______ _____ _____    ______ ____
ROOT
ATOM      1  O   UNL     1     -37.997  23.811   3.440  0.00  0.00    -0.218 OA
ATOM      2  O   UNL     1     -36.406  25.046   1.345  0.00  0.00    -0.306 OA
ATOM      3  O   UNL     1     -35.207  24.804   3.329  0.00  0.00    -0.293 OA
ATOM      4  O   UNL     1     -37.929  25.238   3.137  0.00  0.00    -0.197 OA
ATOM      5  C   UNL     1     -36.911  23.109   2.778  0.00  0.00    +0.178 C 
ATOM      6  C   UNL     1     -37.614  22.291   1.648  0.00  0.00    +0.033 C 
ATOM      7  C   UNL     1     -36.306  22.175   3.862  0.00  0.00    +0.039 C 
ATOM      8  C   UNL     1     -36.711  21.168   1.073  0.00  0.00    +0.003 C 
ATOM      9  C   UNL     1     -35.836  24.095   2.255  0.00  0.00    +0.268 C 
ATOM     10  C   UNL     1     -35.426  21.074   3.248  0.00  0.00    +0.003 C 
ATOM     11  C   UNL     1     -35.557  23.017   4.930  0.00  0.00    +0.073 C 
ATOM     12  C   UNL     1     -38.188  23.167   0.510  0.00  0.00    +0.008 C 
ATOM     13  C   UNL     1     -36.179  20.273   2.197  0.00  0.00    +0.000 C 
ATOM     14  C   UNL     1     -37.742  25.381   1.726  0.00  0.00    +0.221 C 
ATOM     15  C   UNL     1     -38.748  24.531   0.927  0.00  0.00    +0.059 C 
ATOM     16  C   UNL     1     -34.544  23.963   4.268  0.00  0.00    +0.292 C 
ATOM     17  C   UNL     1     -37.437  20.292   0.045  0.00  0.00    +0.000 C 
ATOM     18  C   UNL     1     -34.909  22.163   6.023  0.00  0.00    +0.007 C 
ATOM     19  C   UNL     1     -37.942  26.864   1.419  0.00  0.00    +0.064 C 
ENDROOT
BRANCH  16  20
ATOM     20  O   UNL     1     -33.940  24.770   5.278  0.00  0.00    -0.424 OA
BRANCH  20  22
ATOM     21  O   UNL     1     -35.634  26.304   5.595  0.00  0.00    -0.250 OA
ATOM     22  C   UNL     1     -34.454  26.031   5.416  0.00  0.00    +0.319 C 
BRANCH  22  23
ATOM     23  C   UNL     1     -33.327  27.035   5.310  0.00  0.00    +0.121 C 
BRANCH  23  24
ATOM     24  C   UNL     1     -32.927  27.335   3.870  0.00  0.00    +0.121 C 
BRANCH  24  26
ATOM     25  O   UNL     1     -34.371  29.224   3.439  0.00  0.00    -0.250 OA
ATOM     26  C   UNL     1     -34.014  28.091   3.145  0.00  0.00    +0.314 C 
BRANCH  26  27
ATOM     27  O   UNL     1     -34.543  27.385   2.114  0.00  0.00    -0.480 OA
ATOM     28  H   UNL     1     -34.196  27.489   1.249  0.00  0.00    +0.295 HD
ENDBRANCH  26  27
ENDBRANCH  24  26
ENDBRANCH  23  24
ENDBRANCH  22  23
ENDBRANCH  20  22
ENDBRANCH  16  20
TORSDOF 6
ENDMDL
MODEL 5
REMARK VINA RESULT:      -6.2      3.679      7.375
REMARK  Name = 53486426
REMARK  6 active torsions:
REMARK  status: ('A' for Active; 'I' for Inactive)
REMARK    1  A    between atoms: C_16  and  O_20
REMARK    2  A    between atoms: O_20  and  C_22
REMARK    3  A    between atoms: C_22  and  C_23
REMARK    4  A    between atoms: C_23  and  C_24
REMARK    5  A    between atoms: C_24  and  C_26
REMARK    6  A    between atoms: C_26  and  O_27
REMARK                            x       y       z     vdW  Elec       q    Type
REMARK                         _______ _______ _______ _____ _____    ______ ____
ROOT
ATOM      1  O   UNL     1     -34.509  24.250   2.922  0.00  0.00    -0.218 OA
ATOM      2  O   UNL     1     -35.985  24.723   5.379  0.00  0.00    -0.306 OA
ATOM      3  O   UNL     1     -34.081  26.059   5.229  0.00  0.00    -0.293 OA
ATOM      4  O   UNL     1     -34.351  23.519   4.176  0.00  0.00    -0.197 OA
ATOM      5  C   UNL     1     -35.263  25.470   3.147  0.00  0.00    +0.178 C 
ATOM      6  C   UNL     1     -36.644  25.199   2.467  0.00  0.00    +0.033 C 
ATOM      7  C   UNL     1     -34.474  26.583   2.405  0.00  0.00    +0.039 C 
ATOM      8  C   UNL     1     -37.461  26.497   2.236  0.00  0.00    +0.003 C 
ATOM      9  C   UNL     1     -35.369  25.799   4.658  0.00  0.00    +0.268 C 
ATOM     10  C   UNL     1     -35.324  27.847   2.191  0.00  0.00    +0.003 C 
ATOM     11  C   UNL     1     -33.143  26.874   3.148  0.00  0.00    +0.073 C 
ATOM     12  C   UNL     1     -37.499  24.137   3.196  0.00  0.00    +0.008 C 
ATOM     13  C   UNL     1     -36.628  27.533   1.475  0.00  0.00    +0.000 C 
ATOM     14  C   UNL     1     -35.629  23.459   4.816  0.00  0.00    +0.221 C 
ATOM     15  C   UNL     1     -36.730  22.983   3.848  0.00  0.00    +0.059 C 
ATOM     16  C   UNL     1     -33.396  27.157   4.636  0.00  0.00    +0.292 C 
ATOM     17  C   UNL     1     -38.765  26.248   1.467  0.00  0.00    +0.000 C 
ATOM     18  C   UNL     1     -32.317  27.982   2.489  0.00  0.00    +0.007 C 
ATOM     19  C   UNL     1     -35.480  22.472   5.972  0.00  0.00    +0.064 C 
ENDROOT
BRANCH  16  20
ATOM     20  O   UNL     1     -32.142  27.338   5.290  0.00  0.00    -0.424 OA
BRANCH  20  22
ATOM     21  O   UNL     1     -32.696  27.422   7.528  0.00  0.00    -0.250 OA
ATOM     22  C   UNL     1     -32.197  27.920   6.528  0.00  0.00    +0.319 C 
BRANCH  22  23
ATOM     23  C   UNL     1     -31.541  29.282   6.461  0.00  0.00    +0.121 C 
BRANCH  23  24
ATOM     24  C   UNL     1     -30.140  29.243   5.859  0.00  0.00    +0.121 C 
BRANCH  24  26
ATOM     25  O   UNL     1     -28.785  27.293   6.304  0.00  0.00    -0.250 OA
ATOM     26  C   UNL     1     -29.217  28.375   6.678  0.00  0.00    +0.314 C 
BRANCH  26  27
ATOM     27  O   UNL     1     -28.897  28.934   7.872  0.00  0.00    -0.480 OA
ATOM     28  H   UNL     1     -28.585  29.817   7.908  0.00  0.00    +0.295 HD
ENDBRANCH  26  27
ENDBRANCH  24  26
ENDBRANCH  23  24
ENDBRANCH  22  23
ENDBRANCH  20  22
ENDBRANCH  16  20
TORSDOF 6
ENDMDL
MODEL 6
REMARK VINA RESULT:      -6.1      2.840      6.911
REMARK  Name = 53486426
REMARK  6 active torsions:
REMARK  status: ('A' for Active; 'I' for Inactive)
REMARK    1  A    between atoms: C_16  and  O_20
REMARK    2  A    between atoms: O_20  and  C_22
REMARK    3  A    between atoms: C_22  and  C_23
REMARK    4  A    between atoms: C_23  and  C_24
REMARK    5  A    between atoms: C_24  and  C_26
REMARK    6  A    between atoms: C_26  and  O_27
REMARK                            x       y       z     vdW  Elec       q    Type
REMARK                         _______ _______ _______ _____ _____    ______ ____
ROOT
ATOM      1  O   UNL     1     -38.529  24.657   3.873  0.00  0.00    -0.218 OA
ATOM      2  O   UNL     1     -37.961  25.363   1.112  0.00  0.00    -0.306 OA
ATOM      3  O   UNL     1     -36.493  26.394   2.601  0.00  0.00    -0.293 OA
ATOM      4  O   UNL     1     -39.130  25.757   3.124  0.00  0.00    -0.197 OA
ATOM      5  C   UNL     1     -37.360  24.157   3.172  0.00  0.00    +0.178 C 
ATOM      6  C   UNL     1     -37.801  22.757   2.637  0.00  0.00    +0.033 C 
ATOM      7  C   UNL     1     -36.256  24.027   4.258  0.00  0.00    +0.039 C 
ATOM      8  C   UNL     1     -36.599  21.876   2.205  0.00  0.00    +0.003 C 
ATOM      9  C   UNL     1     -36.907  25.135   2.058  0.00  0.00    +0.268 C 
ATOM     10  C   UNL     1     -35.090  23.140   3.790  0.00  0.00    +0.003 C 
ATOM     11  C   UNL     1     -35.793  25.436   4.715  0.00  0.00    +0.073 C 
ATOM     12  C   UNL     1     -38.861  22.827   1.512  0.00  0.00    +0.008 C 
ATOM     13  C   UNL     1     -35.571  21.771   3.335  0.00  0.00    +0.000 C 
ATOM     14  C   UNL     1     -39.237  25.353   1.756  0.00  0.00    +0.221 C 
ATOM     15  C   UNL     1     -39.885  23.962   1.620  0.00  0.00    +0.059 C 
ATOM     16  C   UNL     1     -35.400  26.301   3.509  0.00  0.00    +0.292 C 
ATOM     17  C   UNL     1     -37.022  20.463   1.786  0.00  0.00    +0.000 C 
ATOM     18  C   UNL     1     -34.684  25.391   5.770  0.00  0.00    +0.007 C 
ATOM     19  C   UNL     1     -40.101  26.407   1.067  0.00  0.00    +0.064 C 
ENDROOT
BRANCH  16  20
ATOM     20  O   UNL     1     -35.060  27.607   3.970  0.00  0.00    -0.424 OA
BRANCH  20  22
ATOM     21  O   UNL     1     -34.217  29.295   2.643  0.00  0.00    -0.250 OA
ATOM     22  C   UNL     1     -34.079  28.250   3.264  0.00  0.00    +0.319 C 
BRANCH  22  23
ATOM     23  C   UNL     1     -32.795  27.456   3.372  0.00  0.00    +0.121 C 
BRANCH  23  24
ATOM     24  C   UNL     1     -31.664  28.234   4.034  0.00  0.00    +0.121 C 
BRANCH  24  26
ATOM     25  O   UNL     1     -32.302  29.612   5.914  0.00  0.00    -0.250 OA
ATOM     26  C   UNL     1     -31.970  28.515   5.485  0.00  0.00    +0.314 C 
BRANCH  26  27
ATOM     27  O   UNL     1     -31.858  27.412   6.266  0.00  0.00    -0.480 OA
ATOM     28  H   UNL     1     -31.170  27.355   6.901  0.00  0.00    +0.295 HD
ENDBRANCH  26  27
ENDBRANCH  24  26
ENDBRANCH  23  24
ENDBRANCH  22  23
ENDBRANCH  20  22
ENDBRANCH  16  20
TORSDOF 6
ENDMDL
MODEL 7
REMARK VINA RESULT:      -6.0      3.362      7.334
REMARK  Name = 53486426
REMARK  6 active torsions:
REMARK  status: ('A' for Active; 'I' for Inactive)
REMARK    1  A    between atoms: C_16  and  O_20
REMARK    2  A    between atoms: O_20  and  C_22
REMARK    3  A    between atoms: C_22  and  C_23
REMARK    4  A    between atoms: C_23  and  C_24
REMARK    5  A    between atoms: C_24  and  C_26
REMARK    6  A    between atoms: C_26  and  O_27
REMARK                            x       y       z     vdW  Elec       q    Type
REMARK                         _______ _______ _______ _____ _____    ______ ____
ROOT
ATOM      1  O   UNL     1     -34.568  24.223   2.880  0.00  0.00    -0.218 OA
ATOM      2  O   UNL     1     -35.990  24.790   5.350  0.00  0.00    -0.306 OA
ATOM      3  O   UNL     1     -34.053  26.069   5.140  0.00  0.00    -0.293 OA
ATOM      4  O   UNL     1     -34.410  23.515   4.147  0.00  0.00    -0.197 OA
ATOM      5  C   UNL     1     -35.285  25.468   3.091  0.00  0.00    +0.178 C 
ATOM      6  C   UNL     1     -36.683  25.222   2.439  0.00  0.00    +0.033 C 
ATOM      7  C   UNL     1     -34.478  26.543   2.312  0.00  0.00    +0.039 C 
ATOM      8  C   UNL     1     -37.468  26.538   2.193  0.00  0.00    +0.003 C 
ATOM      9  C   UNL     1     -35.356  25.832   4.596  0.00  0.00    +0.268 C 
ATOM     10  C   UNL     1     -35.296  27.825   2.085  0.00  0.00    +0.003 C 
ATOM     11  C   UNL     1     -33.127  26.812   3.027  0.00  0.00    +0.073 C 
ATOM     12  C   UNL     1     -37.556  24.200   3.205  0.00  0.00    +0.008 C 
ATOM     13  C   UNL     1     -36.620  27.533   1.396  0.00  0.00    +0.000 C 
ATOM     14  C   UNL     1     -35.679  23.504   4.808  0.00  0.00    +0.221 C 
ATOM     15  C   UNL     1     -36.808  23.040   3.869  0.00  0.00    +0.059 C 
ATOM     16  C   UNL     1     -33.348  27.134   4.512  0.00  0.00    +0.292 C 
ATOM     17  C   UNL     1     -38.791  26.309   1.451  0.00  0.00    +0.000 C 
ATOM     18  C   UNL     1     -32.281  27.883   2.331  0.00  0.00    +0.007 C 
ATOM     19  C   UNL     1     -35.537  22.539   5.983  0.00  0.00    +0.064 C 
ENDROOT
BRANCH  16  20
ATOM     20  O   UNL     1     -32.078  27.294   5.143  0.00  0.00    -0.424 OA
BRANCH  20  22
ATOM     21  O   UNL     1     -32.651  27.927   7.285  0.00  0.00    -0.250 OA
ATOM     22  C   UNL     1     -32.056  28.120   6.233  0.00  0.00    +0.319 C 
BRANCH  22  23
ATOM     23  C   UNL     1     -31.179  29.315   5.928  0.00  0.00    +0.121 C 
BRANCH  23  24
ATOM     24  C   UNL     1     -31.957  30.623   5.845  0.00  0.00    +0.121 C 
BRANCH  24  26
ATOM     25  O   UNL     1     -33.726  30.622   4.200  0.00  0.00    -0.250 OA
ATOM     26  C   UNL     1     -32.550  30.821   4.472  0.00  0.00    +0.314 C 
BRANCH  26  27
ATOM     27  O   UNL     1     -31.641  31.267   3.570  0.00  0.00    -0.480 OA
ATOM     28  H   UNL     1     -31.794  31.148   2.652  0.00  0.00    +0.295 HD
ENDBRANCH  26  27
ENDBRANCH  24  26
ENDBRANCH  23  24
ENDBRANCH  22  23
ENDBRANCH  20  22
ENDBRANCH  16  20
TORSDOF 6
ENDMDL
MODEL 8
REMARK VINA RESULT:      -6.0      2.850      7.059
REMARK  Name = 53486426
REMARK  6 active torsions:
REMARK  status: ('A' for Active; 'I' for Inactive)
REMARK    1  A    between atoms: C_16  and  O_20
REMARK    2  A    between atoms: O_20  and  C_22
REMARK    3  A    between atoms: C_22  and  C_23
REMARK    4  A    between atoms: C_23  and  C_24
REMARK    5  A    between atoms: C_24  and  C_26
REMARK    6  A    between atoms: C_26  and  O_27
REMARK                            x       y       z     vdW  Elec       q    Type
REMARK                         _______ _______ _______ _____ _____    ______ ____
ROOT
ATOM      1  O   UNL     1     -38.438  25.037   3.825  0.00  0.00    -0.218 OA
ATOM      2  O   UNL     1     -37.777  25.635   1.060  0.00  0.00    -0.306 OA
ATOM      3  O   UNL     1     -36.310  26.660   2.553  0.00  0.00    -0.293 OA
ATOM      4  O   UNL     1     -38.981  26.132   3.027  0.00  0.00    -0.197 OA
ATOM      5  C   UNL     1     -37.270  24.474   3.171  0.00  0.00    +0.178 C 
ATOM      6  C   UNL     1     -37.748  23.074   2.668  0.00  0.00    +0.033 C 
ATOM      7  C   UNL     1     -36.199  24.341   4.288  0.00  0.00    +0.039 C 
ATOM      8  C   UNL     1     -36.567  22.139   2.294  0.00  0.00    +0.003 C 
ATOM      9  C   UNL     1     -36.756  25.400   2.039  0.00  0.00    +0.268 C 
ATOM     10  C   UNL     1     -35.054  23.399   3.878  0.00  0.00    +0.003 C 
ATOM     11  C   UNL     1     -35.698  25.746   4.713  0.00  0.00    +0.073 C 
ATOM     12  C   UNL     1     -38.776  23.145   1.514  0.00  0.00    +0.008 C 
ATOM     13  C   UNL     1     -35.572  22.034   3.453  0.00  0.00    +0.000 C 
ATOM     14  C   UNL     1     -39.069  25.689   1.670  0.00  0.00    +0.221 C 
ATOM     15  C   UNL     1     -39.761  24.317   1.561  0.00  0.00    +0.059 C 
ATOM     16  C   UNL     1     -35.244  26.559   3.491  0.00  0.00    +0.292 C 
ATOM     17  C   UNL     1     -37.029  20.728   1.908  0.00  0.00    +0.000 C 
ATOM     18  C   UNL     1     -34.617  25.697   5.797  0.00  0.00    +0.007 C 
ATOM     19  C   UNL     1     -39.877  26.750   0.927  0.00  0.00    +0.064 C 
ENDROOT
BRANCH  16  20
ATOM     20  O   UNL     1     -34.869  27.866   3.921  0.00  0.00    -0.424 OA
BRANCH  20  22
ATOM     21  O   UNL     1     -32.564  27.910   3.864  0.00  0.00    -0.250 OA
ATOM     22  C   UNL     1     -33.653  28.311   3.477  0.00  0.00    +0.319 C 
BRANCH  22  23
ATOM     23  C   UNL     1     -33.874  29.381   2.430  0.00  0.00    +0.121 C 
BRANCH  23  24
ATOM     24  C   UNL     1     -34.672  30.572   2.950  0.00  0.00    +0.121 C 
BRANCH  24  26
ATOM     25  O   UNL     1     -36.521  31.788   1.981  0.00  0.00    -0.250 OA
ATOM     26  C   UNL     1     -35.982  30.715   2.216  0.00  0.00    +0.314 C 
BRANCH  26  27
ATOM     27  O   UNL     1     -36.493  29.522   1.822  0.00  0.00    -0.480 OA
ATOM     28  H   UNL     1     -37.390  29.462   1.555  0.00  0.00    +0.295 HD
ENDBRANCH  26  27
ENDBRANCH  24  26
ENDBRANCH  23  24
ENDBRANCH  22  23
ENDBRANCH  20  22
ENDBRANCH  16  20
TORSDOF 6
ENDMDL
MODEL 9
REMARK VINA RESULT:      -6.0      2.283      6.064
REMARK  Name = 53486426
REMARK  6 active torsions:
REMARK  status: ('A' for Active; 'I' for Inactive)
REMARK    1  A    between atoms: C_16  and  O_20
REMARK    2  A    between atoms: O_20  and  C_22
REMARK    3  A    between atoms: C_22  and  C_23
REMARK    4  A    between atoms: C_23  and  C_24
REMARK    5  A    between atoms: C_24  and  C_26
REMARK    6  A    between atoms: C_26  and  O_27
REMARK                            x       y       z     vdW  Elec       q    Type
REMARK                         _______ _______ _______ _____ _____    ______ ____
ROOT
ATOM      1  O   UNL     1     -35.251  21.364  -0.888  0.00  0.00    -0.218 OA
ATOM      2  O   UNL     1     -34.935  19.659   1.443  0.00  0.00    -0.306 OA
ATOM      3  O   UNL     1     -35.554  21.830   2.023  0.00  0.00    -0.293 OA
ATOM      4  O   UNL     1     -34.010  21.125  -0.158  0.00  0.00    -0.197 OA
ATOM      5  C   UNL     1     -36.386  20.905  -0.107  0.00  0.00    +0.178 C 
ATOM      6  C   UNL     1     -36.887  19.635  -0.866  0.00  0.00    +0.033 C 
ATOM      7  C   UNL     1     -37.426  22.056  -0.179  0.00  0.00    +0.039 C 
ATOM      8  C   UNL     1     -38.319  19.212  -0.443  0.00  0.00    +0.003 C 
ATOM      9  C   UNL     1     -35.986  20.632   1.366  0.00  0.00    +0.268 C 
ATOM     10  C   UNL     1     -38.831  21.591   0.241  0.00  0.00    +0.003 C 
ATOM     11  C   UNL     1     -36.927  23.275   0.643  0.00  0.00    +0.073 C 
ATOM     12  C   UNL     1     -35.915  18.435  -0.780  0.00  0.00    +0.008 C 
ATOM     13  C   UNL     1     -39.291  20.389  -0.569  0.00  0.00    +0.000 C 
ATOM     14  C   UNL     1     -34.039  19.782   0.336  0.00  0.00    +0.221 C 
ATOM     15  C   UNL     1     -34.422  18.777  -0.767  0.00  0.00    +0.059 C 
ATOM     16  C   UNL     1     -36.543  22.852   2.069  0.00  0.00    +0.292 C 
ATOM     17  C   UNL     1     -38.856  18.035  -1.266  0.00  0.00    +0.000 C 
ATOM     18  C   UNL     1     -37.914  24.446   0.641  0.00  0.00    +0.007 C 
ATOM     19  C   UNL     1     -32.633  19.489   0.854  0.00  0.00    +0.064 C 
ENDROOT
BRANCH  16  20
ATOM     20  O   UNL     1     -36.017  23.985   2.758  0.00  0.00    -0.424 OA
BRANCH  20  22
ATOM     21  O   UNL     1     -37.790  24.335   4.191  0.00  0.00    -0.250 OA
ATOM     22  C   UNL     1     -36.589  24.261   3.971  0.00  0.00    +0.319 C 
BRANCH  22  23
ATOM     23  C   UNL     1     -35.494  24.462   4.996  0.00  0.00    +0.121 C 
BRANCH  23  24
ATOM     24  C   UNL     1     -34.614  23.231   5.182  0.00  0.00    +0.121 C 
BRANCH  24  26
ATOM     25  O   UNL     1     -36.102  22.067   6.688  0.00  0.00    -0.250 OA
ATOM     26  C   UNL     1     -35.418  22.053   5.673  0.00  0.00    +0.314 C 
BRANCH  26  27
ATOM     27  O   UNL     1     -35.319  20.975   4.855  0.00  0.00    -0.480 OA
ATOM     28  H   UNL     1     -35.913  20.877   4.136  0.00  0.00    +0.295 HD
ENDBRANCH  26  27
ENDBRANCH  24  26
ENDBRANCH  23  24
ENDBRANCH  22  23
ENDBRANCH  20  22
ENDBRANCH  16  20
TORSDOF 6
ENDMDL
