MODEL 1
REMARK VINA RESULT:      -6.0      0.000      0.000
REMARK  Name = 53486338
REMARK  7 active torsions:
REMARK  status: ('A' for Active; 'I' for Inactive)
REMARK    1  A    between atoms: C_4  and  C_29
REMARK    2  A    between atoms: CA_6  and  N_11
REMARK    3  A    between atoms: CA_7  and  C_28
REMARK    4  A    between atoms: C_12  and  C_15
REMARK    5  A    between atoms: N_14  and  O_24
REMARK    6  A    between atoms: C_15  and  C_19
REMARK    7  A    between atoms: C_29  and  N_30
REMARK                            x       y       z     vdW  Elec       q    Type
REMARK                         _______ _______ _______ _____ _____    ______ ____
ROOT
ATOM      1  S   UNL     1     -35.357  22.389   3.828  0.00  0.00    -0.114 S 
ATOM      2  O   UNL     1     -37.792  25.393   1.216  0.00  0.00    -0.273 OA
ATOM      3  N   UNL     1     -37.135  23.307   2.091  0.00  0.00    -0.242 N 
ATOM      4  C   UNL     1     -36.472  21.100   1.576  0.00  0.00    -0.034 C 
ATOM      5  C   UNL     1     -36.949  23.183   3.523  0.00  0.00    +0.155 C 
ATOM      6  CA  UNL     1     -36.972  24.727   3.561  0.00  0.00    +0.179 C 
ATOM      7  CA  UNL     1     -37.050  22.271   1.216  0.00  0.00    +0.126 C 
ATOM      8  C   UNL     1     -35.832  20.863   2.943  0.00  0.00    +0.081 C 
ATOM      9  C   UNL     1     -37.419  24.626   2.073  0.00  0.00    +0.251 C 
ENDROOT
BRANCH   6  11
ATOM     10  O   UNL     1     -36.005  26.271   5.877  0.00  0.00    -0.268 OA
ATOM     11  N   UNL     1     -35.661  25.342   3.749  0.00  0.00    -0.291 N 
ATOM     12  C   UNL     1     -35.322  26.049   4.891  0.00  0.00    +0.269 C 
ATOM     13  H   UNL     1     -34.990  25.251   3.034  0.00  0.00    +0.150 HD
BRANCH  12  15
ATOM     14  N   UNL     1     -33.287  26.846   5.965  0.00  0.00    -0.076 NA
ATOM     15  C   UNL     1     -33.915  26.586   4.858  0.00  0.00    +0.198 C 
BRANCH  15  19
ATOM     16  S   UNL     1     -32.460  27.875   1.380  0.00  0.00    -0.060 S 
ATOM     17  N   UNL     1     -32.547  25.807   2.929  0.00  0.00    -0.383 NA
ATOM     18  N   UNL     1     -31.323  25.512   0.928  0.00  0.00    -0.328 N 
ATOM     19  C   UNL     1     -33.265  26.817   3.540  0.00  0.00    +0.148 C 
ATOM     20  C   UNL     1     -33.330  28.011   2.851  0.00  0.00    +0.127 C 
ATOM     21  C   UNL     1     -32.077  26.251   1.786  0.00  0.00    +0.204 C 
ATOM     22  H   UNL     1     -31.004  25.910   0.086  0.00  0.00    +0.145 HD
ATOM     23  H   UNL     1     -31.098  24.580   1.150  0.00  0.00    +0.145 HD
ENDBRANCH  15  19
BRANCH  14  24
ATOM     24  O   UNL     1     -31.996  27.340   5.726  0.00  0.00    -0.373 OA
ATOM     25  C   UNL     1     -31.834  28.530   6.481  0.00  0.00    +0.288 C 
ENDBRANCH  14  24
ENDBRANCH  12  15
ENDBRANCH   6  11
BRANCH   7  28
ATOM     26  O   UNL     1     -36.680  22.977  -0.992  0.00  0.00    -0.239 OA
ATOM     27  OXT UNL     1     -38.724  22.122  -0.422  0.00  0.00    -0.239 OA
ATOM     28  C   UNL     1     -37.534  22.478  -0.214  0.00  0.00    +0.401 C 
ENDBRANCH   7  28
BRANCH   4  29
ATOM     29  C   UNL     1     -36.390  19.884   0.687  0.00  0.00    -0.048 C 
BRANCH  29  30
ATOM     30  N   UNL     1     -35.070  19.799  -0.065  0.00  0.00    +0.391 N 
ATOM     31  C   UNL     1     -34.136  20.951   0.362  0.00  0.00    -0.073 C 
ATOM     32  C   UNL     1     -34.323  18.498   0.296  0.00  0.00    -0.073 C 
ATOM     33  C   UNL     1     -32.800  20.285   0.622  0.00  0.00    -0.024 C 
ATOM     34  C   UNL     1     -33.192  18.944   1.201  0.00  0.00    -0.024 C 
ATOM     35  C   UNL     1     -35.341  19.856  -1.560  0.00  0.00    -0.095 C 
ENDBRANCH  29  30
ENDBRANCH   4  29
TORSDOF 7
ENDMDL
MODEL 2
REMARK VINA RESULT:      -5.8      2.495      4.165
REMARK  Name = 53486338
REMARK  7 active torsions:
REMARK  status: ('A' for Active; 'I' for Inactive)
REMARK    1  A    between atoms: C_4  and  C_29
REMARK    2  A    between atoms: CA_6  and  N_11
REMARK    3  A    between atoms: CA_7  and  C_28
REMARK    4  A    between atoms: C_12  and  C_15
REMARK    5  A    between atoms: N_14  and  O_24
REMARK    6  A    between atoms: C_15  and  C_19
REMARK    7  A    between atoms: C_29  and  N_30
REMARK                            x       y       z     vdW  Elec       q    Type
REMARK                         _______ _______ _______ _____ _____    ______ ____
ROOT
ATOM      1  S   UNL     1     -33.031  25.913   2.425  0.00  0.00    -0.114 S 
ATOM      2  O   UNL     1     -36.225  26.327   5.802  0.00  0.00    -0.273 OA
ATOM      3  N   UNL     1     -35.136  25.376   3.942  0.00  0.00    -0.242 N 
ATOM      4  C   UNL     1     -35.399  24.530   1.754  0.00  0.00    -0.034 C 
ATOM      5  C   UNL     1     -33.691  25.256   3.971  0.00  0.00    +0.155 C 
ATOM      6  CA  UNL     1     -33.732  26.222   5.175  0.00  0.00    +0.179 C 
ATOM      7  CA  UNL     1     -35.925  24.888   2.950  0.00  0.00    +0.126 C 
ATOM      8  C   UNL     1     -33.921  24.689   1.403  0.00  0.00    +0.081 C 
ATOM      9  C   UNL     1     -35.274  26.009   5.127  0.00  0.00    +0.251 C 
ENDROOT
BRANCH   6  11
ATOM     10  O   UNL     1     -31.393  27.682   6.215  0.00  0.00    -0.268 OA
ATOM     11  N   UNL     1     -33.310  27.586   4.864  0.00  0.00    -0.291 N 
ATOM     12  C   UNL     1     -32.183  28.166   5.421  0.00  0.00    +0.269 C 
ATOM     13  H   UNL     1     -33.850  28.115   4.233  0.00  0.00    +0.150 HD
BRANCH  12  15
ATOM     14  N   UNL     1     -31.103  30.344   5.566  0.00  0.00    -0.076 NA
ATOM     15  C   UNL     1     -31.948  29.576   4.947  0.00  0.00    +0.198 C 
BRANCH  15  19
ATOM     16  S   UNL     1     -33.360  30.744   1.409  0.00  0.00    -0.060 S 
ATOM     17  N   UNL     1     -33.997  30.533   3.905  0.00  0.00    -0.383 NA
ATOM     18  N   UNL     1     -35.686  31.419   2.509  0.00  0.00    -0.328 N 
ATOM     19  C   UNL     1     -32.703  30.071   3.764  0.00  0.00    +0.148 C 
ATOM     20  C   UNL     1     -32.186  30.108   2.485  0.00  0.00    +0.127 C 
ATOM     21  C   UNL     1     -34.444  30.912   2.730  0.00  0.00    +0.204 C 
ATOM     22  H   UNL     1     -35.955  31.685   1.600  0.00  0.00    +0.145 HD
ATOM     23  H   UNL     1     -36.316  31.521   3.259  0.00  0.00    +0.145 HD
ENDBRANCH  15  19
BRANCH  14  24
ATOM     24  O   UNL     1     -31.029  31.615   4.979  0.00  0.00    -0.373 OA
ATOM     25  C   UNL     1     -29.677  31.856   4.619  0.00  0.00    +0.288 C 
ENDBRANCH  14  24
ENDBRANCH  12  15
ENDBRANCH   6  11
BRANCH   7  28
ATOM     26  O   UNL     1     -38.054  25.866   2.803  0.00  0.00    -0.239 OA
ATOM     27  OXT UNL     1     -37.849  23.768   3.692  0.00  0.00    -0.239 OA
ATOM     28  C   UNL     1     -37.432  24.835   3.171  0.00  0.00    +0.401 C 
ENDBRANCH   7  28
BRANCH   4  29
ATOM     29  C   UNL     1     -36.194  23.926   0.623  0.00  0.00    -0.048 C 
BRANCH  29  30
ATOM     30  N   UNL     1     -35.991  22.422   0.506  0.00  0.00    +0.391 N 
ATOM     31  C   UNL     1     -35.327  21.871   1.785  0.00  0.00    -0.073 C 
ATOM     32  C   UNL     1     -37.349  21.699   0.393  0.00  0.00    -0.073 C 
ATOM     33  C   UNL     1     -36.149  20.650   2.148  0.00  0.00    -0.024 C 
ATOM     34  C   UNL     1     -37.551  21.050   1.748  0.00  0.00    -0.024 C 
ATOM     35  C   UNL     1     -35.131  22.127  -0.712  0.00  0.00    -0.095 C 
ENDBRANCH  29  30
ENDBRANCH   4  29
TORSDOF 7
ENDMDL
MODEL 3
REMARK VINA RESULT:      -5.7      1.941      2.887
REMARK  Name = 53486338
REMARK  7 active torsions:
REMARK  status: ('A' for Active; 'I' for Inactive)
REMARK    1  A    between atoms: C_4  and  C_29
REMARK    2  A    between atoms: CA_6  and  N_11
REMARK    3  A    between atoms: CA_7  and  C_28
REMARK    4  A    between atoms: C_12  and  C_15
REMARK    5  A    between atoms: N_14  and  O_24
REMARK    6  A    between atoms: C_15  and  C_19
REMARK    7  A    between atoms: C_29  and  N_30
REMARK                            x       y       z     vdW  Elec       q    Type
REMARK                         _______ _______ _______ _____ _____    ______ ____
ROOT
ATOM      1  S   UNL     1     -34.988  23.366   4.175  0.00  0.00    -0.114 S 
ATOM      2  O   UNL     1     -37.910  26.609   2.523  0.00  0.00    -0.273 OA
ATOM      3  N   UNL     1     -37.186  24.467   3.185  0.00  0.00    -0.242 N 
ATOM      4  C   UNL     1     -36.990  22.198   2.561  0.00  0.00    -0.034 C 
ATOM      5  C   UNL     1     -36.489  24.329   4.449  0.00  0.00    +0.155 C 
ATOM      6  CA  UNL     1     -36.342  25.867   4.423  0.00  0.00    +0.179 C 
ATOM      7  CA  UNL     1     -37.540  23.424   2.389  0.00  0.00    +0.126 C 
ATOM      8  C   UNL     1     -35.911  21.898   3.601  0.00  0.00    +0.081 C 
ATOM      9  C   UNL     1     -37.322  25.809   3.213  0.00  0.00    +0.251 C 
ENDROOT
BRANCH   6  11
ATOM     10  O   UNL     1     -34.136  26.555   6.251  0.00  0.00    -0.268 OA
ATOM     11  N   UNL     1     -35.001  26.335   4.080  0.00  0.00    -0.291 N 
ATOM     12  C   UNL     1     -34.043  26.628   5.036  0.00  0.00    +0.269 C 
ATOM     13  H   UNL     1     -34.768  26.447   3.130  0.00  0.00    +0.150 HD
BRANCH  12  15
ATOM     14  N   UNL     1     -32.247  26.493   3.398  0.00  0.00    -0.076 NA
ATOM     15  C   UNL     1     -32.737  27.088   4.444  0.00  0.00    +0.198 C 
BRANCH  15  19
ATOM     16  S   UNL     1     -31.213  30.549   5.694  0.00  0.00    -0.060 S 
ATOM     17  N   UNL     1     -31.084  27.995   6.069  0.00  0.00    -0.383 NA
ATOM     18  N   UNL     1     -29.646  29.285   7.433  0.00  0.00    -0.328 N 
ATOM     19  C   UNL     1     -32.020  28.225   5.080  0.00  0.00    +0.148 C 
ATOM     20  C   UNL     1     -32.226  29.547   4.742  0.00  0.00    +0.127 C 
ATOM     21  C   UNL     1     -30.593  29.147   6.467  0.00  0.00    +0.204 C 
ATOM     22  H   UNL     1     -29.323  30.180   7.681  0.00  0.00    +0.145 HD
ATOM     23  H   UNL     1     -29.283  28.487   7.882  0.00  0.00    +0.145 HD
ENDBRANCH  15  19
BRANCH  14  24
ATOM     24  O   UNL     1     -31.027  27.059   3.002  0.00  0.00    -0.373 OA
ATOM     25  C   UNL     1     -31.048  27.208   1.591  0.00  0.00    +0.288 C 
ENDBRANCH  14  24
ENDBRANCH  12  15
ENDBRANCH   6  11
BRANCH   7  28
ATOM     26  O   UNL     1     -39.714  23.470   1.505  0.00  0.00    -0.239 OA
ATOM     27  OXT UNL     1     -37.953  24.056   0.167  0.00  0.00    -0.239 OA
ATOM     28  C   UNL     1     -38.502  23.676   1.234  0.00  0.00    +0.401 C 
ENDBRANCH   7  28
BRANCH   4  29
ATOM     29  C   UNL     1     -37.370  20.976   1.761  0.00  0.00    -0.048 C 
BRANCH  29  30
ATOM     30  N   UNL     1     -36.409  20.710   0.612  0.00  0.00    +0.391 N 
ATOM     31  C   UNL     1     -35.293  21.774   0.590  0.00  0.00    -0.073 C 
ATOM     32  C   UNL     1     -35.694  19.356   0.807  0.00  0.00    -0.073 C 
ATOM     33  C   UNL     1     -34.011  20.982   0.431  0.00  0.00    -0.024 C 
ATOM     34  C   UNL     1     -34.285  19.724   1.224  0.00  0.00    -0.024 C 
ATOM     35  C   UNL     1     -37.182  20.716  -0.698  0.00  0.00    -0.095 C 
ENDBRANCH  29  30
ENDBRANCH   4  29
TORSDOF 7
ENDMDL
MODEL 4
REMARK VINA RESULT:      -5.7      2.403      7.330
REMARK  Name = 53486338
REMARK  7 active torsions:
REMARK  status: ('A' for Active; 'I' for Inactive)
REMARK    1  A    between atoms: C_4  and  C_29
REMARK    2  A    between atoms: CA_6  and  N_11
REMARK    3  A    between atoms: CA_7  and  C_28
REMARK    4  A    between atoms: C_12  and  C_15
REMARK    5  A    between atoms: N_14  and  O_24
REMARK    6  A    between atoms: C_15  and  C_19
REMARK    7  A    between atoms: C_29  and  N_30
REMARK                            x       y       z     vdW  Elec       q    Type
REMARK                         _______ _______ _______ _____ _____    ______ ____
ROOT
ATOM      1  S   UNL     1     -36.996  25.659   1.115  0.00  0.00    -0.114 S 
ATOM      2  O   UNL     1     -36.318  23.850   5.364  0.00  0.00    -0.273 OA
ATOM      3  N   UNL     1     -36.248  25.465   3.650  0.00  0.00    -0.242 N 
ATOM      4  C   UNL     1     -34.886  26.976   2.452  0.00  0.00    -0.034 C 
ATOM      5  C   UNL     1     -37.444  25.694   2.863  0.00  0.00    +0.155 C 
ATOM      6  CA  UNL     1     -37.977  24.377   3.470  0.00  0.00    +0.179 C 
ATOM      7  CA  UNL     1     -35.106  26.190   3.533  0.00  0.00    +0.126 C 
ATOM      8  C   UNL     1     -35.853  27.075   1.273  0.00  0.00    +0.081 C 
ATOM      9  C   UNL     1     -36.736  24.459   4.407  0.00  0.00    +0.251 C 
ENDROOT
BRANCH   6  11
ATOM     10  O   UNL     1     -40.269  22.959   2.278  0.00  0.00    -0.268 OA
ATOM     11  N   UNL     1     -37.955  23.241   2.551  0.00  0.00    -0.291 N 
ATOM     12  C   UNL     1     -39.108  22.656   2.055  0.00  0.00    +0.269 C 
ATOM     13  H   UNL     1     -37.083  22.876   2.272  0.00  0.00    +0.150 HD
BRANCH  12  15
ATOM     14  N   UNL     1     -39.817  20.843   0.593  0.00  0.00    -0.076 NA
ATOM     15  C   UNL     1     -38.833  21.506   1.122  0.00  0.00    +0.198 C 
BRANCH  15  19
ATOM     16  S   UNL     1     -35.155  20.912  -0.287  0.00  0.00    -0.060 S 
ATOM     17  N   UNL     1     -36.698  20.371   1.715  0.00  0.00    -0.383 NA
ATOM     18  N   UNL     1     -34.517  19.470   1.856  0.00  0.00    -0.328 N 
ATOM     19  C   UNL     1     -37.422  21.143   0.826  0.00  0.00    +0.148 C 
ATOM     20  C   UNL     1     -36.753  21.531  -0.316  0.00  0.00    +0.127 C 
ATOM     21  C   UNL     1     -35.490  20.186   1.232  0.00  0.00    +0.204 C 
ATOM     22  H   UNL     1     -33.633  19.371   1.436  0.00  0.00    +0.145 HD
ATOM     23  H   UNL     1     -34.698  19.049   2.727  0.00  0.00    +0.145 HD
ENDBRANCH  15  19
BRANCH  14  24
ATOM     24  O   UNL     1     -39.359  19.810  -0.239  0.00  0.00    -0.373 OA
ATOM     25  C   UNL     1     -40.137  19.823  -1.425  0.00  0.00    +0.288 C 
ENDBRANCH  14  24
ENDBRANCH  12  15
ENDBRANCH   6  11
BRANCH   7  28
ATOM     26  O   UNL     1     -34.056  26.901   5.509  0.00  0.00    -0.239 OA
ATOM     27  OXT UNL     1     -33.250  25.058   4.420  0.00  0.00    -0.239 OA
ATOM     28  C   UNL     1     -34.026  26.034   4.598  0.00  0.00    +0.401 C 
ENDBRANCH   7  28
BRANCH   4  29
ATOM     29  C   UNL     1     -33.674  27.857   2.273  0.00  0.00    -0.048 C 
BRANCH  29  30
ATOM     30  N   UNL     1     -32.572  27.176   1.475  0.00  0.00    +0.391 N 
ATOM     31  C   UNL     1     -33.026  25.771   1.027  0.00  0.00    -0.073 C 
ATOM     32  C   UNL     1     -32.282  27.957   0.176  0.00  0.00    -0.073 C 
ATOM     33  C   UNL     1     -32.658  25.700  -0.442  0.00  0.00    -0.024 C 
ATOM     34  C   UNL     1     -32.895  27.114  -0.923  0.00  0.00    -0.024 C 
ATOM     35  C   UNL     1     -31.317  27.085   2.330  0.00  0.00    -0.095 C 
ENDBRANCH  29  30
ENDBRANCH   4  29
TORSDOF 7
ENDMDL
MODEL 5
REMARK VINA RESULT:      -5.6      2.912      8.271
REMARK  Name = 53486338
REMARK  7 active torsions:
REMARK  status: ('A' for Active; 'I' for Inactive)
REMARK    1  A    between atoms: C_4  and  C_29
REMARK    2  A    between atoms: CA_6  and  N_11
REMARK    3  A    between atoms: CA_7  and  C_28
REMARK    4  A    between atoms: C_12  and  C_15
REMARK    5  A    between atoms: N_14  and  O_24
REMARK    6  A    between atoms: C_15  and  C_19
REMARK    7  A    between atoms: C_29  and  N_30
REMARK                            x       y       z     vdW  Elec       q    Type
REMARK                         _______ _______ _______ _____ _____    ______ ____
ROOT
ATOM      1  S   UNL     1     -36.317  26.526   1.854  0.00  0.00    -0.114 S 
ATOM      2  O   UNL     1     -33.833  25.483   5.665  0.00  0.00    -0.273 OA
ATOM      3  N   UNL     1     -34.741  26.835   3.962  0.00  0.00    -0.242 N 
ATOM      4  C   UNL     1     -34.275  28.429   2.284  0.00  0.00    -0.034 C 
ATOM      5  C   UNL     1     -36.148  26.696   3.642  0.00  0.00    +0.155 C 
ATOM      6  CA  UNL     1     -36.106  25.388   4.463  0.00  0.00    +0.179 C 
ATOM      7  CA  UNL     1     -33.919  27.764   3.409  0.00  0.00    +0.126 C 
ATOM      8  C   UNL     1     -35.574  28.161   1.524  0.00  0.00    +0.081 C 
ATOM      9  C   UNL     1     -34.683  25.857   4.891  0.00  0.00    +0.251 C 
ENDROOT
BRANCH   6  11
ATOM     10  O   UNL     1     -36.166  22.591   5.388  0.00  0.00    -0.268 OA
ATOM     11  N   UNL     1     -36.113  24.172   3.654  0.00  0.00    -0.291 N 
ATOM     12  C   UNL     1     -36.142  22.903   4.209  0.00  0.00    +0.269 C 
ATOM     13  H   UNL     1     -36.096  24.257   2.673  0.00  0.00    +0.150 HD
BRANCH  12  15
ATOM     14  N   UNL     1     -35.335  20.800   3.284  0.00  0.00    -0.076 NA
ATOM     15  C   UNL     1     -36.150  21.806   3.177  0.00  0.00    +0.198 C 
BRANCH  15  19
ATOM     16  S   UNL     1     -38.116  22.312  -0.251  0.00  0.00    -0.060 S 
ATOM     17  N   UNL     1     -38.421  21.534   2.195  0.00  0.00    -0.383 NA
ATOM     18  N   UNL     1     -40.371  21.442   0.860  0.00  0.00    -0.328 N 
ATOM     19  C   UNL     1     -37.099  21.901   2.035  0.00  0.00    +0.148 C 
ATOM     20  C   UNL     1     -36.746  22.349   0.780  0.00  0.00    +0.127 C 
ATOM     21  C   UNL     1     -39.051  21.708   1.055  0.00  0.00    +0.204 C 
ATOM     22  H   UNL     1     -40.779  21.598  -0.021  0.00  0.00    +0.145 HD
ATOM     23  H   UNL     1     -40.917  21.097   1.603  0.00  0.00    +0.145 HD
ENDBRANCH  15  19
BRANCH  14  24
ATOM     24  O   UNL     1     -35.490  19.891   2.228  0.00  0.00    -0.373 OA
ATOM     25  C   UNL     1     -34.211  19.649   1.663  0.00  0.00    +0.288 C 
ENDBRANCH  14  24
ENDBRANCH  12  15
ENDBRANCH   6  11
BRANCH   7  28
ATOM     26  O   UNL     1     -32.524  28.781   5.000  0.00  0.00    -0.239 OA
ATOM     27  OXT UNL     1     -31.611  27.342   3.473  0.00  0.00    -0.239 OA
ATOM     28  C   UNL     1     -32.543  27.985   4.025  0.00  0.00    +0.401 C 
ENDBRANCH   7  28
BRANCH   4  29
ATOM     29  C   UNL     1     -33.449  29.516   1.641  0.00  0.00    -0.048 C 
BRANCH  29  30
ATOM     30  N   UNL     1     -33.800  30.900   2.165  0.00  0.00    +0.391 N 
ATOM     31  C   UNL     1     -34.173  31.836   0.997  0.00  0.00    -0.073 C 
ATOM     32  C   UNL     1     -35.050  30.837   3.068  0.00  0.00    -0.073 C 
ATOM     33  C   UNL     1     -35.451  32.518   1.444  0.00  0.00    -0.024 C 
ATOM     34  C   UNL     1     -36.160  31.435   2.228  0.00  0.00    -0.024 C 
ATOM     35  C   UNL     1     -32.615  31.457   2.940  0.00  0.00    -0.095 C 
ENDBRANCH  29  30
ENDBRANCH   4  29
TORSDOF 7
ENDMDL
MODEL 6
REMARK VINA RESULT:      -5.6      2.724      7.454
REMARK  Name = 53486338
REMARK  7 active torsions:
REMARK  status: ('A' for Active; 'I' for Inactive)
REMARK    1  A    between atoms: C_4  and  C_29
REMARK    2  A    between atoms: CA_6  and  N_11
REMARK    3  A    between atoms: CA_7  and  C_28
REMARK    4  A    between atoms: C_12  and  C_15
REMARK    5  A    between atoms: N_14  and  O_24
REMARK    6  A    between atoms: C_15  and  C_19
REMARK    7  A    between atoms: C_29  and  N_30
REMARK                            x       y       z     vdW  Elec       q    Type
REMARK                         _______ _______ _______ _____ _____    ______ ____
ROOT
ATOM      1  S   UNL     1     -37.092  24.890   1.702  0.00  0.00    -0.114 S 
ATOM      2  O   UNL     1     -34.364  23.471   5.213  0.00  0.00    -0.273 OA
ATOM      3  N   UNL     1     -35.601  24.979   3.892  0.00  0.00    -0.242 N 
ATOM      4  C   UNL     1     -35.565  27.033   2.728  0.00  0.00    -0.034 C 
ATOM      5  C   UNL     1     -36.939  24.602   3.477  0.00  0.00    +0.155 C 
ATOM      6  CA  UNL     1     -36.566  23.169   3.918  0.00  0.00    +0.179 C 
ATOM      7  CA  UNL     1     -35.039  26.191   3.651  0.00  0.00    +0.126 C 
ATOM      8  C   UNL     1     -36.773  26.682   1.861  0.00  0.00    +0.081 C 
ATOM      9  C   UNL     1     -35.293  23.828   4.526  0.00  0.00    +0.251 C 
ENDROOT
BRANCH   6  11
ATOM     10  O   UNL     1     -35.158  20.582   4.008  0.00  0.00    -0.268 OA
ATOM     11  N   UNL     1     -36.293  22.254   2.813  0.00  0.00    -0.291 N 
ATOM     12  C   UNL     1     -35.616  21.057   2.982  0.00  0.00    +0.269 C 
ATOM     13  H   UNL     1     -36.602  22.497   1.911  0.00  0.00    +0.150 HD
BRANCH  12  15
ATOM     14  N   UNL     1     -36.504  19.934   1.012  0.00  0.00    -0.076 NA
ATOM     15  C   UNL     1     -35.459  20.281   1.701  0.00  0.00    +0.198 C 
BRANCH  15  19
ATOM     16  S   UNL     1     -31.818  19.940   0.118  0.00  0.00    -0.060 S 
ATOM     17  N   UNL     1     -33.511  18.731   1.653  0.00  0.00    -0.383 NA
ATOM     18  N   UNL     1     -31.467  17.591   1.316  0.00  0.00    -0.328 N 
ATOM     19  C   UNL     1     -34.090  19.917   1.245  0.00  0.00    +0.148 C 
ATOM     20  C   UNL     1     -33.325  20.705   0.410  0.00  0.00    +0.127 C 
ATOM     21  C   UNL     1     -32.313  18.638   1.121  0.00  0.00    +0.204 C 
ATOM     22  H   UNL     1     -30.583  17.586   0.885  0.00  0.00    +0.145 HD
ATOM     23  H   UNL     1     -31.741  16.838   1.889  0.00  0.00    +0.145 HD
ENDBRANCH  15  19
BRANCH  14  24
ATOM     24  O   UNL     1     -36.153  19.216  -0.140  0.00  0.00    -0.373 OA
ATOM     25  C   UNL     1     -36.972  18.060  -0.207  0.00  0.00    +0.288 C 
ENDBRANCH  14  24
ENDBRANCH  12  15
ENDBRANCH   6  11
BRANCH   7  28
ATOM     26  O   UNL     1     -33.906  27.124   5.483  0.00  0.00    -0.239 OA
ATOM     27  OXT UNL     1     -32.695  26.243   3.754  0.00  0.00    -0.239 OA
ATOM     28  C   UNL     1     -33.747  26.557   4.371  0.00  0.00    +0.401 C 
ENDBRANCH   7  28
BRANCH   4  29
ATOM     29  C   UNL     1     -35.038  28.418   2.443  0.00  0.00    -0.048 C 
BRANCH  29  30
ATOM     30  N   UNL     1     -34.103  28.449   1.243  0.00  0.00    +0.391 N 
ATOM     31  C   UNL     1     -33.955  27.037   0.642  0.00  0.00    -0.073 C 
ATOM     32  C   UNL     1     -34.695  29.324   0.118  0.00  0.00    -0.073 C 
ATOM     33  C   UNL     1     -34.137  27.233  -0.849  0.00  0.00    -0.024 C 
ATOM     34  C   UNL     1     -35.170  28.334  -0.927  0.00  0.00    -0.024 C 
ATOM     35  C   UNL     1     -32.750  28.990   1.678  0.00  0.00    -0.095 C 
ENDBRANCH  29  30
ENDBRANCH   4  29
TORSDOF 7
ENDMDL
MODEL 7
REMARK VINA RESULT:      -5.6      2.624      7.988
REMARK  Name = 53486338
REMARK  7 active torsions:
REMARK  status: ('A' for Active; 'I' for Inactive)
REMARK    1  A    between atoms: C_4  and  C_29
REMARK    2  A    between atoms: CA_6  and  N_11
REMARK    3  A    between atoms: CA_7  and  C_28
REMARK    4  A    between atoms: C_12  and  C_15
REMARK    5  A    between atoms: N_14  and  O_24
REMARK    6  A    between atoms: C_15  and  C_19
REMARK    7  A    between atoms: C_29  and  N_30
REMARK                            x       y       z     vdW  Elec       q    Type
REMARK                         _______ _______ _______ _____ _____    ______ ____
ROOT
ATOM      1  S   UNL     1     -36.854  25.559   0.550  0.00  0.00    -0.114 S 
ATOM      2  O   UNL     1     -36.518  24.178   4.995  0.00  0.00    -0.273 OA
ATOM      3  N   UNL     1     -36.294  25.612   3.140  0.00  0.00    -0.242 N 
ATOM      4  C   UNL     1     -34.820  26.978   1.900  0.00  0.00    -0.034 C 
ATOM      5  C   UNL     1     -37.425  25.775   2.248  0.00  0.00    +0.155 C 
ATOM      6  CA  UNL     1     -38.026  24.533   2.942  0.00  0.00    +0.179 C 
ATOM      7  CA  UNL     1     -35.132  26.307   3.035  0.00  0.00    +0.126 C 
ATOM      8  C   UNL     1     -35.698  26.970   0.650  0.00  0.00    +0.081 C 
ATOM      9  C   UNL     1     -36.854  24.693   3.954  0.00  0.00    +0.251 C 
ENDROOT
BRANCH   6  11
ATOM     10  O   UNL     1     -40.261  22.891   1.945  0.00  0.00    -0.268 OA
ATOM     11  N   UNL     1     -37.960  23.310   2.145  0.00  0.00    -0.291 N 
ATOM     12  C   UNL     1     -39.090  22.622   1.734  0.00  0.00    +0.269 C 
ATOM     13  H   UNL     1     -37.076  22.960   1.889  0.00  0.00    +0.150 HD
BRANCH  12  15
ATOM     14  N   UNL     1     -39.730  20.666   0.433  0.00  0.00    -0.076 NA
ATOM     15  C   UNL     1     -38.772  21.396   0.919  0.00  0.00    +0.198 C 
BRANCH  15  19
ATOM     16  S   UNL     1     -35.051  20.750  -0.348  0.00  0.00    -0.060 S 
ATOM     17  N   UNL     1     -36.629  20.369   1.663  0.00  0.00    -0.383 NA
ATOM     18  N   UNL     1     -34.435  19.532   1.936  0.00  0.00    -0.328 N 
ATOM     19  C   UNL     1     -37.347  21.037   0.689  0.00  0.00    +0.148 C 
ATOM     20  C   UNL     1     -36.660  21.329  -0.471  0.00  0.00    +0.127 C 
ATOM     21  C   UNL     1     -35.407  20.165   1.226  0.00  0.00    +0.204 C 
ATOM     22  H   UNL     1     -33.539  19.413   1.546  0.00  0.00    +0.145 HD
ATOM     23  H   UNL     1     -34.628  19.193   2.839  0.00  0.00    +0.145 HD
ENDBRANCH  15  19
BRANCH  14  24
ATOM     24  O   UNL     1     -39.233  19.570  -0.287  0.00  0.00    -0.373 OA
ATOM     25  C   UNL     1     -39.910  19.518  -1.533  0.00  0.00    +0.288 C 
ENDBRANCH  14  24
ENDBRANCH  12  15
ENDBRANCH   6  11
BRANCH   7  28
ATOM     26  O   UNL     1     -34.270  27.152   5.049  0.00  0.00    -0.239 OA
ATOM     27  OXT UNL     1     -33.309  25.297   4.116  0.00  0.00    -0.239 OA
ATOM     28  C   UNL     1     -34.134  26.246   4.186  0.00  0.00    +0.401 C 
ENDBRANCH   7  28
BRANCH   4  29
ATOM     29  C   UNL     1     -33.580  27.821   1.724  0.00  0.00    -0.048 C 
BRANCH  29  30
ATOM     30  N   UNL     1     -33.896  29.306   1.623  0.00  0.00    +0.391 N 
ATOM     31  C   UNL     1     -35.197  29.630   2.386  0.00  0.00    -0.073 C 
ATOM     32  C   UNL     1     -32.791  30.142   2.303  0.00  0.00    -0.073 C 
ATOM     33  C   UNL     1     -34.860  30.853   3.216  0.00  0.00    -0.024 C 
ATOM     34  C   UNL     1     -33.416  30.621   3.598  0.00  0.00    -0.024 C 
ATOM     35  C   UNL     1     -34.025  29.691   0.157  0.00  0.00    -0.095 C 
ENDBRANCH  29  30
ENDBRANCH   4  29
TORSDOF 7
ENDMDL
MODEL 8
REMARK VINA RESULT:      -5.6      2.867      4.722
REMARK  Name = 53486338
REMARK  7 active torsions:
REMARK  status: ('A' for Active; 'I' for Inactive)
REMARK    1  A    between atoms: C_4  and  C_29
REMARK    2  A    between atoms: CA_6  and  N_11
REMARK    3  A    between atoms: CA_7  and  C_28
REMARK    4  A    between atoms: C_12  and  C_15
REMARK    5  A    between atoms: N_14  and  O_24
REMARK    6  A    between atoms: C_15  and  C_19
REMARK    7  A    between atoms: C_29  and  N_30
REMARK                            x       y       z     vdW  Elec       q    Type
REMARK                         _______ _______ _______ _____ _____    ______ ____
ROOT
ATOM      1  S   UNL     1     -33.400  25.565   2.463  0.00  0.00    -0.114 S 
ATOM      2  O   UNL     1     -36.482  26.359   5.876  0.00  0.00    -0.273 OA
ATOM      3  N   UNL     1     -35.603  25.377   3.924  0.00  0.00    -0.242 N 
ATOM      4  C   UNL     1     -36.009  24.842   1.660  0.00  0.00    -0.034 C 
ATOM      5  C   UNL     1     -34.226  24.924   3.934  0.00  0.00    +0.155 C 
ATOM      6  CA  UNL     1     -34.068  25.746   5.232  0.00  0.00    +0.179 C 
ATOM      7  CA  UNL     1     -36.462  25.188   2.889  0.00  0.00    +0.126 C 
ATOM      8  C   UNL     1     -34.526  24.690   1.323  0.00  0.00    +0.081 C 
ATOM      9  C   UNL     1     -35.617  25.901   5.168  0.00  0.00    +0.251 C 
ENDROOT
BRANCH   6  11
ATOM     10  O   UNL     1     -32.221  27.042   7.128  0.00  0.00    -0.268 OA
ATOM     11  N   UNL     1     -33.338  27.000   5.063  0.00  0.00    -0.291 N 
ATOM     12  C   UNL     1     -32.492  27.511   6.034  0.00  0.00    +0.269 C 
ATOM     13  H   UNL     1     -33.451  27.503   4.225  0.00  0.00    +0.150 HD
BRANCH  12  15
ATOM     14  N   UNL     1     -32.563  29.768   5.123  0.00  0.00    -0.076 NA
ATOM     15  C   UNL     1     -31.847  28.811   5.632  0.00  0.00    +0.198 C 
BRANCH  15  19
ATOM     16  S   UNL     1     -27.868  28.941   5.480  0.00  0.00    -0.060 S 
ATOM     17  N   UNL     1     -29.885  29.532   6.984  0.00  0.00    -0.383 NA
ATOM     18  N   UNL     1     -27.766  30.055   7.893  0.00  0.00    -0.328 N 
ATOM     19  C   UNL     1     -30.381  28.974   5.822  0.00  0.00    +0.148 C 
ATOM     20  C   UNL     1     -29.439  28.591   4.889  0.00  0.00    +0.127 C 
ATOM     21  C   UNL     1     -28.574  29.565   6.915  0.00  0.00    +0.204 C 
ATOM     22  H   UNL     1     -26.789  30.048   7.775  0.00  0.00    +0.145 HD
ATOM     23  H   UNL     1     -28.160  30.415   8.721  0.00  0.00    +0.145 HD
ENDBRANCH  15  19
BRANCH  14  24
ATOM     24  O   UNL     1     -31.783  30.890   4.809  0.00  0.00    -0.373 OA
ATOM     25  C   UNL     1     -32.131  31.317   3.502  0.00  0.00    +0.288 C 
ENDBRANCH  14  24
ENDBRANCH  12  15
ENDBRANCH   6  11
BRANCH   7  28
ATOM     26  O   UNL     1     -38.558  24.566   3.745  0.00  0.00    -0.239 OA
ATOM     27  OXT UNL     1     -38.357  26.548   2.620  0.00  0.00    -0.239 OA
ATOM     28  C   UNL     1     -37.946  25.462   3.108  0.00  0.00    +0.401 C 
ENDBRANCH   7  28
BRANCH   4  29
ATOM     29  C   UNL     1     -36.898  24.556   0.475  0.00  0.00    -0.048 C 
BRANCH  29  30
ATOM     30  N   UNL     1     -37.185  23.071   0.307  0.00  0.00    +0.391 N 
ATOM     31  C   UNL     1     -36.779  22.300   1.580  0.00  0.00    -0.073 C 
ATOM     32  C   UNL     1     -38.699  22.828   0.134  0.00  0.00    -0.073 C 
ATOM     33  C   UNL     1     -37.962  21.400   1.877  0.00  0.00    -0.024 C 
ATOM     34  C   UNL     1     -39.147  22.241   1.457  0.00  0.00    -0.024 C 
ATOM     35  C   UNL     1     -36.423  22.548  -0.900  0.00  0.00    -0.095 C 
ENDBRANCH  29  30
ENDBRANCH   4  29
TORSDOF 7
ENDMDL
MODEL 9
REMARK VINA RESULT:      -5.4      2.491      7.950
REMARK  Name = 53486338
REMARK  7 active torsions:
REMARK  status: ('A' for Active; 'I' for Inactive)
REMARK    1  A    between atoms: C_4  and  C_29
REMARK    2  A    between atoms: CA_6  and  N_11
REMARK    3  A    between atoms: CA_7  and  C_28
REMARK    4  A    between atoms: C_12  and  C_15
REMARK    5  A    between atoms: N_14  and  O_24
REMARK    6  A    between atoms: C_15  and  C_19
REMARK    7  A    between atoms: C_29  and  N_30
REMARK                            x       y       z     vdW  Elec       q    Type
REMARK                         _______ _______ _______ _____ _____    ______ ____
ROOT
ATOM      1  S   UNL     1     -36.466  25.480   0.562  0.00  0.00    -0.114 S 
ATOM      2  O   UNL     1     -36.729  24.057   4.999  0.00  0.00    -0.273 OA
ATOM      3  N   UNL     1     -36.195  25.479   3.198  0.00  0.00    -0.242 N 
ATOM      4  C   UNL     1     -34.495  26.736   2.147  0.00  0.00    -0.034 C 
ATOM      5  C   UNL     1     -37.205  25.731   2.189  0.00  0.00    +0.155 C 
ATOM      6  CA  UNL     1     -37.970  24.534   2.796  0.00  0.00    +0.179 C 
ATOM      7  CA  UNL     1     -34.980  26.085   3.232  0.00  0.00    +0.126 C 
ATOM      8  C   UNL     1     -35.227  26.800   0.807  0.00  0.00    +0.081 C 
ATOM      9  C   UNL     1     -36.909  24.601   3.934  0.00  0.00    +0.251 C 
ENDROOT
BRANCH   6  11
ATOM     10  O   UNL     1     -40.143  22.633   2.206  0.00  0.00    -0.268 OA
ATOM     11  N   UNL     1     -37.907  23.314   1.995  0.00  0.00    -0.291 N 
ATOM     12  C   UNL     1     -39.005  22.495   1.789  0.00  0.00    +0.269 C 
ATOM     13  H   UNL     1     -37.048  23.062   1.585  0.00  0.00    +0.150 HD
BRANCH  12  15
ATOM     14  N   UNL     1     -39.662  20.604   0.403  0.00  0.00    -0.076 NA
ATOM     15  C   UNL     1     -38.698  21.300   0.926  0.00  0.00    +0.198 C 
BRANCH  15  19
ATOM     16  S   UNL     1     -34.995  20.598  -0.364  0.00  0.00    -0.060 S 
ATOM     17  N   UNL     1     -36.546  20.301   1.682  0.00  0.00    -0.383 NA
ATOM     18  N   UNL     1     -34.349  19.474   1.959  0.00  0.00    -0.328 N 
ATOM     19  C   UNL     1     -37.276  20.930   0.692  0.00  0.00    +0.148 C 
ATOM     20  C   UNL     1     -36.605  21.174  -0.489  0.00  0.00    +0.127 C 
ATOM     21  C   UNL     1     -35.330  20.078   1.237  0.00  0.00    +0.204 C 
ATOM     22  H   UNL     1     -33.459  19.338   1.562  0.00  0.00    +0.145 HD
ATOM     23  H   UNL     1     -34.530  19.171   2.878  0.00  0.00    +0.145 HD
ENDBRANCH  15  19
BRANCH  14  24
ATOM     24  O   UNL     1     -39.176  19.533  -0.359  0.00  0.00    -0.373 OA
ATOM     25  C   UNL     1     -39.888  19.505  -1.586  0.00  0.00    +0.288 C 
ENDBRANCH  14  24
ENDBRANCH  12  15
ENDBRANCH   6  11
BRANCH   7  28
ATOM     26  O   UNL     1     -33.297  24.996   4.452  0.00  0.00    -0.239 OA
ATOM     27  OXT UNL     1     -34.363  26.793   5.383  0.00  0.00    -0.239 OA
ATOM     28  C   UNL     1     -34.124  25.943   4.485  0.00  0.00    +0.401 C 
ENDBRANCH   7  28
BRANCH   4  29
ATOM     29  C   UNL     1     -33.185  27.484   2.120  0.00  0.00    -0.048 C 
BRANCH  29  30
ATOM     30  N   UNL     1     -33.335  28.936   2.549  0.00  0.00    +0.391 N 
ATOM     31  C   UNL     1     -32.914  29.879   1.403  0.00  0.00    -0.073 C 
ATOM     32  C   UNL     1     -34.814  29.265   2.841  0.00  0.00    -0.073 C 
ATOM     33  C   UNL     1     -34.024  30.908   1.325  0.00  0.00    -0.024 C 
ATOM     34  C   UNL     1     -35.260  30.103   1.660  0.00  0.00    -0.024 C 
ATOM     35  C   UNL     1     -32.484  29.183   3.785  0.00  0.00    -0.095 C 
ENDBRANCH  29  30
ENDBRANCH   4  29
TORSDOF 7
ENDMDL
