MODEL 1
REMARK VINA RESULT:      -6.2      0.000      0.000
REMARK  Name = 196889
REMARK  6 active torsions:
REMARK  status: ('A' for Active; 'I' for Inactive)
REMARK    1  A    between atoms: O_1  and  C_4
REMARK    2  A    between atoms: O_1  and  C_19
REMARK    3  A    between atoms: C_9  and  C_13
REMARK    4  A    between atoms: C_16  and  O_21
REMARK    5  A    between atoms: C_17  and  O_23
REMARK    6  A    between atoms: C_18  and  O_25
REMARK                            x       y       z     vdW  Elec       q    Type
REMARK                         _______ _______ _______ _____ _____    ______ ____
ROOT
ATOM      1  O   UNL     1     -33.306  27.991   4.532  0.00  0.00    -0.466 OA
ENDROOT
BRANCH   1   4
ATOM      2  O   UNL     1     -35.146  23.818   5.931  0.00  0.00    -0.421 OA
ATOM      3  O   UNL     1     -36.029  21.822   6.617  0.00  0.00    -0.244 OA
ATOM      4  C   UNL     1     -33.749  26.743   4.219  0.00  0.00    +0.143 C 
ATOM      5  C   UNL     1     -34.664  24.158   3.561  0.00  0.00    +0.031 C 
ATOM      6  C   UNL     1     -34.225  25.900   5.218  0.00  0.00    +0.074 C 
ATOM      7  C   UNL     1     -34.674  24.624   4.876  0.00  0.00    +0.151 C 
ATOM      8  C   UNL     1     -33.726  26.304   2.897  0.00  0.00    +0.037 C 
ATOM      9  C   UNL     1     -35.155  22.801   3.291  0.00  0.00    -0.013 C 
ATOM     10  C   UNL     1     -34.180  25.021   2.569  0.00  0.00    +0.006 C 
ATOM     11  C   UNL     1     -35.598  22.055   4.313  0.00  0.00    +0.078 C 
ATOM     12  C   UNL     1     -35.617  22.533   5.707  0.00  0.00    +0.346 C 
BRANCH   9  13
ATOM     13  C   UNL     1     -35.157  22.270   1.888  0.00  0.00    +0.027 C 
ATOM     14  C   UNL     1     -35.083  20.756   1.862  0.00  0.00    +0.005 C 
ENDBRANCH   9  13
ENDBRANCH   1   4
BRANCH   1  19
ATOM     15  S   UNL     1     -31.039  28.499   5.880  0.00  0.00    -0.093 S 
ATOM     16  C   UNL     1     -32.240  30.811   3.958  0.00  0.00    +0.169 C 
ATOM     17  C   UNL     1     -31.786  29.467   3.366  0.00  0.00    +0.191 C 
ATOM     18  C   UNL     1     -31.580  31.173   5.295  0.00  0.00    +0.151 C 
ATOM     19  C   UNL     1     -31.928  28.265   4.309  0.00  0.00    +0.243 C 
ATOM     20  C   UNL     1     -31.738  30.103   6.375  0.00  0.00    +0.093 C 
BRANCH  16  21
ATOM     21  O   UNL     1     -33.656  30.785   4.121  0.00  0.00    -0.379 OA
ATOM     22  H   UNL     1     -33.921  31.470   4.754  0.00  0.00    +0.211 HD
ENDBRANCH  16  21
BRANCH  17  23
ATOM     23  O   UNL     1     -30.436  29.581   2.920  0.00  0.00    -0.378 OA
ATOM     24  H   UNL     1     -30.422  29.944   2.020  0.00  0.00    +0.211 HD
ENDBRANCH  17  23
BRANCH  18  25
ATOM     25  O   UNL     1     -30.200  31.466   5.087  0.00  0.00    -0.381 OA
ATOM     26  H   UNL     1     -29.857  30.914   4.367  0.00  0.00    +0.210 HD
ENDBRANCH  18  25
ENDBRANCH   1  19
TORSDOF 6
ENDMDL
MODEL 2
REMARK VINA RESULT:      -6.1      5.419      7.923
REMARK  Name = 196889
REMARK  6 active torsions:
REMARK  status: ('A' for Active; 'I' for Inactive)
REMARK    1  A    between atoms: O_1  and  C_4
REMARK    2  A    between atoms: O_1  and  C_19
REMARK    3  A    between atoms: C_9  and  C_13
REMARK    4  A    between atoms: C_16  and  O_21
REMARK    5  A    between atoms: C_17  and  O_23
REMARK    6  A    between atoms: C_18  and  O_25
REMARK                            x       y       z     vdW  Elec       q    Type
REMARK                         _______ _______ _______ _____ _____    ______ ____
ROOT
ATOM      1  O   UNL     1     -36.159  21.935   1.007  0.00  0.00    -0.466 OA
ENDROOT
BRANCH   1   4
ATOM      2  O   UNL     1     -31.719  21.788  -0.731  0.00  0.00    -0.421 OA
ATOM      3  O   UNL     1     -29.592  21.733  -1.570  0.00  0.00    -0.244 OA
ATOM      4  C   UNL     1     -34.984  21.267   0.853  0.00  0.00    +0.143 C 
ATOM      5  C   UNL     1     -32.552  19.874   0.539  0.00  0.00    +0.031 C 
ATOM      6  C   UNL     1     -33.938  21.849   0.144  0.00  0.00    +0.074 C 
ATOM      7  C   UNL     1     -32.741  21.146  -0.003  0.00  0.00    +0.151 C 
ATOM      8  C   UNL     1     -34.824  19.997   1.405  0.00  0.00    +0.037 C 
ATOM      9  C   UNL     1     -31.259  19.207   0.336  0.00  0.00    -0.013 C 
ATOM     10  C   UNL     1     -33.618  19.305   1.250  0.00  0.00    +0.006 C 
ATOM     11  C   UNL     1     -30.305  19.841  -0.361  0.00  0.00    +0.078 C 
ATOM     12  C   UNL     1     -30.489  21.184  -0.938  0.00  0.00    +0.346 C 
BRANCH   9  13
ATOM     13  C   UNL     1     -31.025  17.840   0.905  0.00  0.00    +0.027 C 
ATOM     14  C   UNL     1     -29.546  17.540   1.050  0.00  0.00    +0.005 C 
ENDBRANCH   9  13
ENDBRANCH   1   4
BRANCH   1  19
ATOM     15  S   UNL     1     -38.570  22.188   2.165  0.00  0.00    -0.093 S 
ATOM     16  C   UNL     1     -36.253  24.309   2.950  0.00  0.00    +0.169 C 
ATOM     17  C   UNL     1     -36.075  22.814   3.259  0.00  0.00    +0.191 C 
ATOM     18  C   UNL     1     -37.713  24.762   2.819  0.00  0.00    +0.151 C 
ATOM     19  C   UNL     1     -36.783  21.864   2.284  0.00  0.00    +0.243 C 
ATOM     20  C   UNL     1     -38.520  23.968   1.792  0.00  0.00    +0.093 C 
BRANCH  16  21
ATOM     21  O   UNL     1     -35.552  24.615   1.747  0.00  0.00    -0.379 OA
ATOM     22  H   UNL     1     -35.737  25.531   1.489  0.00  0.00    +0.211 HD
ENDBRANCH  16  21
BRANCH  17  23
ATOM     23  O   UNL     1     -36.505  22.554   4.593  0.00  0.00    -0.378 OA
ATOM     24  H   UNL     1     -37.390  22.157   4.577  0.00  0.00    +0.211 HD
ENDBRANCH  17  23
BRANCH  18  25
ATOM     25  O   UNL     1     -38.349  24.711   4.093  0.00  0.00    -0.381 OA
ATOM     26  H   UNL     1     -39.195  24.241   4.015  0.00  0.00    +0.210 HD
ENDBRANCH  18  25
ENDBRANCH   1  19
TORSDOF 6
ENDMDL
MODEL 3
REMARK VINA RESULT:      -5.9      3.728      6.362
REMARK  Name = 196889
REMARK  6 active torsions:
REMARK  status: ('A' for Active; 'I' for Inactive)
REMARK    1  A    between atoms: O_1  and  C_4
REMARK    2  A    between atoms: O_1  and  C_19
REMARK    3  A    between atoms: C_9  and  C_13
REMARK    4  A    between atoms: C_16  and  O_21
REMARK    5  A    between atoms: C_17  and  O_23
REMARK    6  A    between atoms: C_18  and  O_25
REMARK                            x       y       z     vdW  Elec       q    Type
REMARK                         _______ _______ _______ _____ _____    ______ ____
ROOT
ATOM      1  O   UNL     1     -36.589  22.886   3.541  0.00  0.00    -0.466 OA
ENDROOT
BRANCH   1   4
ATOM      2  O   UNL     1     -33.847  19.399   1.789  0.00  0.00    -0.421 OA
ATOM      3  O   UNL     1     -32.520  17.731   0.959  0.00  0.00    -0.244 OA
ATOM      4  C   UNL     1     -36.424  21.850   2.675  0.00  0.00    +0.143 C 
ATOM      5  C   UNL     1     -36.093  19.703   0.877  0.00  0.00    +0.031 C 
ATOM      6  C   UNL     1     -35.228  21.140   2.656  0.00  0.00    +0.074 C 
ATOM      7  C   UNL     1     -35.080  20.080   1.760  0.00  0.00    +0.151 C 
ATOM      8  C   UNL     1     -37.453  21.496   1.804  0.00  0.00    +0.037 C 
ATOM      9  C   UNL     1     -35.850  18.575  -0.032  0.00  0.00    -0.013 C 
ATOM     10  C   UNL     1     -37.290  20.431   0.911  0.00  0.00    +0.006 C 
ATOM     11  C   UNL     1     -34.668  17.945   0.016  0.00  0.00    +0.078 C 
ATOM     12  C   UNL     1     -33.589  18.330   0.943  0.00  0.00    +0.346 C 
BRANCH   9  13
ATOM     13  C   UNL     1     -36.918  18.145  -0.993  0.00  0.00    +0.027 C 
ATOM     14  C   UNL     1     -37.749  17.007  -0.434  0.00  0.00    +0.005 C 
ENDBRANCH   9  13
ENDBRANCH   1   4
BRANCH   1  19
ATOM     15  S   UNL     1     -35.698  24.832   1.919  0.00  0.00    -0.093 S 
ATOM     16  C   UNL     1     -36.254  25.552   5.026  0.00  0.00    +0.169 C 
ATOM     17  C   UNL     1     -37.405  25.089   4.118  0.00  0.00    +0.191 C 
ATOM     18  C   UNL     1     -35.067  26.176   4.281  0.00  0.00    +0.151 C 
ATOM     19  C   UNL     1     -36.993  24.134   2.990  0.00  0.00    +0.243 C 
ATOM     20  C   UNL     1     -34.478  25.282   3.191  0.00  0.00    +0.093 C 
BRANCH  16  21
ATOM     21  O   UNL     1     -35.800  24.438   5.793  0.00  0.00    -0.379 OA
ATOM     22  H   UNL     1     -35.622  24.723   6.702  0.00  0.00    +0.211 HD
ENDBRANCH  16  21
BRANCH  17  23
ATOM     23  O   UNL     1     -38.064  26.231   3.574  0.00  0.00    -0.378 OA
ATOM     24  H   UNL     1     -38.734  26.547   4.201  0.00  0.00    +0.211 HD
ENDBRANCH  17  23
BRANCH  18  25
ATOM     25  O   UNL     1     -35.450  27.435   3.735  0.00  0.00    -0.381 OA
ATOM     26  H   UNL     1     -35.182  28.146   4.339  0.00  0.00    +0.210 HD
ENDBRANCH  18  25
ENDBRANCH   1  19
TORSDOF 6
ENDMDL
MODEL 4
REMARK VINA RESULT:      -5.8      4.585      6.521
REMARK  Name = 196889
REMARK  6 active torsions:
REMARK  status: ('A' for Active; 'I' for Inactive)
REMARK    1  A    between atoms: O_1  and  C_4
REMARK    2  A    between atoms: O_1  and  C_19
REMARK    3  A    between atoms: C_9  and  C_13
REMARK    4  A    between atoms: C_16  and  O_21
REMARK    5  A    between atoms: C_17  and  O_23
REMARK    6  A    between atoms: C_18  and  O_25
REMARK                            x       y       z     vdW  Elec       q    Type
REMARK                         _______ _______ _______ _____ _____    ______ ____
ROOT
ATOM      1  O   UNL     1     -36.351  23.460   1.768  0.00  0.00    -0.466 OA
ENDROOT
BRANCH   1   4
ATOM      2  O   UNL     1     -32.409  22.006  -0.490  0.00  0.00    -0.421 OA
ATOM      3  O   UNL     1     -30.517  21.323  -1.580  0.00  0.00    -0.244 OA
ATOM      4  C   UNL     1     -35.442  22.480   1.512  0.00  0.00    +0.143 C 
ATOM      5  C   UNL     1     -33.565  20.442   0.989  0.00  0.00    +0.031 C 
ATOM      6  C   UNL     1     -34.382  22.721   0.645  0.00  0.00    +0.074 C 
ATOM      7  C   UNL     1     -33.461  21.702   0.396  0.00  0.00    +0.151 C 
ATOM      8  C   UNL     1     -35.571  21.232   2.118  0.00  0.00    +0.037 C 
ATOM      9  C   UNL     1     -32.551  19.429   0.670  0.00  0.00    -0.013 C 
ATOM     10  C   UNL     1     -34.640  20.220   1.859  0.00  0.00    +0.006 C 
ATOM     11  C   UNL     1     -31.561  19.745  -0.177  0.00  0.00    +0.078 C 
ATOM     12  C   UNL     1     -31.437  21.070  -0.810  0.00  0.00    +0.346 C 
BRANCH   9  13
ATOM     13  C   UNL     1     -32.634  18.065   1.290  0.00  0.00    +0.027 C 
ATOM     14  C   UNL     1     -33.263  17.059   0.347  0.00  0.00    +0.005 C 
ENDBRANCH   9  13
ENDBRANCH   1   4
BRANCH   1  19
ATOM     15  S   UNL     1     -34.605  24.698   3.391  0.00  0.00    -0.093 S 
ATOM     16  C   UNL     1     -37.749  25.411   3.682  0.00  0.00    +0.169 C 
ATOM     17  C   UNL     1     -37.003  25.710   2.372  0.00  0.00    +0.191 C 
ATOM     18  C   UNL     1     -36.850  25.329   4.922  0.00  0.00    +0.151 C 
ATOM     19  C   UNL     1     -35.842  24.757   2.057  0.00  0.00    +0.243 C 
ATOM     20  C   UNL     1     -35.703  24.328   4.793  0.00  0.00    +0.093 C 
BRANCH  16  21
ATOM     21  O   UNL     1     -38.463  24.185   3.533  0.00  0.00    -0.379 OA
ATOM     22  H   UNL     1     -38.306  23.623   4.307  0.00  0.00    +0.211 HD
ENDBRANCH  16  21
BRANCH  17  23
ATOM     23  O   UNL     1     -36.537  27.057   2.393  0.00  0.00    -0.378 OA
ATOM     24  H   UNL     1     -37.276  27.653   2.592  0.00  0.00    +0.211 HD
ENDBRANCH  17  23
BRANCH  18  25
ATOM     25  O   UNL     1     -36.343  26.624   5.235  0.00  0.00    -0.381 OA
ATOM     26  H   UNL     1     -36.501  26.815   6.174  0.00  0.00    +0.210 HD
ENDBRANCH  18  25
ENDBRANCH   1  19
TORSDOF 6
ENDMDL
MODEL 5
REMARK VINA RESULT:      -5.7      6.269      7.778
REMARK  Name = 196889
REMARK  6 active torsions:
REMARK  status: ('A' for Active; 'I' for Inactive)
REMARK    1  A    between atoms: O_1  and  C_4
REMARK    2  A    between atoms: O_1  and  C_19
REMARK    3  A    between atoms: C_9  and  C_13
REMARK    4  A    between atoms: C_16  and  O_21
REMARK    5  A    between atoms: C_17  and  O_23
REMARK    6  A    between atoms: C_18  and  O_25
REMARK                            x       y       z     vdW  Elec       q    Type
REMARK                         _______ _______ _______ _____ _____    ______ ____
ROOT
ATOM      1  O   UNL     1     -37.734  24.681   2.534  0.00  0.00    -0.466 OA
ENDROOT
BRANCH   1   4
ATOM      2  O   UNL     1     -41.558  27.379   3.459  0.00  0.00    -0.421 OA
ATOM      3  O   UNL     1     -43.382  28.682   3.913  0.00  0.00    -0.244 OA
ATOM      4  C   UNL     1     -39.055  24.946   2.341  0.00  0.00    +0.143 C 
ATOM      5  C   UNL     1     -41.792  25.485   1.934  0.00  0.00    +0.031 C 
ATOM      6  C   UNL     1     -39.653  26.021   2.989  0.00  0.00    +0.074 C 
ATOM      7  C   UNL     1     -41.009  26.275   2.776  0.00  0.00    +0.151 C 
ATOM      8  C   UNL     1     -39.812  24.139   1.494  0.00  0.00    +0.037 C 
ATOM      9  C   UNL     1     -43.211  25.825   1.769  0.00  0.00    -0.013 C 
ATOM     10  C   UNL     1     -41.171  24.406   1.291  0.00  0.00    +0.006 C 
ATOM     11  C   UNL     1     -43.707  26.880   2.430  0.00  0.00    +0.078 C 
ATOM     12  C   UNL     1     -42.894  27.724   3.323  0.00  0.00    +0.346 C 
BRANCH   9  13
ATOM     13  C   UNL     1     -44.080  24.996   0.869  0.00  0.00    +0.027 C 
ATOM     14  C   UNL     1     -45.350  24.554   1.570  0.00  0.00    +0.005 C 
ENDBRANCH   9  13
ENDBRANCH   1   4
BRANCH   1  19
ATOM     15  S   UNL     1     -35.362  25.925   2.332  0.00  0.00    -0.093 S 
ATOM     16  C   UNL     1     -35.929  24.107   4.950  0.00  0.00    +0.169 C 
ATOM     17  C   UNL     1     -36.794  25.345   4.662  0.00  0.00    +0.191 C 
ATOM     18  C   UNL     1     -34.534  24.143   4.312  0.00  0.00    +0.151 C 
ATOM     19  C   UNL     1     -36.958  25.686   3.175  0.00  0.00    +0.243 C 
ATOM     20  C   UNL     1     -34.548  24.368   2.801  0.00  0.00    +0.093 C 
BRANCH  16  21
ATOM     21  O   UNL     1     -36.626  22.947   4.501  0.00  0.00    -0.379 OA
ATOM     22  H   UNL     1     -36.652  22.940   3.532  0.00  0.00    +0.211 HD
ENDBRANCH  16  21
BRANCH  17  23
ATOM     23  O   UNL     1     -36.261  26.466   5.364  0.00  0.00    -0.378 OA
ATOM     24  H   UNL     1     -35.400  26.231   5.743  0.00  0.00    +0.211 HD
ENDBRANCH  17  23
BRANCH  18  25
ATOM     25  O   UNL     1     -33.737  25.136   4.953  0.00  0.00    -0.381 OA
ATOM     26  H   UNL     1     -33.751  24.992   5.913  0.00  0.00    +0.210 HD
ENDBRANCH  18  25
ENDBRANCH   1  19
TORSDOF 6
ENDMDL
MODEL 6
REMARK VINA RESULT:      -5.7      2.661      7.567
REMARK  Name = 196889
REMARK  6 active torsions:
REMARK  status: ('A' for Active; 'I' for Inactive)
REMARK    1  A    between atoms: O_1  and  C_4
REMARK    2  A    between atoms: O_1  and  C_19
REMARK    3  A    between atoms: C_9  and  C_13
REMARK    4  A    between atoms: C_16  and  O_21
REMARK    5  A    between atoms: C_17  and  O_23
REMARK    6  A    between atoms: C_18  and  O_25
REMARK                            x       y       z     vdW  Elec       q    Type
REMARK                         _______ _______ _______ _____ _____    ______ ____
ROOT
ATOM      1  O   UNL     1     -35.208  26.658   3.184  0.00  0.00    -0.466 OA
ENDROOT
BRANCH   1   4
ATOM      2  O   UNL     1     -31.233  27.771   5.576  0.00  0.00    -0.421 OA
ATOM      3  O   UNL     1     -29.326  28.289   6.728  0.00  0.00    -0.244 OA
ATOM      4  C   UNL     1     -34.263  27.577   3.522  0.00  0.00    +0.143 C 
ATOM      5  C   UNL     1     -32.310  29.489   4.214  0.00  0.00    +0.031 C 
ATOM      6  C   UNL     1     -33.222  27.227   4.375  0.00  0.00    +0.074 C 
ATOM      7  C   UNL     1     -32.263  28.185   4.708  0.00  0.00    +0.151 C 
ATOM      8  C   UNL     1     -34.335  28.872   3.013  0.00  0.00    +0.037 C 
ATOM      9  C   UNL     1     -31.259  30.433   4.617  0.00  0.00    -0.013 C 
ATOM     10  C   UNL     1     -33.367  29.823   3.356  0.00  0.00    +0.006 C 
ATOM     11  C   UNL     1     -30.291  30.012   5.444  0.00  0.00    +0.078 C 
ATOM     12  C   UNL     1     -30.227  28.639   5.973  0.00  0.00    +0.346 C 
BRANCH   9  13
ATOM     13  C   UNL     1     -31.280  31.842   4.103  0.00  0.00    +0.027 C 
ATOM     14  C   UNL     1     -29.881  32.365   3.846  0.00  0.00    +0.005 C 
ENDBRANCH   9  13
ENDBRANCH   1   4
BRANCH   1  19
ATOM     15  S   UNL     1     -34.885  24.087   2.476  0.00  0.00    -0.093 S 
ATOM     16  C   UNL     1     -37.634  24.943   3.956  0.00  0.00    +0.169 C 
ATOM     17  C   UNL     1     -36.285  25.089   4.678  0.00  0.00    +0.191 C 
ATOM     18  C   UNL     1     -37.645  23.897   2.834  0.00  0.00    +0.151 C 
ATOM     19  C   UNL     1     -35.087  25.362   3.759  0.00  0.00    +0.243 C 
ATOM     20  C   UNL     1     -36.564  24.108   1.776  0.00  0.00    +0.093 C 
BRANCH  16  21
ATOM     21  O   UNL     1     -38.009  26.212   3.424  0.00  0.00    -0.379 OA
ATOM     22  H   UNL     1     -38.144  26.840   4.150  0.00  0.00    +0.211 HD
ENDBRANCH  16  21
BRANCH  17  23
ATOM     23  O   UNL     1     -36.043  23.925   5.464  0.00  0.00    -0.378 OA
ATOM     24  H   UNL     1     -36.597  23.196   5.143  0.00  0.00    +0.211 HD
ENDBRANCH  17  23
BRANCH  18  25
ATOM     25  O   UNL     1     -37.540  22.590   3.394  0.00  0.00    -0.381 OA
ATOM     26  H   UNL     1     -38.093  22.533   4.190  0.00  0.00    +0.210 HD
ENDBRANCH  18  25
ENDBRANCH   1  19
TORSDOF 6
ENDMDL
MODEL 7
REMARK VINA RESULT:      -5.7      1.909      2.731
REMARK  Name = 196889
REMARK  6 active torsions:
REMARK  status: ('A' for Active; 'I' for Inactive)
REMARK    1  A    between atoms: O_1  and  C_4
REMARK    2  A    between atoms: O_1  and  C_19
REMARK    3  A    between atoms: C_9  and  C_13
REMARK    4  A    between atoms: C_16  and  O_21
REMARK    5  A    between atoms: C_17  and  O_23
REMARK    6  A    between atoms: C_18  and  O_25
REMARK                            x       y       z     vdW  Elec       q    Type
REMARK                         _______ _______ _______ _____ _____    ______ ____
ROOT
ATOM      1  O   UNL     1     -33.070  28.379   4.370  0.00  0.00    -0.466 OA
ENDROOT
BRANCH   1   4
ATOM      2  O   UNL     1     -35.411  24.792   2.269  0.00  0.00    -0.421 OA
ATOM      3  O   UNL     1     -36.532  23.080   1.248  0.00  0.00    -0.244 OA
ATOM      4  C   UNL     1     -33.681  27.167   4.462  0.00  0.00    +0.143 C 
ATOM      5  C   UNL     1     -34.946  24.654   4.664  0.00  0.00    +0.031 C 
ATOM      6  C   UNL     1     -34.241  26.579   3.332  0.00  0.00    +0.074 C 
ATOM      7  C   UNL     1     -34.863  25.336   3.449  0.00  0.00    +0.151 C 
ATOM      8  C   UNL     1     -33.749  26.510   5.689  0.00  0.00    +0.037 C 
ATOM      9  C   UNL     1     -35.619  23.349   4.695  0.00  0.00    -0.013 C 
ATOM     10  C   UNL     1     -34.376  25.262   5.790  0.00  0.00    +0.006 C 
ATOM     11  C   UNL     1     -36.131  22.856   3.558  0.00  0.00    +0.078 C 
ATOM     12  C   UNL     1     -36.051  23.562   2.268  0.00  0.00    +0.346 C 
BRANCH   9  13
ATOM     13  C   UNL     1     -35.724  22.592   5.985  0.00  0.00    +0.027 C 
ATOM     14  C   UNL     1     -34.920  21.307   5.947  0.00  0.00    +0.005 C 
ENDBRANCH   9  13
ENDBRANCH   1   4
BRANCH   1  19
ATOM     15  S   UNL     1     -31.767  30.247   5.793  0.00  0.00    -0.093 S 
ATOM     16  C   UNL     1     -30.396  29.148   3.074  0.00  0.00    +0.169 C 
ATOM     17  C   UNL     1     -30.661  28.195   4.250  0.00  0.00    +0.191 C 
ATOM     18  C   UNL     1     -30.273  30.626   3.468  0.00  0.00    +0.151 C 
ATOM     19  C   UNL     1     -31.873  28.560   5.117  0.00  0.00    +0.243 C 
ATOM     20  C   UNL     1     -31.470  31.162   4.249  0.00  0.00    +0.093 C 
BRANCH  16  21
ATOM     21  O   UNL     1     -31.443  28.998   2.118  0.00  0.00    -0.379 OA
ATOM     22  H   UNL     1     -31.889  28.149   2.257  0.00  0.00    +0.211 HD
ENDBRANCH  16  21
BRANCH  17  23
ATOM     23  O   UNL     1     -29.490  28.108   5.059  0.00  0.00    -0.378 OA
ATOM     24  H   UNL     1     -29.725  27.756   5.932  0.00  0.00    +0.211 HD
ENDBRANCH  17  23
BRANCH  18  25
ATOM     25  O   UNL     1     -29.070  30.828   4.205  0.00  0.00    -0.381 OA
ATOM     26  H   UNL     1     -29.199  30.537   5.122  0.00  0.00    +0.210 HD
ENDBRANCH  18  25
ENDBRANCH   1  19
TORSDOF 6
ENDMDL
MODEL 8
REMARK VINA RESULT:      -5.6      5.518      9.635
REMARK  Name = 196889
REMARK  6 active torsions:
REMARK  status: ('A' for Active; 'I' for Inactive)
REMARK    1  A    between atoms: O_1  and  C_4
REMARK    2  A    between atoms: O_1  and  C_19
REMARK    3  A    between atoms: C_9  and  C_13
REMARK    4  A    between atoms: C_16  and  O_21
REMARK    5  A    between atoms: C_17  and  O_23
REMARK    6  A    between atoms: C_18  and  O_25
REMARK                            x       y       z     vdW  Elec       q    Type
REMARK                         _______ _______ _______ _____ _____    ______ ____
ROOT
ATOM      1  O   UNL     1     -36.710  19.545   1.343  0.00  0.00    -0.466 OA
ENDROOT
BRANCH   1   4
ATOM      2  O   UNL     1     -38.221  23.898   2.580  0.00  0.00    -0.421 OA
ATOM      3  O   UNL     1     -38.957  25.984   3.162  0.00  0.00    -0.244 OA
ATOM      4  C   UNL     1     -36.560  20.665   2.101  0.00  0.00    +0.143 C 
ATOM      5  C   UNL     1     -36.240  22.981   3.677  0.00  0.00    +0.031 C 
ATOM      6  C   UNL     1     -37.455  21.722   1.970  0.00  0.00    +0.074 C 
ATOM      7  C   UNL     1     -37.282  22.861   2.757  0.00  0.00    +0.151 C 
ATOM      8  C   UNL     1     -35.509  20.757   3.012  0.00  0.00    +0.037 C 
ATOM      9  C   UNL     1     -36.135  24.217   4.465  0.00  0.00    -0.013 C 
ATOM     10  C   UNL     1     -35.349  21.906   3.795  0.00  0.00    +0.006 C 
ATOM     11  C   UNL     1     -37.041  25.186   4.275  0.00  0.00    +0.078 C 
ATOM     12  C   UNL     1     -38.147  25.075   3.309  0.00  0.00    +0.346 C 
BRANCH   9  13
ATOM     13  C   UNL     1     -35.026  24.376   5.462  0.00  0.00    +0.027 C 
ATOM     14  C   UNL     1     -34.672  25.835   5.677  0.00  0.00    +0.005 C 
ENDBRANCH   9  13
ENDBRANCH   1   4
BRANCH   1  19
ATOM     15  S   UNL     1     -37.997  18.564  -0.800  0.00  0.00    -0.093 S 
ATOM     16  C   UNL     1     -34.784  18.204  -0.636  0.00  0.00    +0.169 C 
ATOM     17  C   UNL     1     -35.407  19.609  -0.694  0.00  0.00    +0.191 C 
ATOM     18  C   UNL     1     -35.665  17.093  -1.222  0.00  0.00    +0.151 C 
ATOM     19  C   UNL     1     -36.802  19.723  -0.066  0.00  0.00    +0.243 C 
ATOM     20  C   UNL     1     -37.061  17.017  -0.607  0.00  0.00    +0.093 C 
BRANCH  16  21
ATOM     21  O   UNL     1     -34.475  17.896   0.722  0.00  0.00    -0.379 OA
ATOM     22  H   UNL     1     -34.123  18.686   1.160  0.00  0.00    +0.211 HD
ENDBRANCH  16  21
BRANCH  17  23
ATOM     23  O   UNL     1     -35.444  20.052  -2.049  0.00  0.00    -0.378 OA
ATOM     24  H   UNL     1     -34.562  19.960  -2.443  0.00  0.00    +0.211 HD
ENDBRANCH  17  23
BRANCH  18  25
ATOM     25  O   UNL     1     -35.755  17.248  -2.637  0.00  0.00    -0.381 OA
ATOM     26  H   UNL     1     -36.072  18.141  -2.845  0.00  0.00    +0.210 HD
ENDBRANCH  18  25
ENDBRANCH   1  19
TORSDOF 6
ENDMDL
MODEL 9
REMARK VINA RESULT:      -5.6      2.666      7.761
REMARK  Name = 196889
REMARK  6 active torsions:
REMARK  status: ('A' for Active; 'I' for Inactive)
REMARK    1  A    between atoms: O_1  and  C_4
REMARK    2  A    between atoms: O_1  and  C_19
REMARK    3  A    between atoms: C_9  and  C_13
REMARK    4  A    between atoms: C_16  and  O_21
REMARK    5  A    between atoms: C_17  and  O_23
REMARK    6  A    between atoms: C_18  and  O_25
REMARK                            x       y       z     vdW  Elec       q    Type
REMARK                         _______ _______ _______ _____ _____    ______ ____
ROOT
ATOM      1  O   UNL     1     -34.003  27.022   4.337  0.00  0.00    -0.466 OA
ENDROOT
BRANCH   1   4
ATOM      2  O   UNL     1     -29.885  29.143   3.199  0.00  0.00    -0.421 OA
ATOM      3  O   UNL     1     -27.914  30.159   2.638  0.00  0.00    -0.244 OA
ATOM      4  C   UNL     1     -32.833  27.594   4.730  0.00  0.00    +0.143 C 
ATOM      5  C   UNL     1     -30.410  28.776   5.556  0.00  0.00    +0.031 C 
ATOM      6  C   UNL     1     -31.941  28.083   3.781  0.00  0.00    +0.074 C 
ATOM      7  C   UNL     1     -30.746  28.666   4.207  0.00  0.00    +0.151 C 
ATOM      8  C   UNL     1     -32.523  27.690   6.085  0.00  0.00    +0.037 C 
ATOM      9  C   UNL     1     -29.131  29.404   5.914  0.00  0.00    -0.013 C 
ATOM     10  C   UNL     1     -31.321  28.277   6.497  0.00  0.00    +0.006 C 
ATOM     11  C   UNL     1     -28.331  29.849   4.935  0.00  0.00    +0.078 C 
ATOM     12  C   UNL     1     -28.672  29.741   3.506  0.00  0.00    +0.346 C 
BRANCH   9  13
ATOM     13  C   UNL     1     -28.740  29.538   7.356  0.00  0.00    +0.027 C 
ATOM     14  C   UNL     1     -27.761  28.458   7.773  0.00  0.00    +0.005 C 
ENDBRANCH   9  13
ENDBRANCH   1   4
BRANCH   1  19
ATOM     15  S   UNL     1     -34.658  25.139   2.536  0.00  0.00    -0.093 S 
ATOM     16  C   UNL     1     -36.302  25.243   5.323  0.00  0.00    +0.169 C 
ATOM     17  C   UNL     1     -34.791  24.959   5.323  0.00  0.00    +0.191 C 
ATOM     18  C   UNL     1     -37.015  24.899   4.009  0.00  0.00    +0.151 C 
ATOM     19  C   UNL     1     -34.012  25.609   4.172  0.00  0.00    +0.243 C 
ATOM     20  C   UNL     1     -36.408  25.570   2.779  0.00  0.00    +0.093 C 
BRANCH  16  21
ATOM     21  O   UNL     1     -36.508  26.621   5.627  0.00  0.00    -0.379 OA
ATOM     22  H   UNL     1     -35.701  26.991   6.015  0.00  0.00    +0.211 HD
ENDBRANCH  16  21
BRANCH  17  23
ATOM     23  O   UNL     1     -34.577  23.549   5.322  0.00  0.00    -0.378 OA
ATOM     24  H   UNL     1     -34.948  23.165   6.132  0.00  0.00    +0.211 HD
ENDBRANCH  17  23
BRANCH  18  25
ATOM     25  O   UNL     1     -37.046  23.484   3.836  0.00  0.00    -0.381 OA
ATOM     26  H   UNL     1     -37.180  23.055   4.697  0.00  0.00    +0.210 HD
ENDBRANCH  18  25
ENDBRANCH   1  19
TORSDOF 6
ENDMDL
