MODEL 1
REMARK VINA RESULT:      -6.4      0.000      0.000
REMARK  Name = 21580417
REMARK  3 active torsions:
REMARK  status: ('A' for Active; 'I' for Inactive)
REMARK    1  A    between atoms: C_6  and  C_32
REMARK    2  A    between atoms: C_13  and  O_29
REMARK    3  A    between atoms: C_32  and  O_33
REMARK                            x       y       z     vdW  Elec       q    Type
REMARK                         _______ _______ _______ _____ _____    ______ ____
ROOT
ATOM      1  O   UNL     1     -38.459  23.242   3.370  0.00  0.00    -0.292 OA
ATOM      2  O   UNL     1     -37.225  27.439   1.790  0.00  0.00    -0.293 OA
ATOM      3  O   UNL     1     -40.063  23.211  -2.457  0.00  0.00    -0.451 OA
ATOM      4  O   UNL     1     -39.266  23.366  -4.566  0.00  0.00    -0.250 OA
ATOM      5  C   UNL     1     -36.019  22.873   1.334  0.00  0.00    +0.027 C 
ATOM      6  C   UNL     1     -36.118  23.489   2.800  0.00  0.00    +0.159 C 
ATOM      7  C   UNL     1     -36.354  24.008   0.292  0.00  0.00    +0.020 C 
ATOM      8  C   UNL     1     -35.458  25.801   1.936  0.00  0.00    +0.070 C 
ATOM      9  C   UNL     1     -35.456  25.253   0.487  0.00  0.00    +0.015 C 
ATOM     10  C   UNL     1     -35.170  24.686   2.942  0.00  0.00    -0.022 C 
ATOM     11  C   UNL     1     -36.960  21.629   1.140  0.00  0.00    +0.027 C 
ATOM     12  C   UNL     1     -37.541  24.025   3.104  0.00  0.00    +0.194 C 
ATOM     13  C   UNL     1     -37.779  25.534   3.147  0.00  0.00    +0.191 C 
ATOM     14  C   UNL     1     -36.858  26.354   2.252  0.00  0.00    +0.184 C 
ATOM     15  C   UNL     1     -34.572  22.344   1.070  0.00  0.00    +0.002 C 
ATOM     16  C   UNL     1     -36.461  23.503  -1.162  0.00  0.00    -0.048 C 
ATOM     17  C   UNL     1     -34.472  26.990   1.988  0.00  0.00    +0.012 C 
ATOM     18  C   UNL     1     -37.548  22.783  -1.546  0.00  0.00    -0.020 C 
ATOM     19  C   UNL     1     -38.343  21.888   0.605  0.00  0.00    -0.027 C 
ATOM     20  C   UNL     1     -38.612  22.398  -0.614  0.00  0.00    +0.005 C 
ATOM     21  C   UNL     1     -34.190  24.765   3.865  0.00  0.00    -0.008 C 
ATOM     22  C   UNL     1     -39.243  25.865   2.850  0.00  0.00    +0.045 C 
ATOM     23  C   UNL     1     -35.337  23.876  -2.097  0.00  0.00    +0.026 C 
ATOM     24  C   UNL     1     -40.029  22.552  -1.153  0.00  0.00    +0.154 C 
ATOM     25  C   UNL     1     -37.865  22.307  -2.935  0.00  0.00    +0.135 C 
ATOM     26  C   UNL     1     -39.112  23.008  -3.403  0.00  0.00    +0.322 C 
ATOM     27  C   UNL     1     -40.733  21.196  -1.320  0.00  0.00    +0.048 C 
ATOM     28  C   UNL     1     -40.870  23.462  -0.244  0.00  0.00    +0.048 C 
ENDROOT
BRANCH  13  29
ATOM     29  O   UNL     1     -37.464  25.948   4.470  0.00  0.00    -0.373 OA
ATOM     30  H   UNL     1     -38.133  25.608   5.084  0.00  0.00    +0.211 HD
ENDBRANCH  13  29
BRANCH   6  32
ATOM     31  O   UNL     1     -35.280  21.359   3.621  0.00  0.00    -0.249 OA
ATOM     32  C   UNL     1     -35.793  22.444   3.861  0.00  0.00    +0.326 C 
BRANCH  32  33
ATOM     33  O   UNL     1     -36.162  22.910   5.088  0.00  0.00    -0.444 OA
ATOM     34  C   UNL     1     -35.564  22.243   6.205  0.00  0.00    +0.256 C 
ENDBRANCH  32  33
ENDBRANCH   6  32
TORSDOF 3
ENDMDL
MODEL 2
REMARK VINA RESULT:      -6.3      2.352      6.365
REMARK  Name = 21580417
REMARK  3 active torsions:
REMARK  status: ('A' for Active; 'I' for Inactive)
REMARK    1  A    between atoms: C_6  and  C_32
REMARK    2  A    between atoms: C_13  and  O_29
REMARK    3  A    between atoms: C_32  and  O_33
REMARK                            x       y       z     vdW  Elec       q    Type
REMARK                         _______ _______ _______ _____ _____    ______ ____
ROOT
ATOM      1  O   UNL     1     -36.202  24.206  -0.345  0.00  0.00    -0.292 OA
ATOM      2  O   UNL     1     -39.417  27.000   1.523  0.00  0.00    -0.293 OA
ATOM      3  O   UNL     1     -33.038  28.290   2.793  0.00  0.00    -0.451 OA
ATOM      4  O   UNL     1     -32.668  29.105   4.868  0.00  0.00    -0.250 OA
ATOM      5  C   UNL     1     -36.223  23.741   2.820  0.00  0.00    +0.027 C 
ATOM      6  C   UNL     1     -37.259  23.372   1.667  0.00  0.00    +0.159 C 
ATOM      7  C   UNL     1     -36.527  25.208   3.314  0.00  0.00    +0.020 C 
ATOM      8  C   UNL     1     -39.023  24.918   2.679  0.00  0.00    +0.070 C 
ATOM      9  C   UNL     1     -38.002  25.374   3.750  0.00  0.00    +0.015 C 
ATOM     10  C   UNL     1     -38.698  23.510   2.178  0.00  0.00    -0.022 C 
ATOM     11  C   UNL     1     -34.729  23.598   2.353  0.00  0.00    +0.027 C 
ATOM     12  C   UNL     1     -37.136  24.330   0.454  0.00  0.00    +0.194 C 
ATOM     13  C   UNL     1     -38.222  25.376   0.214  0.00  0.00    +0.191 C 
ATOM     14  C   UNL     1     -38.930  25.867   1.472  0.00  0.00    +0.184 C 
ATOM     15  C   UNL     1     -36.379  22.752   4.020  0.00  0.00    +0.002 C 
ATOM     16  C   UNL     1     -35.485  25.754   4.313  0.00  0.00    -0.048 C 
ATOM     17  C   UNL     1     -40.437  25.079   3.281  0.00  0.00    +0.012 C 
ATOM     18  C   UNL     1     -34.256  26.122   3.869  0.00  0.00    -0.020 C 
ATOM     19  C   UNL     1     -34.063  24.823   1.786  0.00  0.00    -0.027 C 
ATOM     20  C   UNL     1     -33.837  25.962   2.473  0.00  0.00    +0.005 C 
ATOM     21  C   UNL     1     -39.597  22.505   2.177  0.00  0.00    -0.008 C 
ATOM     22  C   UNL     1     -37.674  26.561  -0.584  0.00  0.00    +0.045 C 
ATOM     23  C   UNL     1     -35.922  25.875   5.752  0.00  0.00    +0.026 C 
ATOM     24  C   UNL     1     -33.072  27.143   1.887  0.00  0.00    +0.154 C 
ATOM     25  C   UNL     1     -33.165  26.768   4.675  0.00  0.00    +0.135 C 
ATOM     26  C   UNL     1     -32.938  28.156   4.138  0.00  0.00    +0.322 C 
ATOM     27  C   UNL     1     -31.613  26.784   1.567  0.00  0.00    +0.048 C 
ATOM     28  C   UNL     1     -33.763  27.676   0.623  0.00  0.00    +0.048 C 
ENDROOT
BRANCH  13  29
ATOM     29  O   UNL     1     -39.236  24.730  -0.545  0.00  0.00    -0.373 OA
ATOM     30  H   UNL     1     -40.033  25.283  -0.559  0.00  0.00    +0.211 HD
ENDBRANCH  13  29
BRANCH   6  32
ATOM     31  O   UNL     1     -36.440  21.085   1.777  0.00  0.00    -0.249 OA
ATOM     32  C   UNL     1     -37.028  21.956   1.150  0.00  0.00    +0.326 C 
BRANCH  32  33
ATOM     33  O   UNL     1     -37.572  21.831  -0.094  0.00  0.00    -0.444 OA
ATOM     34  C   UNL     1     -37.891  20.494  -0.494  0.00  0.00    +0.256 C 
ENDBRANCH  32  33
ENDBRANCH   6  32
TORSDOF 3
ENDMDL
MODEL 3
REMARK VINA RESULT:      -6.1      2.560      5.522
REMARK  Name = 21580417
REMARK  3 active torsions:
REMARK  status: ('A' for Active; 'I' for Inactive)
REMARK    1  A    between atoms: C_6  and  C_32
REMARK    2  A    between atoms: C_13  and  O_29
REMARK    3  A    between atoms: C_32  and  O_33
REMARK                            x       y       z     vdW  Elec       q    Type
REMARK                         _______ _______ _______ _____ _____    ______ ____
ROOT
ATOM      1  O   UNL     1     -35.011  26.270   0.419  0.00  0.00    -0.292 OA
ATOM      2  O   UNL     1     -33.313  25.142   4.599  0.00  0.00    -0.293 OA
ATOM      3  O   UNL     1     -31.372  21.560  -0.633  0.00  0.00    -0.451 OA
ATOM      4  O   UNL     1     -31.044  19.373  -0.169  0.00  0.00    -0.250 OA
ATOM      5  C   UNL     1     -36.237  23.441   1.273  0.00  0.00    +0.027 C 
ATOM      6  C   UNL     1     -36.472  24.925   1.804  0.00  0.00    +0.159 C 
ATOM      7  C   UNL     1     -35.004  22.826   2.041  0.00  0.00    +0.020 C 
ATOM      8  C   UNL     1     -35.524  24.316   4.097  0.00  0.00    +0.070 C 
ATOM      9  C   UNL     1     -35.188  22.897   3.575  0.00  0.00    +0.015 C 
ATOM     10  C   UNL     1     -36.695  24.921   3.321  0.00  0.00    -0.022 C 
ATOM     11  C   UNL     1     -36.020  23.388  -0.283  0.00  0.00    +0.027 C 
ATOM     12  C   UNL     1     -35.239  25.830   1.551  0.00  0.00    +0.194 C 
ATOM     13  C   UNL     1     -34.353  26.234   2.728  0.00  0.00    +0.191 C 
ATOM     14  C   UNL     1     -34.306  25.227   3.870  0.00  0.00    +0.184 C 
ATOM     15  C   UNL     1     -37.502  22.566   1.547  0.00  0.00    +0.002 C 
ATOM     16  C   UNL     1     -34.561  21.450   1.500  0.00  0.00    -0.048 C 
ATOM     17  C   UNL     1     -35.744  24.215   5.623  0.00  0.00    +0.012 C 
ATOM     18  C   UNL     1     -33.903  21.374   0.314  0.00  0.00    -0.020 C 
ATOM     19  C   UNL     1     -34.603  23.464  -0.785  0.00  0.00    -0.027 C 
ATOM     20  C   UNL     1     -33.647  22.548  -0.526  0.00  0.00    +0.005 C 
ATOM     21  C   UNL     1     -37.799  25.409   3.921  0.00  0.00    -0.008 C 
ATOM     22  C   UNL     1     -32.937  26.570   2.256  0.00  0.00    +0.045 C 
ATOM     23  C   UNL     1     -34.868  20.250   2.360  0.00  0.00    +0.026 C 
ATOM     24  C   UNL     1     -32.251  22.614  -1.136  0.00  0.00    +0.154 C 
ATOM     25  C   UNL     1     -33.310  20.142  -0.307  0.00  0.00    +0.135 C 
ATOM     26  C   UNL     1     -31.815  20.309  -0.357  0.00  0.00    +0.322 C 
ATOM     27  C   UNL     1     -32.284  22.476  -2.666  0.00  0.00    +0.048 C 
ATOM     28  C   UNL     1     -31.542  23.921  -0.750  0.00  0.00    +0.048 C 
ENDROOT
BRANCH  13  29
ATOM     29  O   UNL     1     -34.947  27.396   3.291  0.00  0.00    -0.373 OA
ATOM     30  H   UNL     1     -34.373  28.162   3.133  0.00  0.00    +0.211 HD
ENDBRANCH  13  29
BRANCH   6  32
ATOM     31  O   UNL     1     -38.518  24.960   0.491  0.00  0.00    -0.249 OA
ATOM     32  C   UNL     1     -37.662  25.578   1.109  0.00  0.00    +0.326 C 
BRANCH  32  33
ATOM     33  O   UNL     1     -37.609  26.929   1.288  0.00  0.00    -0.444 OA
ATOM     34  C   UNL     1     -38.236  27.710   0.265  0.00  0.00    +0.256 C 
ENDBRANCH  32  33
ENDBRANCH   6  32
TORSDOF 3
ENDMDL
MODEL 4
REMARK VINA RESULT:      -6.0      2.250      6.481
REMARK  Name = 21580417
REMARK  3 active torsions:
REMARK  status: ('A' for Active; 'I' for Inactive)
REMARK    1  A    between atoms: C_6  and  C_32
REMARK    2  A    between atoms: C_13  and  O_29
REMARK    3  A    between atoms: C_32  and  O_33
REMARK                            x       y       z     vdW  Elec       q    Type
REMARK                         _______ _______ _______ _____ _____    ______ ____
ROOT
ATOM      1  O   UNL     1     -36.380  24.756  -1.045  0.00  0.00    -0.292 OA
ATOM      2  O   UNL     1     -40.004  24.233   1.824  0.00  0.00    -0.293 OA
ATOM      3  O   UNL     1     -34.507  27.064   4.219  0.00  0.00    -0.451 OA
ATOM      4  O   UNL     1     -34.092  26.562   6.383  0.00  0.00    -0.250 OA
ATOM      5  C   UNL     1     -35.613  22.564   1.157  0.00  0.00    +0.027 C 
ATOM      6  C   UNL     1     -36.626  22.551  -0.074  0.00  0.00    +0.159 C 
ATOM      7  C   UNL     1     -36.361  23.159   2.412  0.00  0.00    +0.020 C 
ATOM      8  C   UNL     1     -38.622  22.281   1.498  0.00  0.00    +0.070 C 
ATOM      9  C   UNL     1     -37.672  22.397   2.715  0.00  0.00    +0.015 C 
ATOM     10  C   UNL     1     -37.880  21.740   0.275  0.00  0.00    -0.022 C 
ATOM     11  C   UNL     1     -34.300  23.370   0.845  0.00  0.00    +0.027 C 
ATOM     12  C   UNL     1     -37.117  23.977  -0.430  0.00  0.00    +0.194 C 
ATOM     13  C   UNL     1     -38.548  24.384  -0.083  0.00  0.00    +0.191 C 
ATOM     14  C   UNL     1     -39.136  23.686   1.138  0.00  0.00    +0.184 C 
ATOM     15  C   UNL     1     -35.142  21.110   1.481  0.00  0.00    +0.002 C 
ATOM     16  C   UNL     1     -35.442  23.388   3.630  0.00  0.00    -0.048 C 
ATOM     17  C   UNL     1     -39.845  21.443   1.934  0.00  0.00    +0.012 C 
ATOM     18  C   UNL     1     -34.560  24.421   3.624  0.00  0.00    -0.020 C 
ATOM     19  C   UNL     1     -34.282  24.830   1.211  0.00  0.00    -0.027 C 
ATOM     20  C   UNL     1     -34.388  25.307   2.468  0.00  0.00    +0.005 C 
ATOM     21  C   UNL     1     -38.302  20.668  -0.425  0.00  0.00    -0.008 C 
ATOM     22  C   UNL     1     -38.665  25.902   0.065  0.00  0.00    +0.045 C 
ATOM     23  C   UNL     1     -35.607  22.442   4.794  0.00  0.00    +0.026 C 
ATOM     24  C   UNL     1     -34.267  26.790   2.803  0.00  0.00    +0.154 C 
ATOM     25  C   UNL     1     -33.672  24.852   4.756  0.00  0.00    +0.135 C 
ATOM     26  C   UNL     1     -34.107  26.222   5.203  0.00  0.00    +0.322 C 
ATOM     27  C   UNL     1     -32.873  27.344   2.471  0.00  0.00    +0.048 C 
ATOM     28  C   UNL     1     -35.338  27.610   2.068  0.00  0.00    +0.048 C 
ENDROOT
BRANCH  13  29
ATOM     29  O   UNL     1     -39.358  23.956  -1.171  0.00  0.00    -0.373 OA
ATOM     30  H   UNL     1     -39.174  23.024  -1.365  0.00  0.00    +0.211 HD
ENDBRANCH  13  29
BRANCH   6  32
ATOM     31  O   UNL     1     -34.959  21.282  -1.309  0.00  0.00    -0.249 OA
ATOM     32  C   UNL     1     -35.968  21.974  -1.322  0.00  0.00    +0.326 C 
BRANCH  32  33
ATOM     33  O   UNL     1     -36.676  22.352  -2.425  0.00  0.00    -0.444 OA
ATOM     34  C   UNL     1     -35.967  22.275  -3.667  0.00  0.00    +0.256 C 
ENDBRANCH  32  33
ENDBRANCH   6  32
TORSDOF 3
ENDMDL
MODEL 5
REMARK VINA RESULT:      -6.0      8.420     11.789
REMARK  Name = 21580417
REMARK  3 active torsions:
REMARK  status: ('A' for Active; 'I' for Inactive)
REMARK    1  A    between atoms: C_6  and  C_32
REMARK    2  A    between atoms: C_13  and  O_29
REMARK    3  A    between atoms: C_32  and  O_33
REMARK                            x       y       z     vdW  Elec       q    Type
REMARK                         _______ _______ _______ _____ _____    ______ ____
ROOT
ATOM      1  O   UNL     1     -40.540  32.227   0.551  0.00  0.00    -0.292 OA
ATOM      2  O   UNL     1     -39.490  34.619  -3.297  0.00  0.00    -0.293 OA
ATOM      3  O   UNL     1     -34.518  31.898   0.144  0.00  0.00    -0.451 OA
ATOM      4  O   UNL     1     -32.623  33.129   0.136  0.00  0.00    -0.250 OA
ATOM      5  C   UNL     1     -39.012  34.903   1.414  0.00  0.00    +0.027 C 
ATOM      6  C   UNL     1     -40.463  34.633   0.813  0.00  0.00    +0.159 C 
ATOM      7  C   UNL     1     -37.994  35.038   0.218  0.00  0.00    +0.020 C 
ATOM      8  C   UNL     1     -39.887  35.931  -1.311  0.00  0.00    +0.070 C 
ATOM      9  C   UNL     1     -38.438  36.117  -0.797  0.00  0.00    +0.015 C 
ATOM     10  C   UNL     1     -40.863  35.762  -0.145  0.00  0.00    -0.022 C 
ATOM     11  C   UNL     1     -38.561  33.781   2.419  0.00  0.00    +0.027 C 
ATOM     12  C   UNL     1     -40.509  33.324  -0.016  0.00  0.00    +0.194 C 
ATOM     13  C   UNL     1     -40.593  33.406  -1.540  0.00  0.00    +0.191 C 
ATOM     14  C   UNL     1     -39.951  34.645  -2.152  0.00  0.00    +0.184 C 
ATOM     15  C   UNL     1     -39.011  36.228   2.243  0.00  0.00    +0.002 C 
ATOM     16  C   UNL     1     -36.520  35.131   0.666  0.00  0.00    -0.048 C 
ATOM     17  C   UNL     1     -40.206  37.113  -2.254  0.00  0.00    +0.012 C 
ATOM     18  C   UNL     1     -35.885  34.021   1.125  0.00  0.00    -0.020 C 
ATOM     19  C   UNL     1     -37.777  32.625   1.857  0.00  0.00    -0.027 C 
ATOM     20  C   UNL     1     -36.561  32.730   1.282  0.00  0.00    +0.005 C 
ATOM     21  C   UNL     1     -41.965  36.523   0.006  0.00  0.00    -0.008 C 
ATOM     22  C   UNL     1     -40.031  32.139  -2.187  0.00  0.00    +0.045 C 
ATOM     23  C   UNL     1     -35.852  36.477   0.534  0.00  0.00    +0.026 C 
ATOM     24  C   UNL     1     -35.762  31.520   0.814  0.00  0.00    +0.154 C 
ATOM     25  C   UNL     1     -34.435  33.906   1.500  0.00  0.00    +0.135 C 
ATOM     26  C   UNL     1     -33.771  32.959   0.536  0.00  0.00    +0.322 C 
ATOM     27  C   UNL     1     -35.377  30.596   1.980  0.00  0.00    +0.048 C 
ATOM     28  C   UNL     1     -36.537  30.720  -0.244  0.00  0.00    +0.048 C 
ENDROOT
BRANCH  13  29
ATOM     29  O   UNL     1     -41.975  33.520  -1.855  0.00  0.00    -0.373 OA
ATOM     30  H   UNL     1     -42.302  32.671  -2.191  0.00  0.00    +0.211 HD
ENDBRANCH  13  29
BRANCH   6  32
ATOM     31  O   UNL     1     -41.468  35.127   2.972  0.00  0.00    -0.249 OA
ATOM     32  C   UNL     1     -41.504  34.503   1.920  0.00  0.00    +0.326 C 
BRANCH  32  33
ATOM     33  O   UNL     1     -42.453  33.597   1.548  0.00  0.00    -0.444 OA
ATOM     34  C   UNL     1     -43.729  33.750   2.180  0.00  0.00    +0.256 C 
ENDBRANCH  32  33
ENDBRANCH   6  32
TORSDOF 3
ENDMDL
MODEL 6
REMARK VINA RESULT:      -5.9      2.239      6.473
REMARK  Name = 21580417
REMARK  3 active torsions:
REMARK  status: ('A' for Active; 'I' for Inactive)
REMARK    1  A    between atoms: C_6  and  C_32
REMARK    2  A    between atoms: C_13  and  O_29
REMARK    3  A    between atoms: C_32  and  O_33
REMARK                            x       y       z     vdW  Elec       q    Type
REMARK                         _______ _______ _______ _____ _____    ______ ____
ROOT
ATOM      1  O   UNL     1     -37.299  21.710   2.155  0.00  0.00    -0.292 OA
ATOM      2  O   UNL     1     -33.066  20.725   0.497  0.00  0.00    -0.293 OA
ATOM      3  O   UNL     1     -33.627  25.639   4.913  0.00  0.00    -0.451 OA
ATOM      4  O   UNL     1     -32.195  27.351   4.559  0.00  0.00    -0.250 OA
ATOM      5  C   UNL     1     -36.349  24.145   0.310  0.00  0.00    +0.027 C 
ATOM      6  C   UNL     1     -36.791  22.649  -0.018  0.00  0.00    +0.159 C 
ATOM      7  C   UNL     1     -34.805  24.150   0.631  0.00  0.00    +0.020 C 
ATOM      8  C   UNL     1     -34.464  22.097  -0.914  0.00  0.00    +0.070 C 
ATOM      9  C   UNL     1     -33.978  23.511  -0.509  0.00  0.00    +0.015 C 
ATOM     10  C   UNL     1     -35.968  22.092  -1.186  0.00  0.00    -0.022 C 
ATOM     11  C   UNL     1     -37.177  24.770   1.491  0.00  0.00    +0.027 C 
ATOM     12  C   UNL     1     -36.540  21.699   1.181  0.00  0.00    +0.194 C 
ATOM     13  C   UNL     1     -35.390  20.695   1.111  0.00  0.00    +0.191 C 
ATOM     14  C   UNL     1     -34.207  21.133   0.257  0.00  0.00    +0.184 C 
ATOM     15  C   UNL     1     -36.621  25.068  -0.922  0.00  0.00    +0.002 C 
ATOM     16  C   UNL     1     -34.282  25.512   1.133  0.00  0.00    -0.048 C 
ATOM     17  C   UNL     1     -33.591  21.623  -2.099  0.00  0.00    +0.012 C 
ATOM     18  C   UNL     1     -34.579  25.924   2.393  0.00  0.00    -0.020 C 
ATOM     19  C   UNL     1     -36.614  24.625   2.880  0.00  0.00    -0.027 C 
ATOM     20  C   UNL     1     -35.445  25.156   3.294  0.00  0.00    +0.005 C 
ATOM     21  C   UNL     1     -36.506  21.632  -2.333  0.00  0.00    -0.008 C 
ATOM     22  C   UNL     1     -34.919  20.305   2.513  0.00  0.00    +0.045 C 
ATOM     23  C   UNL     1     -33.424  26.305   0.179  0.00  0.00    +0.026 C 
ATOM     24  C   UNL     1     -34.960  25.067   4.736  0.00  0.00    +0.154 C 
ATOM     25  C   UNL     1     -34.070  27.160   3.078  0.00  0.00    +0.135 C 
ATOM     26  C   UNL     1     -33.208  26.737   4.237  0.00  0.00    +0.322 C 
ATOM     27  C   UNL     1     -35.896  25.806   5.705  0.00  0.00    +0.048 C 
ATOM     28  C   UNL     1     -34.810  23.604   5.179  0.00  0.00    +0.048 C 
ENDROOT
BRANCH  13  29
ATOM     29  O   UNL     1     -35.907  19.544   0.454  0.00  0.00    -0.373 OA
ATOM     30  H   UNL     1     -36.750  19.765   0.028  0.00  0.00    +0.211 HD
ENDBRANCH  13  29
BRANCH   6  32
ATOM     31  O   UNL     1     -38.951  23.532  -0.702  0.00  0.00    -0.249 OA
ATOM     32  C   UNL     1     -38.277  22.573  -0.351  0.00  0.00    +0.326 C 
BRANCH  32  33
ATOM     33  O   UNL     1     -38.714  21.291  -0.193  0.00  0.00    -0.444 OA
ATOM     34  C   UNL     1     -40.127  21.141  -0.012  0.00  0.00    +0.256 C 
ENDBRANCH  32  33
ENDBRANCH   6  32
TORSDOF 3
ENDMDL
MODEL 7
REMARK VINA RESULT:      -5.9      3.445      6.180
REMARK  Name = 21580417
REMARK  3 active torsions:
REMARK  status: ('A' for Active; 'I' for Inactive)
REMARK    1  A    between atoms: C_6  and  C_32
REMARK    2  A    between atoms: C_13  and  O_29
REMARK    3  A    between atoms: C_32  and  O_33
REMARK                            x       y       z     vdW  Elec       q    Type
REMARK                         _______ _______ _______ _____ _____    ______ ____
ROOT
ATOM      1  O   UNL     1     -31.751  26.026   2.997  0.00  0.00    -0.292 OA
ATOM      2  O   UNL     1     -33.875  30.042   3.994  0.00  0.00    -0.293 OA
ATOM      3  O   UNL     1     -37.428  24.455   4.351  0.00  0.00    -0.451 OA
ATOM      4  O   UNL     1     -39.585  24.705   3.727  0.00  0.00    -0.250 OA
ATOM      5  C   UNL     1     -33.876  26.642   0.686  0.00  0.00    +0.027 C 
ATOM      6  C   UNL     1     -32.487  27.314   1.083  0.00  0.00    +0.159 C 
ATOM      7  C   UNL     1     -35.019  27.319   1.534  0.00  0.00    +0.020 C 
ATOM      8  C   UNL     1     -33.650  29.517   1.649  0.00  0.00    +0.070 C 
ATOM      9  C   UNL     1     -35.023  28.858   1.371  0.00  0.00    +0.015 C 
ATOM     10  C   UNL     1     -32.541  28.829   0.852  0.00  0.00    -0.022 C 
ATOM     11  C   UNL     1     -33.868  25.083   0.888  0.00  0.00    +0.027 C 
ATOM     12  C   UNL     1     -32.161  27.117   2.586  0.00  0.00    +0.194 C 
ATOM     13  C   UNL     1     -32.277  28.305   3.539  0.00  0.00    +0.191 C 
ATOM     14  C   UNL     1     -33.315  29.348   3.140  0.00  0.00    +0.184 C 
ATOM     15  C   UNL     1     -34.164  26.862  -0.834  0.00  0.00    +0.002 C 
ATOM     16  C   UNL     1     -36.396  26.642   1.371  0.00  0.00    -0.048 C 
ATOM     17  C   UNL     1     -33.794  31.032   1.380  0.00  0.00    +0.012 C 
ATOM     18  C   UNL     1     -36.628  25.439   1.958  0.00  0.00    -0.020 C 
ATOM     19  C   UNL     1     -34.344  24.556   2.215  0.00  0.00    -0.027 C 
ATOM     20  C   UNL     1     -35.595  24.706   2.696  0.00  0.00    +0.005 C 
ATOM     21  C   UNL     1     -31.695  29.498   0.043  0.00  0.00    -0.008 C 
ATOM     22  C   UNL     1     -32.520  27.833   4.974  0.00  0.00    +0.045 C 
ATOM     23  C   UNL     1     -37.434  27.394   0.575  0.00  0.00    +0.026 C 
ATOM     24  C   UNL     1     -36.061  24.073   4.002  0.00  0.00    +0.154 C 
ATOM     25  C   UNL     1     -37.931  24.692   1.992  0.00  0.00    +0.135 C 
ATOM     26  C   UNL     1     -38.400  24.623   3.421  0.00  0.00    +0.322 C 
ATOM     27  C   UNL     1     -36.028  22.538   3.942  0.00  0.00    +0.048 C 
ATOM     28  C   UNL     1     -35.213  24.562   5.186  0.00  0.00    +0.048 C 
ENDROOT
BRANCH  13  29
ATOM     29  O   UNL     1     -31.031  28.988   3.476  0.00  0.00    -0.373 OA
ATOM     30  H   UNL     1     -31.130  29.876   3.853  0.00  0.00    +0.211 HD
ENDBRANCH  13  29
BRANCH   6  32
ATOM     31  O   UNL     1     -31.471  26.108  -0.768  0.00  0.00    -0.249 OA
ATOM     32  C   UNL     1     -31.335  26.711   0.288  0.00  0.00    +0.326 C 
BRANCH  32  33
ATOM     33  O   UNL     1     -30.159  26.950   0.936  0.00  0.00    -0.444 OA
ATOM     34  C   UNL     1     -28.975  26.580   0.221  0.00  0.00    +0.256 C 
ENDBRANCH  32  33
ENDBRANCH   6  32
TORSDOF 3
ENDMDL
MODEL 8
REMARK VINA RESULT:      -5.9      2.834      4.574
REMARK  Name = 21580417
REMARK  3 active torsions:
REMARK  status: ('A' for Active; 'I' for Inactive)
REMARK    1  A    between atoms: C_6  and  C_32
REMARK    2  A    between atoms: C_13  and  O_29
REMARK    3  A    between atoms: C_32  and  O_33
REMARK                            x       y       z     vdW  Elec       q    Type
REMARK                         _______ _______ _______ _____ _____    ______ ____
ROOT
ATOM      1  O   UNL     1     -35.888  28.249   2.227  0.00  0.00    -0.292 OA
ATOM      2  O   UNL     1     -34.220  25.926  -1.442  0.00  0.00    -0.293 OA
ATOM      3  O   UNL     1     -40.209  24.250   0.858  0.00  0.00    -0.451 OA
ATOM      4  O   UNL     1     -40.663  22.042   0.697  0.00  0.00    -0.250 OA
ATOM      5  C   UNL     1     -35.247  25.250   3.140  0.00  0.00    +0.027 C 
ATOM      6  C   UNL     1     -34.316  26.482   2.744  0.00  0.00    +0.159 C 
ATOM      7  C   UNL     1     -35.631  24.471   1.824  0.00  0.00    +0.020 C 
ATOM      8  C   UNL     1     -33.409  25.217   0.718  0.00  0.00    +0.070 C 
ATOM      9  C   UNL     1     -34.380  24.049   1.019  0.00  0.00    +0.015 C 
ATOM     10  C   UNL     1     -33.072  25.991   1.993  0.00  0.00    -0.022 C 
ATOM     11  C   UNL     1     -36.530  25.698   3.930  0.00  0.00    +0.027 C 
ATOM     12  C   UNL     1     -35.038  27.466   1.789  0.00  0.00    +0.194 C 
ATOM     13  C   UNL     1     -34.634  27.511   0.316  0.00  0.00    +0.191 C 
ATOM     14  C   UNL     1     -34.101  26.198  -0.244  0.00  0.00    +0.184 C 
ATOM     15  C   UNL     1     -34.482  24.286   4.103  0.00  0.00    +0.002 C 
ATOM     16  C   UNL     1     -36.672  23.354   2.047  0.00  0.00    -0.048 C 
ATOM     17  C   UNL     1     -32.186  24.632  -0.025  0.00  0.00    +0.012 C 
ATOM     18  C   UNL     1     -37.971  23.680   2.273  0.00  0.00    -0.020 C 
ATOM     19  C   UNL     1     -37.771  25.981   3.125  0.00  0.00    -0.027 C 
ATOM     20  C   UNL     1     -38.431  25.067   2.385  0.00  0.00    +0.005 C 
ATOM     21  C   UNL     1     -31.808  26.224   2.399  0.00  0.00    -0.008 C 
ATOM     22  C   UNL     1     -35.783  28.032  -0.550  0.00  0.00    +0.045 C 
ATOM     23  C   UNL     1     -36.172  21.933   1.966  0.00  0.00    +0.026 C 
ATOM     24  C   UNL     1     -39.739  25.375   1.665  0.00  0.00    +0.154 C 
ATOM     25  C   UNL     1     -39.126  22.729   2.403  0.00  0.00    +0.135 C 
ATOM     26  C   UNL     1     -40.062  22.960   1.247  0.00  0.00    +0.322 C 
ATOM     27  C   UNL     1     -40.869  25.725   2.645  0.00  0.00    +0.048 C 
ATOM     28  C   UNL     1     -39.558  26.519   0.656  0.00  0.00    +0.048 C 
ENDROOT
BRANCH  13  29
ATOM     29  O   UNL     1     -33.538  28.414   0.233  0.00  0.00    -0.373 OA
ATOM     30  H   UNL     1     -33.637  28.972  -0.554  0.00  0.00    +0.211 HD
ENDBRANCH  13  29
BRANCH   6  32
ATOM     31  O   UNL     1     -33.793  26.796   5.098  0.00  0.00    -0.249 OA
ATOM     32  C   UNL     1     -33.896  27.274   3.977  0.00  0.00    +0.326 C 
BRANCH  32  33
ATOM     33  O   UNL     1     -33.661  28.571   3.626  0.00  0.00    -0.444 OA
ATOM     34  C   UNL     1     -32.517  29.177   4.238  0.00  0.00    +0.256 C 
ENDBRANCH  32  33
ENDBRANCH   6  32
TORSDOF 3
ENDMDL
MODEL 9
REMARK VINA RESULT:      -5.7      2.685      6.661
REMARK  Name = 21580417
REMARK  3 active torsions:
REMARK  status: ('A' for Active; 'I' for Inactive)
REMARK    1  A    between atoms: C_6  and  C_32
REMARK    2  A    between atoms: C_13  and  O_29
REMARK    3  A    between atoms: C_32  and  O_33
REMARK                            x       y       z     vdW  Elec       q    Type
REMARK                         _______ _______ _______ _____ _____    ______ ____
ROOT
ATOM      1  O   UNL     1     -36.980  27.136   3.008  0.00  0.00    -0.292 OA
ATOM      2  O   UNL     1     -35.798  22.846   4.363  0.00  0.00    -0.293 OA
ATOM      3  O   UNL     1     -30.937  27.184   3.127  0.00  0.00    -0.451 OA
ATOM      4  O   UNL     1     -29.090  26.250   2.220  0.00  0.00    -0.250 OA
ATOM      5  C   UNL     1     -35.602  25.643   0.536  0.00  0.00    +0.027 C 
ATOM      6  C   UNL     1     -37.005  25.453   1.267  0.00  0.00    +0.159 C 
ATOM      7  C   UNL     1     -34.521  24.784   1.299  0.00  0.00    +0.020 C 
ATOM      8  C   UNL     1     -36.355  23.103   2.029  0.00  0.00    +0.070 C 
ATOM      9  C   UNL     1     -34.945  23.301   1.419  0.00  0.00    +0.015 C 
ATOM     10  C   UNL     1     -37.389  23.969   1.308  0.00  0.00    -0.022 C 
ATOM     11  C   UNL     1     -35.169  27.152   0.451  0.00  0.00    +0.027 C 
ATOM     12  C   UNL     1     -36.956  25.929   2.741  0.00  0.00    +0.194 C 
ATOM     13  C   UNL     1     -36.956  24.892   3.863  0.00  0.00    +0.191 C 
ATOM     14  C   UNL     1     -36.323  23.554   3.499  0.00  0.00    +0.184 C 
ATOM     15  C   UNL     1     -35.696  25.154  -0.945  0.00  0.00    +0.002 C 
ATOM     16  C   UNL     1     -33.080  25.013   0.797  0.00  0.00    -0.048 C 
ATOM     17  C   UNL     1     -36.661  21.588   2.020  0.00  0.00    +0.012 C 
ATOM     18  C   UNL     1     -32.433  26.166   1.111  0.00  0.00    -0.020 C 
ATOM     19  C   UNL     1     -34.313  27.689   1.567  0.00  0.00    -0.027 C 
ATOM     20  C   UNL     1     -33.071  27.252   1.860  0.00  0.00    +0.005 C 
ATOM     21  C   UNL     1     -38.524  23.470   0.780  0.00  0.00    -0.008 C 
ATOM     22  C   UNL     1     -36.312  25.458   5.130  0.00  0.00    +0.045 C 
ATOM     23  C   UNL     1     -32.455  23.899  -0.005  0.00  0.00    +0.026 C 
ATOM     24  C   UNL     1     -32.203  27.891   2.938  0.00  0.00    +0.154 C 
ATOM     25  C   UNL     1     -31.004  26.507   0.800  0.00  0.00    +0.135 C 
ATOM     26  C   UNL     1     -30.252  26.625   2.099  0.00  0.00    +0.322 C 
ATOM     27  C   UNL     1     -31.854  29.351   2.606  0.00  0.00    +0.048 C 
ATOM     28  C   UNL     1     -32.887  27.823   4.311  0.00  0.00    +0.048 C 
ENDROOT
BRANCH  13  29
ATOM     29  O   UNL     1     -38.320  24.590   4.125  0.00  0.00    -0.373 OA
ATOM     30  H   UNL     1     -38.783  25.396   4.403  0.00  0.00    +0.211 HD
ENDBRANCH  13  29
BRANCH   6  32
ATOM     31  O   UNL     1     -38.148  26.444  -0.637  0.00  0.00    -0.249 OA
ATOM     32  C   UNL     1     -38.102  26.251   0.570  0.00  0.00    +0.326 C 
BRANCH  32  33
ATOM     33  O   UNL     1     -38.996  26.700   1.497  0.00  0.00    -0.444 OA
ATOM     34  C   UNL     1     -40.373  26.625   1.109  0.00  0.00    +0.256 C 
ENDBRANCH  32  33
ENDBRANCH   6  32
TORSDOF 3
ENDMDL
