MODEL 1
REMARK VINA RESULT:      -6.0      0.000      0.000
REMARK  Name = 56842471
REMARK  11 active torsions:
REMARK  status: ('A' for Active; 'I' for Inactive)
REMARK    1  A    between atoms: O_1  and  C_3
REMARK    2  A    between atoms: O_1  and  C_18
REMARK    3  A    between atoms: C_4  and  O_10
REMARK    4  A    between atoms: C_5  and  O_8
REMARK    5  A    between atoms: C_6  and  C_14
REMARK    6  A    between atoms: C_7  and  O_12
REMARK    7  A    between atoms: C_14  and  O_15
REMARK    8  A    between atoms: C_18  and  C_21
REMARK    9  A    between atoms: C_22  and  C_31
REMARK   10  A    between atoms: C_23  and  O_27
REMARK   11  A    between atoms: C_26  and  O_29
REMARK                            x       y       z     vdW  Elec       q    Type
REMARK                         _______ _______ _______ _____ _____    ______ ____
ROOT
ATOM      1  O   UNL     1     -36.684  23.329   2.213  0.00  0.00    -0.444 OA
ENDROOT
BRANCH   1   3
ATOM      2  O   UNL     1     -37.200  21.708  -0.292  0.00  0.00    -0.325 OA
ATOM      3  C   UNL     1     -37.363  22.070   2.153  0.00  0.00    +0.228 C 
ATOM      4  C   UNL     1     -36.338  20.956   2.379  0.00  0.00    +0.185 C 
ATOM      5  C   UNL     1     -35.465  20.782   1.134  0.00  0.00    +0.202 C 
ATOM      6  C   UNL     1     -38.091  21.975   0.799  0.00  0.00    +0.189 C 
ATOM      7  C   UNL     1     -36.300  20.611  -0.134  0.00  0.00    +0.266 C 
BRANCH   5   8
ATOM      8  O   UNL     1     -34.578  19.680   1.285  0.00  0.00    -0.346 OA
ATOM      9  C   UNL     1     -33.313  19.956   0.709  0.00  0.00    +0.174 C 
ENDBRANCH   5   8
BRANCH   4  10
ATOM     10  O   UNL     1     -37.003  19.732   2.676  0.00  0.00    -0.378 OA
ATOM     11  H   UNL     1     -36.399  18.989   2.518  0.00  0.00    +0.211 HD
ENDBRANCH   4  10
BRANCH   7  12
ATOM     12  O   UNL     1     -36.954  19.347  -0.147  0.00  0.00    -0.326 OA
ATOM     13  C   UNL     1     -36.894  18.745  -1.432  0.00  0.00    +0.177 C 
ENDBRANCH   7  12
BRANCH   6  14
ATOM     14  C   UNL     1     -39.269  21.004   0.805  0.00  0.00    +0.171 C 
BRANCH  14  15
ATOM     15  O   UNL     1     -39.871  21.032   2.086  0.00  0.00    -0.379 OA
ATOM     16  H   UNL     1     -39.531  20.297   2.619  0.00  0.00    +0.211 HD
ENDBRANCH  14  15
ENDBRANCH   6  14
ENDBRANCH   1   3
BRANCH   1  18
ATOM     17  O   UNL     1     -38.319  24.213   3.571  0.00  0.00    -0.245 OA
ATOM     18  C   UNL     1     -37.203  24.242   3.076  0.00  0.00    +0.344 C 
BRANCH  18  21
ATOM     19 CL   UNL     1     -33.700  26.367   6.299  0.00  0.00    -0.079 Cl
ATOM     20 CL   UNL     1     -34.814  28.575   1.486  0.00  0.00    -0.076 Cl
ATOM     21  C   UNL     1     -36.218  25.318   3.354  0.00  0.00    +0.107 A 
ATOM     22  C   UNL     1     -35.509  25.330   4.555  0.00  0.00    +0.001 A 
ATOM     23  C   UNL     1     -36.003  26.320   2.408  0.00  0.00    +0.153 A 
ATOM     24  C   UNL     1     -34.585  26.344   4.810  0.00  0.00    +0.089 A 
ATOM     25  C   UNL     1     -35.079  27.333   2.661  0.00  0.00    +0.126 A 
ATOM     26  C   UNL     1     -34.370  27.345   3.863  0.00  0.00    +0.157 A 
BRANCH  23  27
ATOM     27  O   UNL     1     -36.702  26.299   1.234  0.00  0.00    -0.504 OA
ATOM     28  H   UNL     1     -37.015  25.486   0.889  0.00  0.00    +0.292 HD
ENDBRANCH  23  27
BRANCH  26  29
ATOM     29  O   UNL     1     -33.466  28.339   4.111  0.00  0.00    -0.504 OA
ATOM     30  H   UNL     1     -33.513  29.145   3.635  0.00  0.00    +0.292 HD
ENDBRANCH  26  29
BRANCH  22  31
ATOM     31  C   UNL     1     -35.750  24.248   5.563  0.00  0.00    +0.028 C 
ATOM     32  C   UNL     1     -34.828  23.053   5.353  0.00  0.00    +0.005 C 
ENDBRANCH  22  31
ENDBRANCH  18  21
ENDBRANCH   1  18
TORSDOF 11
ENDMDL
MODEL 2
REMARK VINA RESULT:      -5.8      2.379      3.583
REMARK  Name = 56842471
REMARK  11 active torsions:
REMARK  status: ('A' for Active; 'I' for Inactive)
REMARK    1  A    between atoms: O_1  and  C_3
REMARK    2  A    between atoms: O_1  and  C_18
REMARK    3  A    between atoms: C_4  and  O_10
REMARK    4  A    between atoms: C_5  and  O_8
REMARK    5  A    between atoms: C_6  and  C_14
REMARK    6  A    between atoms: C_7  and  O_12
REMARK    7  A    between atoms: C_14  and  O_15
REMARK    8  A    between atoms: C_18  and  C_21
REMARK    9  A    between atoms: C_22  and  C_31
REMARK   10  A    between atoms: C_23  and  O_27
REMARK   11  A    between atoms: C_26  and  O_29
REMARK                            x       y       z     vdW  Elec       q    Type
REMARK                         _______ _______ _______ _____ _____    ______ ____
ROOT
ATOM      1  O   UNL     1     -35.194  21.262   1.874  0.00  0.00    -0.444 OA
ENDROOT
BRANCH   1   3
ATOM      2  O   UNL     1     -34.870  20.536  -1.048  0.00  0.00    -0.325 OA
ATOM      3  C   UNL     1     -35.182  19.936   1.334  0.00  0.00    +0.228 C 
ATOM      4  C   UNL     1     -33.747  19.407   1.382  0.00  0.00    +0.185 C 
ATOM      5  C   UNL     1     -32.900  20.080   0.299  0.00  0.00    +0.202 C 
ATOM      6  C   UNL     1     -35.777  19.984  -0.085  0.00  0.00    +0.189 C 
ATOM      7  C   UNL     1     -33.551  19.987  -1.080  0.00  0.00    +0.266 C 
BRANCH   5   8
ATOM      8  O   UNL     1     -31.592  19.523   0.258  0.00  0.00    -0.346 OA
ATOM      9  C   UNL     1     -30.712  20.336  -0.499  0.00  0.00    +0.174 C 
ENDBRANCH   5   8
BRANCH   4  10
ATOM     10  O   UNL     1     -33.740  17.995   1.193  0.00  0.00    -0.378 OA
ATOM     11  H   UNL     1     -32.855  17.711   0.913  0.00  0.00    +0.211 HD
ENDBRANCH   4  10
BRANCH   7  12
ATOM     12  O   UNL     1     -33.516  18.652  -1.572  0.00  0.00    -0.326 OA
ATOM     13  C   UNL     1     -33.176  18.616  -2.950  0.00  0.00    +0.177 C 
ENDBRANCH   7  12
BRANCH   6  14
ATOM     14  C   UNL     1     -36.341  18.646  -0.557  0.00  0.00    +0.171 C 
BRANCH  14  15
ATOM     15  O   UNL     1     -36.851  17.950   0.565  0.00  0.00    -0.379 OA
ATOM     16  H   UNL     1     -36.438  17.074   0.618  0.00  0.00    +0.211 HD
ENDBRANCH  14  15
ENDBRANCH   6  14
ENDBRANCH   1   3
BRANCH   1  18
ATOM     17  O   UNL     1     -35.586  20.571   4.034  0.00  0.00    -0.245 OA
ATOM     18  C   UNL     1     -35.694  21.387   3.132  0.00  0.00    +0.344 C 
BRANCH  18  21
ATOM     19 CL   UNL     1     -36.136  25.997   5.525  0.00  0.00    -0.079 Cl
ATOM     20 CL   UNL     1     -39.575  24.497   1.625  0.00  0.00    -0.076 Cl
ATOM     21  C   UNL     1     -36.412  22.677   3.285  0.00  0.00    +0.107 A 
ATOM     22  C   UNL     1     -35.983  23.616   4.223  0.00  0.00    +0.001 A 
ATOM     23  C   UNL     1     -37.521  22.951   2.483  0.00  0.00    +0.153 A 
ATOM     24  C   UNL     1     -36.662  24.826   4.362  0.00  0.00    +0.089 A 
ATOM     25  C   UNL     1     -38.200  24.160   2.620  0.00  0.00    +0.126 A 
ATOM     26  C   UNL     1     -37.771  25.098   3.559  0.00  0.00    +0.157 A 
BRANCH  23  27
ATOM     27  O   UNL     1     -37.933  22.026   1.566  0.00  0.00    -0.504 OA
ATOM     28  H   UNL     1     -37.892  22.223   0.651  0.00  0.00    +0.292 HD
ENDBRANCH  23  27
BRANCH  26  29
ATOM     29  O   UNL     1     -38.437  26.283   3.694  0.00  0.00    -0.504 OA
ATOM     30  H   UNL     1     -38.294  26.974   3.077  0.00  0.00    +0.292 HD
ENDBRANCH  26  29
BRANCH  22  31
ATOM     31  C   UNL     1     -34.790  23.309   5.077  0.00  0.00    +0.028 C 
ATOM     32  C   UNL     1     -35.182  22.651   6.395  0.00  0.00    +0.005 C 
ENDBRANCH  22  31
ENDBRANCH  18  21
ENDBRANCH   1  18
TORSDOF 11
ENDMDL
MODEL 3
REMARK VINA RESULT:      -5.7      2.168      3.747
REMARK  Name = 56842471
REMARK  11 active torsions:
REMARK  status: ('A' for Active; 'I' for Inactive)
REMARK    1  A    between atoms: O_1  and  C_3
REMARK    2  A    between atoms: O_1  and  C_18
REMARK    3  A    between atoms: C_4  and  O_10
REMARK    4  A    between atoms: C_5  and  O_8
REMARK    5  A    between atoms: C_6  and  C_14
REMARK    6  A    between atoms: C_7  and  O_12
REMARK    7  A    between atoms: C_14  and  O_15
REMARK    8  A    between atoms: C_18  and  C_21
REMARK    9  A    between atoms: C_22  and  C_31
REMARK   10  A    between atoms: C_23  and  O_27
REMARK   11  A    between atoms: C_26  and  O_29
REMARK                            x       y       z     vdW  Elec       q    Type
REMARK                         _______ _______ _______ _____ _____    ______ ____
ROOT
ATOM      1  O   UNL     1     -36.897  21.891   1.635  0.00  0.00    -0.444 OA
ENDROOT
BRANCH   1   3
ATOM      2  O   UNL     1     -38.996  23.764   0.515  0.00  0.00    -0.325 OA
ATOM      3  C   UNL     1     -38.184  22.146   2.205  0.00  0.00    +0.228 C 
ATOM      4  C   UNL     1     -39.167  21.103   1.669  0.00  0.00    +0.185 C 
ATOM      5  C   UNL     1     -39.520  21.411   0.212  0.00  0.00    +0.202 C 
ATOM      6  C   UNL     1     -38.583  23.597   1.878  0.00  0.00    +0.189 C 
ATOM      7  C   UNL     1     -39.984  22.855   0.027  0.00  0.00    +0.266 C 
BRANCH   5   8
ATOM      8  O   UNL     1     -40.515  20.515  -0.269  0.00  0.00    -0.346 OA
ATOM      9  C   UNL     1     -40.503  20.449  -1.685  0.00  0.00    +0.174 C 
ENDBRANCH   5   8
BRANCH   4  10
ATOM     10  O   UNL     1     -40.351  21.093   2.461  0.00  0.00    -0.378 OA
ATOM     11  H   UNL     1     -41.063  20.649   1.974  0.00  0.00    +0.211 HD
ENDBRANCH   4  10
BRANCH   7  12
ATOM     12  O   UNL     1     -41.266  23.058   0.611  0.00  0.00    -0.326 OA
ATOM     13  C   UNL     1     -42.025  24.009  -0.122  0.00  0.00    +0.177 C 
ENDBRANCH   7  12
BRANCH   6  14
ATOM     14  C   UNL     1     -39.607  24.184   2.845  0.00  0.00    +0.171 C 
BRANCH  14  15
ATOM     15  O   UNL     1     -38.917  24.762   3.938  0.00  0.00    -0.379 OA
ATOM     16  H   UNL     1     -38.047  25.074   3.643  0.00  0.00    +0.211 HD
ENDBRANCH  14  15
ENDBRANCH   6  14
ENDBRANCH   1   3
BRANCH   1  18
ATOM     17  O   UNL     1     -35.567  20.666   3.060  0.00  0.00    -0.245 OA
ATOM     18  C   UNL     1     -35.879  21.716   2.519  0.00  0.00    +0.344 C 
BRANCH  18  21
ATOM     19 CL   UNL     1     -34.486  25.501   5.821  0.00  0.00    -0.079 Cl
ATOM     20 CL   UNL     1     -32.999  25.603   0.619  0.00  0.00    -0.076 Cl
ATOM     21  C   UNL     1     -35.168  22.997   2.759  0.00  0.00    +0.107 A 
ATOM     22  C   UNL     1     -35.165  23.574   4.029  0.00  0.00    +0.001 A 
ATOM     23  C   UNL     1     -34.499  23.624   1.707  0.00  0.00    +0.153 A 
ATOM     24  C   UNL     1     -34.494  24.778   4.247  0.00  0.00    +0.089 A 
ATOM     25  C   UNL     1     -33.828  24.827   1.924  0.00  0.00    +0.126 A 
ATOM     26  C   UNL     1     -33.826  25.404   3.194  0.00  0.00    +0.157 A 
BRANCH  23  27
ATOM     27  O   UNL     1     -34.507  23.051   0.467  0.00  0.00    -0.504 OA
ATOM     28  H   UNL     1     -33.959  23.394  -0.211  0.00  0.00    +0.292 HD
ENDBRANCH  23  27
BRANCH  26  29
ATOM     29  O   UNL     1     -33.169  26.582   3.407  0.00  0.00    -0.504 OA
ATOM     30  H   UNL     1     -32.739  27.015   2.695  0.00  0.00    +0.292 HD
ENDBRANCH  26  29
BRANCH  22  31
ATOM     31  C   UNL     1     -35.887  22.890   5.149  0.00  0.00    +0.028 C 
ATOM     32  C   UNL     1     -34.942  22.090   6.037  0.00  0.00    +0.005 C 
ENDBRANCH  22  31
ENDBRANCH  18  21
ENDBRANCH   1  18
TORSDOF 11
ENDMDL
MODEL 4
REMARK VINA RESULT:      -5.7      3.047      6.970
REMARK  Name = 56842471
REMARK  11 active torsions:
REMARK  status: ('A' for Active; 'I' for Inactive)
REMARK    1  A    between atoms: O_1  and  C_3
REMARK    2  A    between atoms: O_1  and  C_18
REMARK    3  A    between atoms: C_4  and  O_10
REMARK    4  A    between atoms: C_5  and  O_8
REMARK    5  A    between atoms: C_6  and  C_14
REMARK    6  A    between atoms: C_7  and  O_12
REMARK    7  A    between atoms: C_14  and  O_15
REMARK    8  A    between atoms: C_18  and  C_21
REMARK    9  A    between atoms: C_22  and  C_31
REMARK   10  A    between atoms: C_23  and  O_27
REMARK   11  A    between atoms: C_26  and  O_29
REMARK                            x       y       z     vdW  Elec       q    Type
REMARK                         _______ _______ _______ _____ _____    ______ ____
ROOT
ATOM      1  O   UNL     1     -35.740  26.918   4.438  0.00  0.00    -0.444 OA
ENDROOT
BRANCH   1   3
ATOM      2  O   UNL     1     -34.114  29.152   3.199  0.00  0.00    -0.325 OA
ATOM      3  C   UNL     1     -34.717  26.763   3.448  0.00  0.00    +0.228 C 
ATOM      4  C   UNL     1     -33.387  26.509   4.162  0.00  0.00    +0.185 C 
ATOM      5  C   UNL     1     -32.871  27.805   4.794  0.00  0.00    +0.202 C 
ATOM      6  C   UNL     1     -34.710  28.018   2.555  0.00  0.00    +0.189 C 
ATOM      7  C   UNL     1     -32.828  28.955   3.790  0.00  0.00    +0.266 C 
BRANCH   5   8
ATOM      8  O   UNL     1     -31.585  27.612   5.369  0.00  0.00    -0.346 OA
ATOM      9  C   UNL     1     -31.284  28.632   6.306  0.00  0.00    +0.174 C 
ENDBRANCH   5   8
BRANCH   4  10
ATOM     10  O   UNL     1     -32.425  26.006   3.240  0.00  0.00    -0.378 OA
ATOM     11  H   UNL     1     -32.265  26.666   2.547  0.00  0.00    +0.211 HD
ENDBRANCH   4  10
BRANCH   7  12
ATOM     12  O   UNL     1     -31.798  28.755   2.828  0.00  0.00    -0.326 OA
ATOM     13  C   UNL     1     -31.019  29.930   2.650  0.00  0.00    +0.177 C 
ENDBRANCH   7  12
BRANCH   6  14
ATOM     14  C   UNL     1     -34.106  27.783   1.174  0.00  0.00    +0.171 C 
BRANCH  14  15
ATOM     15  O   UNL     1     -34.207  26.405   0.866  0.00  0.00    -0.379 OA
ATOM     16  H   UNL     1     -34.241  25.891   1.688  0.00  0.00    +0.211 HD
ENDBRANCH  14  15
ENDBRANCH   6  14
ENDBRANCH   1   3
BRANCH   1  18
ATOM     17  O   UNL     1     -35.912  25.625   6.334  0.00  0.00    -0.245 OA
ATOM     18  C   UNL     1     -36.066  25.798   5.135  0.00  0.00    +0.344 C 
BRANCH  18  21
ATOM     19 CL   UNL     1     -35.858  21.007   3.090  0.00  0.00    -0.079 Cl
ATOM     20 CL   UNL     1     -39.804  24.470   1.776  0.00  0.00    -0.076 Cl
ATOM     21  C   UNL     1     -36.651  24.773   4.234  0.00  0.00    +0.107 A 
ATOM     22  C   UNL     1     -36.047  23.522   4.105  0.00  0.00    +0.001 A 
ATOM     23  C   UNL     1     -37.810  25.064   3.515  0.00  0.00    +0.153 A 
ATOM     24  C   UNL     1     -36.602  22.563   3.257  0.00  0.00    +0.089 A 
ATOM     25  C   UNL     1     -38.366  24.106   2.667  0.00  0.00    +0.126 A 
ATOM     26  C   UNL     1     -37.761  22.856   2.538  0.00  0.00    +0.157 A 
BRANCH  23  27
ATOM     27  O   UNL     1     -38.395  26.292   3.648  0.00  0.00    -0.504 OA
ATOM     28  H   UNL     1     -38.833  26.518   4.445  0.00  0.00    +0.292 HD
ENDBRANCH  23  27
BRANCH  26  29
ATOM     29  O   UNL     1     -38.305  21.918   1.707  0.00  0.00    -0.504 OA
ATOM     30  H   UNL     1     -38.576  22.158   0.843  0.00  0.00    +0.292 HD
ENDBRANCH  26  29
BRANCH  22  31
ATOM     31  C   UNL     1     -34.802  23.222   4.883  0.00  0.00    +0.028 C 
ATOM     32  C   UNL     1     -35.078  22.325   6.084  0.00  0.00    +0.005 C 
ENDBRANCH  22  31
ENDBRANCH  18  21
ENDBRANCH   1  18
TORSDOF 11
ENDMDL
MODEL 5
REMARK VINA RESULT:      -5.6      3.319      5.809
REMARK  Name = 56842471
REMARK  11 active torsions:
REMARK  status: ('A' for Active; 'I' for Inactive)
REMARK    1  A    between atoms: O_1  and  C_3
REMARK    2  A    between atoms: O_1  and  C_18
REMARK    3  A    between atoms: C_4  and  O_10
REMARK    4  A    between atoms: C_5  and  O_8
REMARK    5  A    between atoms: C_6  and  C_14
REMARK    6  A    between atoms: C_7  and  O_12
REMARK    7  A    between atoms: C_14  and  O_15
REMARK    8  A    between atoms: C_18  and  C_21
REMARK    9  A    between atoms: C_22  and  C_31
REMARK   10  A    between atoms: C_23  and  O_27
REMARK   11  A    between atoms: C_26  and  O_29
REMARK                            x       y       z     vdW  Elec       q    Type
REMARK                         _______ _______ _______ _____ _____    ______ ____
ROOT
ATOM      1  O   UNL     1     -33.694  26.875   4.231  0.00  0.00    -0.444 OA
ENDROOT
BRANCH   1   3
ATOM      2  O   UNL     1     -34.793  24.630   2.523  0.00  0.00    -0.325 OA
ATOM      3  C   UNL     1     -35.070  26.678   3.887  0.00  0.00    +0.228 C 
ATOM      4  C   UNL     1     -35.730  25.847   4.989  0.00  0.00    +0.185 C 
ATOM      5  C   UNL     1     -35.280  24.387   4.890  0.00  0.00    +0.202 C 
ATOM      6  C   UNL     1     -35.133  26.022   2.494  0.00  0.00    +0.189 C 
ATOM      7  C   UNL     1     -35.472  23.820   3.485  0.00  0.00    +0.266 C 
BRANCH   5   8
ATOM      8  O   UNL     1     -35.966  23.579   5.839  0.00  0.00    -0.346 OA
ATOM      9  C   UNL     1     -35.269  22.369   6.081  0.00  0.00    +0.174 C 
ENDBRANCH   5   8
BRANCH   4  10
ATOM     10  O   UNL     1     -37.148  25.923   4.875  0.00  0.00    -0.378 OA
ATOM     11  H   UNL     1     -37.507  25.036   4.709  0.00  0.00    +0.211 HD
ENDBRANCH   4  10
BRANCH   7  12
ATOM     12  O   UNL     1     -36.852  23.644   3.189  0.00  0.00    -0.326 OA
ATOM     13  C   UNL     1     -37.104  22.362   2.631  0.00  0.00    +0.177 C 
ENDBRANCH   7  12
BRANCH   6  14
ATOM     14  C   UNL     1     -36.454  26.257   1.767  0.00  0.00    +0.171 C 
BRANCH  14  15
ATOM     15  O   UNL     1     -37.039  27.446   2.266  0.00  0.00    -0.379 OA
ATOM     16  H   UNL     1     -37.417  27.278   3.143  0.00  0.00    +0.211 HD
ENDBRANCH  14  15
ENDBRANCH   6  14
ENDBRANCH   1   3
BRANCH   1  18
ATOM     17  O   UNL     1     -33.813  29.101   3.655  0.00  0.00    -0.245 OA
ATOM     18  C   UNL     1     -33.176  28.096   3.930  0.00  0.00    +0.344 C 
BRANCH  18  21
ATOM     19 CL   UNL     1     -28.760  29.121   6.502  0.00  0.00    -0.079 Cl
ATOM     20 CL   UNL     1     -28.706  26.838   1.596  0.00  0.00    -0.076 Cl
ATOM     21  C   UNL     1     -31.693  28.060   3.975  0.00  0.00    +0.107 A 
ATOM     22  C   UNL     1     -31.010  28.550   5.088  0.00  0.00    +0.001 A 
ATOM     23  C   UNL     1     -30.981  27.532   2.898  0.00  0.00    +0.153 A 
ATOM     24  C   UNL     1     -29.616  28.514   5.124  0.00  0.00    +0.089 A 
ATOM     25  C   UNL     1     -29.587  27.494   2.933  0.00  0.00    +0.126 A 
ATOM     26  C   UNL     1     -28.905  27.985   4.046  0.00  0.00    +0.157 A 
BRANCH  23  27
ATOM     27  O   UNL     1     -31.658  27.053   1.812  0.00  0.00    -0.504 OA
ATOM     28  H   UNL     1     -32.014  27.648   1.182  0.00  0.00    +0.292 HD
ENDBRANCH  23  27
BRANCH  26  29
ATOM     29  O   UNL     1     -27.540  27.948   4.080  0.00  0.00    -0.504 OA
ATOM     30  H   UNL     1     -27.099  27.228   4.486  0.00  0.00    +0.292 HD
ENDBRANCH  26  29
BRANCH  22  31
ATOM     31  C   UNL     1     -31.787  29.115   6.238  0.00  0.00    +0.028 C 
ATOM     32  C   UNL     1     -31.918  30.630   6.153  0.00  0.00    +0.005 C 
ENDBRANCH  22  31
ENDBRANCH  18  21
ENDBRANCH   1  18
TORSDOF 11
ENDMDL
MODEL 6
REMARK VINA RESULT:      -5.6      3.293      7.257
REMARK  Name = 56842471
REMARK  11 active torsions:
REMARK  status: ('A' for Active; 'I' for Inactive)
REMARK    1  A    between atoms: O_1  and  C_3
REMARK    2  A    between atoms: O_1  and  C_18
REMARK    3  A    between atoms: C_4  and  O_10
REMARK    4  A    between atoms: C_5  and  O_8
REMARK    5  A    between atoms: C_6  and  C_14
REMARK    6  A    between atoms: C_7  and  O_12
REMARK    7  A    between atoms: C_14  and  O_15
REMARK    8  A    between atoms: C_18  and  C_21
REMARK    9  A    between atoms: C_22  and  C_31
REMARK   10  A    between atoms: C_23  and  O_27
REMARK   11  A    between atoms: C_26  and  O_29
REMARK                            x       y       z     vdW  Elec       q    Type
REMARK                         _______ _______ _______ _____ _____    ______ ____
ROOT
ATOM      1  O   UNL     1     -36.037  22.324   2.391  0.00  0.00    -0.444 OA
ENDROOT
BRANCH   1   3
ATOM      2  O   UNL     1     -34.203  24.008   4.115  0.00  0.00    -0.325 OA
ATOM      3  C   UNL     1     -36.384  22.936   3.638  0.00  0.00    +0.228 C 
ATOM      4  C   UNL     1     -36.989  24.312   3.349  0.00  0.00    +0.185 C 
ATOM      5  C   UNL     1     -35.891  25.294   2.933  0.00  0.00    +0.202 C 
ATOM      6  C   UNL     1     -35.124  22.987   4.522  0.00  0.00    +0.189 C 
ATOM      7  C   UNL     1     -34.736  25.321   3.933  0.00  0.00    +0.266 C 
BRANCH   5   8
ATOM      8  O   UNL     1     -36.420  26.605   2.766  0.00  0.00    -0.346 OA
ATOM      9  C   UNL     1     -37.179  26.703   1.573  0.00  0.00    +0.174 C 
ENDBRANCH   5   8
BRANCH   4  10
ATOM     10  O   UNL     1     -37.663  24.802   4.505  0.00  0.00    -0.378 OA
ATOM     11  H   UNL     1     -38.442  24.252   4.683  0.00  0.00    +0.211 HD
ENDBRANCH   4  10
BRANCH   7  12
ATOM     12  O   UNL     1     -35.130  25.936   5.153  0.00  0.00    -0.326 OA
ATOM     13  C   UNL     1     -34.004  26.331   5.923  0.00  0.00    +0.177 C 
ENDBRANCH   7  12
BRANCH   6  14
ATOM     14  C   UNL     1     -35.428  23.077   6.015  0.00  0.00    +0.171 C 
BRANCH  14  15
ATOM     15  O   UNL     1     -36.127  21.908   6.404  0.00  0.00    -0.379 OA
ATOM     16  H   UNL     1     -36.466  21.456   5.616  0.00  0.00    +0.211 HD
ENDBRANCH  14  15
ENDBRANCH   6  14
ENDBRANCH   1   3
BRANCH   1  18
ATOM     17  O   UNL     1     -35.430  20.344   3.397  0.00  0.00    -0.245 OA
ATOM     18  C   UNL     1     -35.814  20.983   2.430  0.00  0.00    +0.344 C 
BRANCH  18  21
ATOM     19 CL   UNL     1     -34.051  18.743  -1.934  0.00  0.00    -0.079 Cl
ATOM     20 CL   UNL     1     -39.339  19.533  -1.103  0.00  0.00    -0.076 Cl
ATOM     21  C   UNL     1     -36.102  20.367   1.110  0.00  0.00    +0.107 A 
ATOM     22  C   UNL     1     -35.061  19.901   0.308  0.00  0.00    +0.001 A 
ATOM     23  C   UNL     1     -37.422  20.252   0.674  0.00  0.00    +0.153 A 
ATOM     24  C   UNL     1     -35.338  19.323  -0.931  0.00  0.00    +0.089 A 
ATOM     25  C   UNL     1     -37.701  19.674  -0.564  0.00  0.00    +0.126 A 
ATOM     26  C   UNL     1     -36.659  19.209  -1.366  0.00  0.00    +0.157 A 
BRANCH  23  27
ATOM     27  O   UNL     1     -38.436  20.710   1.467  0.00  0.00    -0.504 OA
ATOM     28  H   UNL     1     -39.171  21.145   1.083  0.00  0.00    +0.292 HD
ENDBRANCH  23  27
BRANCH  26  29
ATOM     29  O   UNL     1     -36.932  18.643  -2.579  0.00  0.00    -0.504 OA
ATOM     30  H   UNL     1     -37.547  17.938  -2.640  0.00  0.00    +0.292 HD
ENDBRANCH  26  29
BRANCH  22  31
ATOM     31  C   UNL     1     -33.647  20.031   0.789  0.00  0.00    +0.028 C 
ATOM     32  C   UNL     1     -33.120  18.728   1.378  0.00  0.00    +0.005 C 
ENDBRANCH  22  31
ENDBRANCH  18  21
ENDBRANCH   1  18
TORSDOF 11
ENDMDL
MODEL 7
REMARK VINA RESULT:      -5.5      2.966      5.533
REMARK  Name = 56842471
REMARK  11 active torsions:
REMARK  status: ('A' for Active; 'I' for Inactive)
REMARK    1  A    between atoms: O_1  and  C_3
REMARK    2  A    between atoms: O_1  and  C_18
REMARK    3  A    between atoms: C_4  and  O_10
REMARK    4  A    between atoms: C_5  and  O_8
REMARK    5  A    between atoms: C_6  and  C_14
REMARK    6  A    between atoms: C_7  and  O_12
REMARK    7  A    between atoms: C_14  and  O_15
REMARK    8  A    between atoms: C_18  and  C_21
REMARK    9  A    between atoms: C_22  and  C_31
REMARK   10  A    between atoms: C_23  and  O_27
REMARK   11  A    between atoms: C_26  and  O_29
REMARK                            x       y       z     vdW  Elec       q    Type
REMARK                         _______ _______ _______ _____ _____    ______ ____
ROOT
ATOM      1  O   UNL     1     -34.096  26.610   4.167  0.00  0.00    -0.444 OA
ENDROOT
BRANCH   1   3
ATOM      2  O   UNL     1     -35.054  24.303   2.457  0.00  0.00    -0.325 OA
ATOM      3  C   UNL     1     -35.462  26.282   3.888  0.00  0.00    +0.228 C 
ATOM      4  C   UNL     1     -35.976  25.365   4.999  0.00  0.00    +0.185 C 
ATOM      5  C   UNL     1     -35.388  23.961   4.839  0.00  0.00    +0.202 C 
ATOM      6  C   UNL     1     -35.533  25.654   2.483  0.00  0.00    +0.189 C 
ATOM      7  C   UNL     1     -35.596  23.408   3.430  0.00  0.00    +0.266 C 
BRANCH   5   8
ATOM      8  O   UNL     1     -35.939  23.067   5.798  0.00  0.00    -0.346 OA
ATOM      9  C   UNL     1     -35.106  21.935   5.982  0.00  0.00    +0.174 C 
ENDBRANCH   5   8
BRANCH   4  10
ATOM     10  O   UNL     1     -37.399  25.299   4.959  0.00  0.00    -0.378 OA
ATOM     11  H   UNL     1     -37.721  24.796   5.724  0.00  0.00    +0.211 HD
ENDBRANCH   4  10
BRANCH   7  12
ATOM     12  O   UNL     1     -36.966  23.099   3.200  0.00  0.00    -0.326 OA
ATOM     13  C   UNL     1     -37.108  21.991   2.323  0.00  0.00    +0.177 C 
ENDBRANCH   7  12
BRANCH   6  14
ATOM     14  C   UNL     1     -36.907  25.769   1.830  0.00  0.00    +0.171 C 
BRANCH  14  15
ATOM     15  O   UNL     1     -37.570  26.899   2.369  0.00  0.00    -0.379 OA
ATOM     16  H   UNL     1     -37.494  26.887   3.336  0.00  0.00    +0.211 HD
ENDBRANCH  14  15
ENDBRANCH   6  14
ENDBRANCH   1   3
BRANCH   1  18
ATOM     17  O   UNL     1     -34.417  28.758   3.402  0.00  0.00    -0.245 OA
ATOM     18  C   UNL     1     -33.693  27.850   3.783  0.00  0.00    +0.344 C 
BRANCH  18  21
ATOM     19 CL   UNL     1     -29.019  27.520   1.499  0.00  0.00    -0.079 Cl
ATOM     20 CL   UNL     1     -29.529  28.940   6.696  0.00  0.00    -0.076 Cl
ATOM     21  C   UNL     1     -32.217  27.975   3.882  0.00  0.00    +0.107 A 
ATOM     22  C   UNL     1     -31.412  27.718   2.772  0.00  0.00    +0.001 A 
ATOM     23  C   UNL     1     -31.635  28.352   5.092  0.00  0.00    +0.153 A 
ATOM     24  C   UNL     1     -30.026  27.837   2.872  0.00  0.00    +0.089 A 
ATOM     25  C   UNL     1     -30.249  28.472   5.194  0.00  0.00    +0.126 A 
ATOM     26  C   UNL     1     -29.445  28.215   4.083  0.00  0.00    +0.157 A 
BRANCH  23  27
ATOM     27  O   UNL     1     -32.431  28.602   6.174  0.00  0.00    -0.504 OA
ATOM     28  H   UNL     1     -33.158  29.188   6.095  0.00  0.00    +0.292 HD
ENDBRANCH  23  27
BRANCH  26  29
ATOM     29  O   UNL     1     -28.087  28.331   4.183  0.00  0.00    -0.504 OA
ATOM     30  H   UNL     1     -27.710  28.843   4.872  0.00  0.00    +0.292 HD
ENDBRANCH  26  29
BRANCH  22  31
ATOM     31  C   UNL     1     -32.051  27.314   1.478  0.00  0.00    +0.028 C 
ATOM     32  C   UNL     1     -32.029  25.804   1.275  0.00  0.00    +0.005 C 
ENDBRANCH  22  31
ENDBRANCH  18  21
ENDBRANCH   1  18
TORSDOF 11
ENDMDL
MODEL 8
REMARK VINA RESULT:      -5.5      1.013      2.514
REMARK  Name = 56842471
REMARK  11 active torsions:
REMARK  status: ('A' for Active; 'I' for Inactive)
REMARK    1  A    between atoms: O_1  and  C_3
REMARK    2  A    between atoms: O_1  and  C_18
REMARK    3  A    between atoms: C_4  and  O_10
REMARK    4  A    between atoms: C_5  and  O_8
REMARK    5  A    between atoms: C_6  and  C_14
REMARK    6  A    between atoms: C_7  and  O_12
REMARK    7  A    between atoms: C_14  and  O_15
REMARK    8  A    between atoms: C_18  and  C_21
REMARK    9  A    between atoms: C_22  and  C_31
REMARK   10  A    between atoms: C_23  and  O_27
REMARK   11  A    between atoms: C_26  and  O_29
REMARK                            x       y       z     vdW  Elec       q    Type
REMARK                         _______ _______ _______ _____ _____    ______ ____
ROOT
ATOM      1  O   UNL     1     -36.054  23.121   2.625  0.00  0.00    -0.444 OA
ENDROOT
BRANCH   1   3
ATOM      2  O   UNL     1     -36.353  21.817  -0.091  0.00  0.00    -0.325 OA
ATOM      3  C   UNL     1     -36.833  21.956   2.334  0.00  0.00    +0.228 C 
ATOM      4  C   UNL     1     -35.962  20.720   2.571  0.00  0.00    +0.185 C 
ATOM      5  C   UNL     1     -34.938  20.573   1.442  0.00  0.00    +0.202 C 
ATOM      6  C   UNL     1     -37.364  22.073   0.893  0.00  0.00    +0.189 C 
ATOM      7  C   UNL     1     -35.593  20.617   0.063  0.00  0.00    +0.266 C 
BRANCH   5   8
ATOM      8  O   UNL     1     -34.192  19.370   1.588  0.00  0.00    -0.346 OA
ATOM      9  C   UNL     1     -32.963  19.442   0.885  0.00  0.00    +0.174 C 
ENDBRANCH   5   8
BRANCH   4  10
ATOM     10  O   UNL     1     -36.777  19.553   2.638  0.00  0.00    -0.378 OA
ATOM     11  H   UNL     1     -37.646  19.743   2.252  0.00  0.00    +0.211 HD
ENDBRANCH   4  10
BRANCH   7  12
ATOM     12  O   UNL     1     -36.356  19.440  -0.179  0.00  0.00    -0.326 OA
ATOM     13  C   UNL     1     -36.171  18.965  -1.504  0.00  0.00    +0.177 C 
ENDBRANCH   7  12
BRANCH   6  14
ATOM     14  C   UNL     1     -38.616  21.241   0.633  0.00  0.00    +0.171 C 
BRANCH  14  15
ATOM     15  O   UNL     1     -39.281  21.028   1.865  0.00  0.00    -0.379 OA
ATOM     16  H   UNL     1     -39.699  21.854   2.154  0.00  0.00    +0.211 HD
ENDBRANCH  14  15
ENDBRANCH   6  14
ENDBRANCH   1   3
BRANCH   1  18
ATOM     17  O   UNL     1     -37.815  24.033   3.794  0.00  0.00    -0.245 OA
ATOM     18  C   UNL     1     -36.674  24.082   3.361  0.00  0.00    +0.344 C 
BRANCH  18  21
ATOM     19 CL   UNL     1     -34.555  28.500   1.583  0.00  0.00    -0.079 Cl
ATOM     20 CL   UNL     1     -33.366  26.576   6.499  0.00  0.00    -0.076 Cl
ATOM     21  C   UNL     1     -35.769  25.237   3.582  0.00  0.00    +0.107 A 
ATOM     22  C   UNL     1     -35.611  26.207   2.593  0.00  0.00    +0.001 A 
ATOM     23  C   UNL     1     -35.076  25.352   4.788  0.00  0.00    +0.153 A 
ATOM     24  C   UNL     1     -34.759  27.291   2.807  0.00  0.00    +0.089 A 
ATOM     25  C   UNL     1     -34.225  26.435   5.003  0.00  0.00    +0.126 A 
ATOM     26  C   UNL     1     -34.066  27.405   4.013  0.00  0.00    +0.157 A 
BRANCH  23  27
ATOM     27  O   UNL     1     -35.238  24.398   5.752  0.00  0.00    -0.504 OA
ATOM     28  H   UNL     1     -35.560  24.637   6.598  0.00  0.00    +0.292 HD
ENDBRANCH  23  27
BRANCH  26  29
ATOM     29  O   UNL     1     -33.231  28.465   4.224  0.00  0.00    -0.504 OA
ATOM     30  H   UNL     1     -32.341  28.318   4.478  0.00  0.00    +0.292 HD
ENDBRANCH  26  29
BRANCH  22  31
ATOM     31  C   UNL     1     -36.361  26.072   1.302  0.00  0.00    +0.028 C 
ATOM     32  C   UNL     1     -37.670  26.851   1.316  0.00  0.00    +0.005 C 
ENDBRANCH  22  31
ENDBRANCH  18  21
ENDBRANCH   1  18
TORSDOF 11
ENDMDL
MODEL 9
REMARK VINA RESULT:      -5.5      3.099      6.843
REMARK  Name = 56842471
REMARK  11 active torsions:
REMARK  status: ('A' for Active; 'I' for Inactive)
REMARK    1  A    between atoms: O_1  and  C_3
REMARK    2  A    between atoms: O_1  and  C_18
REMARK    3  A    between atoms: C_4  and  O_10
REMARK    4  A    between atoms: C_5  and  O_8
REMARK    5  A    between atoms: C_6  and  C_14
REMARK    6  A    between atoms: C_7  and  O_12
REMARK    7  A    between atoms: C_14  and  O_15
REMARK    8  A    between atoms: C_18  and  C_21
REMARK    9  A    between atoms: C_22  and  C_31
REMARK   10  A    between atoms: C_23  and  O_27
REMARK   11  A    between atoms: C_26  and  O_29
REMARK                            x       y       z     vdW  Elec       q    Type
REMARK                         _______ _______ _______ _____ _____    ______ ____
ROOT
ATOM      1  O   UNL     1     -35.087  24.536   1.822  0.00  0.00    -0.444 OA
ENDROOT
BRANCH   1   3
ATOM      2  O   UNL     1     -33.333  25.005   4.245  0.00  0.00    -0.325 OA
ATOM      3  C   UNL     1     -35.544  24.728   3.165  0.00  0.00    +0.228 C 
ATOM      4  C   UNL     1     -35.825  26.219   3.372  0.00  0.00    +0.185 C 
ATOM      5  C   UNL     1     -34.508  26.992   3.487  0.00  0.00    +0.202 C 
ATOM      6  C   UNL     1     -34.484  24.158   4.125  0.00  0.00    +0.189 C 
ATOM      7  C   UNL     1     -33.575  26.384   4.533  0.00  0.00    +0.266 C 
BRANCH   5   8
ATOM      8  O   UNL     1     -34.749  28.361   3.788  0.00  0.00    -0.346 OA
ATOM      9  C   UNL     1     -35.013  29.106   2.611  0.00  0.00    +0.174 C 
ENDBRANCH   5   8
BRANCH   4  10
ATOM     10  O   UNL     1     -36.602  26.411   4.551  0.00  0.00    -0.378 OA
ATOM     11  H   UNL     1     -36.283  27.195   5.024  0.00  0.00    +0.211 HD
ENDBRANCH   4  10
BRANCH   7  12
ATOM     12  O   UNL     1     -34.071  26.599   5.848  0.00  0.00    -0.326 OA
ATOM     13  C   UNL     1     -33.021  26.897   6.757  0.00  0.00    +0.177 C 
ENDBRANCH   7  12
BRANCH   6  14
ATOM     14  C   UNL     1     -35.040  23.780   5.496  0.00  0.00    +0.171 C 
BRANCH  14  15
ATOM     15  O   UNL     1     -36.371  23.328   5.333  0.00  0.00    -0.379 OA
ATOM     16  H   UNL     1     -36.888  24.003   4.867  0.00  0.00    +0.211 HD
ENDBRANCH  14  15
ENDBRANCH   6  14
ENDBRANCH   1   3
BRANCH   1  18
ATOM     17  O   UNL     1     -36.776  23.245   0.939  0.00  0.00    -0.245 OA
ATOM     18  C   UNL     1     -35.595  23.457   1.170  0.00  0.00    +0.344 C 
BRANCH  18  21
ATOM     19 CL   UNL     1     -33.300  18.795   1.591  0.00  0.00    -0.079 Cl
ATOM     20 CL   UNL     1     -31.365  22.607  -1.727  0.00  0.00    -0.076 Cl
ATOM     21  C   UNL     1     -34.508  22.533   0.761  0.00  0.00    +0.107 A 
ATOM     22  C   UNL     1     -34.430  21.251   1.307  0.00  0.00    +0.001 A 
ATOM     23  C   UNL     1     -33.562  22.950  -0.176  0.00  0.00    +0.153 A 
ATOM     24  C   UNL     1     -33.406  20.388   0.918  0.00  0.00    +0.089 A 
ATOM     25  C   UNL     1     -32.538  22.087  -0.566  0.00  0.00    +0.126 A 
ATOM     26  C   UNL     1     -32.460  20.806  -0.019  0.00  0.00    +0.157 A 
BRANCH  23  27
ATOM     27  O   UNL     1     -33.647  24.206  -0.706  0.00  0.00    -0.504 OA
ATOM     28  H   UNL     1     -34.289  24.395  -1.361  0.00  0.00    +0.292 HD
ENDBRANCH  23  27
BRANCH  26  29
ATOM     29  O   UNL     1     -31.456  19.962  -0.401  0.00  0.00    -0.504 OA
ATOM     30  H   UNL     1     -30.562  20.234  -0.331  0.00  0.00    +0.292 HD
ENDBRANCH  26  29
BRANCH  22  31
ATOM     31  C   UNL     1     -35.453  20.816   2.312  0.00  0.00    +0.028 C 
ATOM     32  C   UNL     1     -36.558  19.980   1.680  0.00  0.00    +0.005 C 
ENDBRANCH  22  31
ENDBRANCH  18  21
ENDBRANCH   1  18
TORSDOF 11
ENDMDL
