MODEL 1
REMARK VINA RESULT:      -6.9      0.000      0.000
REMARK  Name = 54716150
REMARK  6 active torsions:
REMARK  status: ('A' for Active; 'I' for Inactive)
REMARK    1  A    between atoms: C_1  and  C_4
REMARK    2  A    between atoms: C_1  and  C_17
REMARK    3  A    between atoms: C_1  and  C_28
REMARK    4  A    between atoms: C_5  and  O_13
REMARK    5  A    between atoms: C_18  and  O_26
REMARK    6  A    between atoms: C_28  and  O_29
REMARK                            x       y       z     vdW  Elec       q    Type
REMARK                         _______ _______ _______ _____ _____    ______ ____
ROOT
ATOM      1  C   UNL     1     -36.880  23.048   3.343  0.00  0.00    +0.093 C 
ENDROOT
BRANCH   1   4
ATOM      2  O   UNL     1     -34.759  24.615   6.049  0.00  0.00    -0.421 OA
ATOM      3  O   UNL     1     -36.088  22.769   5.984  0.00  0.00    -0.245 OA
ATOM      4  C   UNL     1     -35.939  24.030   3.969  0.00  0.00    +0.094 A 
ATOM      5  C   UNL     1     -35.400  25.100   3.356  0.00  0.00    +0.139 A 
ATOM      6  C   UNL     1     -34.498  26.004   4.072  0.00  0.00    +0.068 A 
ATOM      7  C   UNL     1     -35.618  23.740   5.398  0.00  0.00    +0.345 A 
ATOM      8  C   UNL     1     -34.203  25.733   5.405  0.00  0.00    +0.152 A 
ATOM      9  C   UNL     1     -33.909  27.134   3.488  0.00  0.00    +0.006 C 
ATOM     10  C   UNL     1     -33.353  26.542   6.159  0.00  0.00    +0.038 C 
ATOM     11  C   UNL     1     -33.055  27.957   4.231  0.00  0.00    +0.000 C 
ATOM     12  C   UNL     1     -32.778  27.661   5.565  0.00  0.00    +0.003 C 
BRANCH   5  13
ATOM     13  O   UNL     1     -35.631  25.446   2.040  0.00  0.00    -0.505 OA
ATOM     14  H   UNL     1     -36.098  24.862   1.477  0.00  0.00    +0.292 HD
ENDBRANCH   5  13
ENDBRANCH   1   4
BRANCH   1  17
ATOM     15  O   UNL     1     -35.764  21.825  -0.061  0.00  0.00    -0.421 OA
ATOM     16  O   UNL     1     -37.057  23.566   0.623  0.00  0.00    -0.245 OA
ATOM     17  C   UNL     1     -36.174  22.176   2.341  0.00  0.00    +0.094 A 
ATOM     18  C   UNL     1     -35.415  21.102   2.633  0.00  0.00    +0.139 A 
ATOM     19  C   UNL     1     -34.781  20.316   1.571  0.00  0.00    +0.068 A 
ATOM     20  C   UNL     1     -36.376  22.589   0.922  0.00  0.00    +0.345 A 
ATOM     21  C   UNL     1     -34.976  20.703   0.250  0.00  0.00    +0.152 A 
ATOM     22  C   UNL     1     -33.985  19.189   1.814  0.00  0.00    +0.006 C 
ATOM     23  C   UNL     1     -34.410  20.010  -0.820  0.00  0.00    +0.038 C 
ATOM     24  C   UNL     1     -33.409  18.482   0.752  0.00  0.00    +0.000 C 
ATOM     25  C   UNL     1     -33.622  18.892  -0.563  0.00  0.00    +0.003 C 
BRANCH  18  26
ATOM     26  O   UNL     1     -35.162  20.647   3.910  0.00  0.00    -0.505 OA
ATOM     27  H   UNL     1     -34.358  20.871   4.337  0.00  0.00    +0.292 HD
ENDBRANCH  18  26
ENDBRANCH   1  17
BRANCH   1  28
ATOM     28  C   UNL     1     -38.086  23.758   2.723  0.00  0.00    +0.152 C 
BRANCH  28  29
ATOM     29  O   UNL     1     -38.810  24.488   3.707  0.00  0.00    -0.350 OA
ATOM     30  C   UNL     1     -39.917  25.171   3.135  0.00  0.00    +0.174 C 
ENDBRANCH  28  29
ENDBRANCH   1  28
TORSDOF 6
ENDMDL
MODEL 2
REMARK VINA RESULT:      -6.7      2.730      5.098
REMARK  Name = 54716150
REMARK  6 active torsions:
REMARK  status: ('A' for Active; 'I' for Inactive)
REMARK    1  A    between atoms: C_1  and  C_4
REMARK    2  A    between atoms: C_1  and  C_17
REMARK    3  A    between atoms: C_1  and  C_28
REMARK    4  A    between atoms: C_5  and  O_13
REMARK    5  A    between atoms: C_18  and  O_26
REMARK    6  A    between atoms: C_28  and  O_29
REMARK                            x       y       z     vdW  Elec       q    Type
REMARK                         _______ _______ _______ _____ _____    ______ ____
ROOT
ATOM      1  C   UNL     1     -35.374  23.844   4.194  0.00  0.00    +0.093 C 
ENDROOT
BRANCH   1   4
ATOM      2  O   UNL     1     -33.092  25.728   1.845  0.00  0.00    -0.421 OA
ATOM      3  O   UNL     1     -34.251  23.778   1.663  0.00  0.00    -0.245 OA
ATOM      4  C   UNL     1     -34.471  24.943   3.727  0.00  0.00    +0.094 A 
ATOM      5  C   UNL     1     -34.121  26.028   4.443  0.00  0.00    +0.139 A 
ATOM      6  C   UNL     1     -33.218  27.038   3.887  0.00  0.00    +0.068 A 
ATOM      7  C   UNL     1     -33.946  24.753   2.343  0.00  0.00    +0.345 A 
ATOM      8  C   UNL     1     -32.728  26.856   2.598  0.00  0.00    +0.152 A 
ATOM      9  C   UNL     1     -32.816  28.186   4.585  0.00  0.00    +0.006 C 
ATOM     10  C   UNL     1     -31.863  27.770   1.995  0.00  0.00    +0.038 C 
ATOM     11  C   UNL     1     -31.949  29.111   3.994  0.00  0.00    +0.000 C 
ATOM     12  C   UNL     1     -31.473  28.903   2.701  0.00  0.00    +0.003 C 
BRANCH   5  13
ATOM     13  O   UNL     1     -34.559  26.294   5.724  0.00  0.00    -0.505 OA
ATOM     14  H   UNL     1     -35.287  26.867   5.861  0.00  0.00    +0.292 HD
ENDBRANCH   5  13
ENDBRANCH   1   4
BRANCH   1  17
ATOM     15  O   UNL     1     -38.392  22.739   2.194  0.00  0.00    -0.421 OA
ATOM     16  O   UNL     1     -36.439  21.721   2.760  0.00  0.00    -0.245 OA
ATOM     17  C   UNL     1     -36.733  23.944   3.556  0.00  0.00    +0.094 A 
ATOM     18  C   UNL     1     -37.545  25.018   3.605  0.00  0.00    +0.139 A 
ATOM     19  C   UNL     1     -38.848  25.007   2.935  0.00  0.00    +0.068 A 
ATOM     20  C   UNL     1     -37.153  22.717   2.819  0.00  0.00    +0.345 A 
ATOM     21  C   UNL     1     -39.233  23.863   2.246  0.00  0.00    +0.152 A 
ATOM     22  C   UNL     1     -39.733  26.094   2.949  0.00  0.00    +0.006 C 
ATOM     23  C   UNL     1     -40.456  23.771   1.580  0.00  0.00    +0.038 C 
ATOM     24  C   UNL     1     -40.964  26.019   2.287  0.00  0.00    +0.000 C 
ATOM     25  C   UNL     1     -41.324  24.858   1.603  0.00  0.00    +0.003 C 
BRANCH  18  26
ATOM     26  O   UNL     1     -37.251  26.191   4.266  0.00  0.00    -0.505 OA
ATOM     27  H   UNL     1     -37.285  26.223   5.202  0.00  0.00    +0.292 HD
ENDBRANCH  18  26
ENDBRANCH   1  17
BRANCH   1  28
ATOM     28  C   UNL     1     -35.468  23.820   5.722  0.00  0.00    +0.152 C 
BRANCH  28  29
ATOM     29  O   UNL     1     -36.010  22.586   6.180  0.00  0.00    -0.350 OA
ATOM     30  C   UNL     1     -35.102  21.512   5.973  0.00  0.00    +0.174 C 
ENDBRANCH  28  29
ENDBRANCH   1  28
TORSDOF 6
ENDMDL
MODEL 3
REMARK VINA RESULT:      -6.7      1.870      3.222
REMARK  Name = 54716150
REMARK  6 active torsions:
REMARK  status: ('A' for Active; 'I' for Inactive)
REMARK    1  A    between atoms: C_1  and  C_4
REMARK    2  A    between atoms: C_1  and  C_17
REMARK    3  A    between atoms: C_1  and  C_28
REMARK    4  A    between atoms: C_5  and  O_13
REMARK    5  A    between atoms: C_18  and  O_26
REMARK    6  A    between atoms: C_28  and  O_29
REMARK                            x       y       z     vdW  Elec       q    Type
REMARK                         _______ _______ _______ _____ _____    ______ ____
ROOT
ATOM      1  C   UNL     1     -35.850  22.241   0.823  0.00  0.00    +0.093 C 
ENDROOT
BRANCH   1   4
ATOM      2  O   UNL     1     -36.966  23.799   4.079  0.00  0.00    -0.421 OA
ATOM      3  O   UNL     1     -37.895  22.254   2.692  0.00  0.00    -0.245 OA
ATOM      4  C   UNL     1     -35.775  23.116   2.035  0.00  0.00    +0.094 A 
ATOM      5  C   UNL     1     -34.763  23.949   2.339  0.00  0.00    +0.139 A 
ATOM      6  C   UNL     1     -34.801  24.770   3.552  0.00  0.00    +0.068 A 
ATOM      7  C   UNL     1     -36.959  23.008   2.938  0.00  0.00    +0.345 A 
ATOM      8  C   UNL     1     -35.908  24.670   4.389  0.00  0.00    +0.152 A 
ATOM      9  C   UNL     1     -33.780  25.657   3.919  0.00  0.00    +0.006 C 
ATOM     10  C   UNL     1     -36.024  25.416   5.562  0.00  0.00    +0.038 C 
ATOM     11  C   UNL     1     -33.881  26.413   5.092  0.00  0.00    +0.000 C 
ATOM     12  C   UNL     1     -35.001  26.293   5.912  0.00  0.00    +0.003 C 
BRANCH   5  13
ATOM     13  O   UNL     1     -33.627  24.112   1.574  0.00  0.00    -0.505 OA
ATOM     14  H   UNL     1     -32.871  23.583   1.738  0.00  0.00    +0.292 HD
ENDBRANCH   5  13
ENDBRANCH   1   4
BRANCH   1  17
ATOM     15  O   UNL     1     -33.964  19.051   1.594  0.00  0.00    -0.421 OA
ATOM     16  O   UNL     1     -36.026  19.819   2.167  0.00  0.00    -0.245 OA
ATOM     17  C   UNL     1     -34.716  21.253   0.790  0.00  0.00    +0.094 A 
ATOM     18  C   UNL     1     -33.548  21.420   0.140  0.00  0.00    +0.139 A 
ATOM     19  C   UNL     1     -32.506  20.391   0.187  0.00  0.00    +0.068 A 
ATOM     20  C   UNL     1     -34.970  20.005   1.569  0.00  0.00    +0.345 A 
ATOM     21  C   UNL     1     -32.746  19.232   0.916  0.00  0.00    +0.152 A 
ATOM     22  C   UNL     1     -31.272  20.511  -0.467  0.00  0.00    +0.006 C 
ATOM     23  C   UNL     1     -31.807  18.205   1.013  0.00  0.00    +0.038 C 
ATOM     24  C   UNL     1     -30.318  19.490  -0.380  0.00  0.00    +0.000 C 
ATOM     25  C   UNL     1     -30.586  18.339   0.359  0.00  0.00    +0.003 C 
BRANCH  18  26
ATOM     26  O   UNL     1     -33.223  22.530  -0.610  0.00  0.00    -0.505 OA
ATOM     27  H   UNL     1     -33.255  22.489  -1.546  0.00  0.00    +0.292 HD
ENDBRANCH  18  26
ENDBRANCH   1  17
BRANCH   1  28
ATOM     28  C   UNL     1     -35.907  23.077  -0.458  0.00  0.00    +0.152 C 
BRANCH  28  29
ATOM     29  O   UNL     1     -37.146  23.770  -0.560  0.00  0.00    -0.350 OA
ATOM     30  C   UNL     1     -38.223  22.873  -0.799  0.00  0.00    +0.174 C 
ENDBRANCH  28  29
ENDBRANCH   1  28
TORSDOF 6
ENDMDL
MODEL 4
REMARK VINA RESULT:      -6.7      2.246      7.124
REMARK  Name = 54716150
REMARK  6 active torsions:
REMARK  status: ('A' for Active; 'I' for Inactive)
REMARK    1  A    between atoms: C_1  and  C_4
REMARK    2  A    between atoms: C_1  and  C_17
REMARK    3  A    between atoms: C_1  and  C_28
REMARK    4  A    between atoms: C_5  and  O_13
REMARK    5  A    between atoms: C_18  and  O_26
REMARK    6  A    between atoms: C_28  and  O_29
REMARK                            x       y       z     vdW  Elec       q    Type
REMARK                         _______ _______ _______ _____ _____    ______ ____
ROOT
ATOM      1  C   UNL     1     -35.047  21.415   0.574  0.00  0.00    +0.093 C 
ENDROOT
BRANCH   1   4
ATOM      2  O   UNL     1     -31.523  21.209  -0.773  0.00  0.00    -0.421 OA
ATOM      3  O   UNL     1     -33.198  22.729  -1.018  0.00  0.00    -0.245 OA
ATOM      4  C   UNL     1     -33.677  20.850   0.364  0.00  0.00    +0.094 A 
ATOM      5  C   UNL     1     -33.212  19.703   0.894  0.00  0.00    +0.139 A 
ATOM      6  C   UNL     1     -31.852  19.239   0.610  0.00  0.00    +0.068 A 
ATOM      7  C   UNL     1     -32.806  21.676  -0.523  0.00  0.00    +0.345 A 
ATOM      8  C   UNL     1     -31.045  20.009  -0.220  0.00  0.00    +0.152 A 
ATOM      9  C   UNL     1     -31.315  18.053   1.131  0.00  0.00    +0.006 C 
ATOM     10  C   UNL     1     -29.739  19.638  -0.541  0.00  0.00    +0.038 C 
ATOM     11  C   UNL     1     -30.007  17.667   0.818  0.00  0.00    +0.000 C 
ATOM     12  C   UNL     1     -29.220  18.459  -0.017  0.00  0.00    +0.003 C 
BRANCH   5  13
ATOM     13  O   UNL     1     -33.936  18.877   1.729  0.00  0.00    -0.505 OA
ATOM     14  H   UNL     1     -34.828  18.675   1.528  0.00  0.00    +0.292 HD
ENDBRANCH   5  13
ENDBRANCH   1   4
BRANCH   1  17
ATOM     15  O   UNL     1     -35.670  22.191   4.226  0.00  0.00    -0.421 OA
ATOM     16  O   UNL     1     -35.863  20.299   2.979  0.00  0.00    -0.245 OA
ATOM     17  C   UNL     1     -35.111  22.242   1.829  0.00  0.00    +0.094 A 
ATOM     18  C   UNL     1     -34.797  23.548   1.925  0.00  0.00    +0.139 A 
ATOM     19  C   UNL     1     -34.908  24.258   3.201  0.00  0.00    +0.068 A 
ATOM     20  C   UNL     1     -35.575  21.491   3.032  0.00  0.00    +0.345 A 
ATOM     21  C   UNL     1     -35.344  23.555   4.319  0.00  0.00    +0.152 A 
ATOM     22  C   UNL     1     -34.598  25.616   3.360  0.00  0.00    +0.006 C 
ATOM     23  C   UNL     1     -35.479  24.156   5.570  0.00  0.00    +0.038 C 
ATOM     24  C   UNL     1     -34.727  26.234   4.609  0.00  0.00    +0.000 C 
ATOM     25  C   UNL     1     -35.168  25.504   5.713  0.00  0.00    +0.003 C 
BRANCH  18  26
ATOM     26  O   UNL     1     -34.353  24.325   0.875  0.00  0.00    -0.505 OA
ATOM     27  H   UNL     1     -33.815  23.946   0.207  0.00  0.00    +0.292 HD
ENDBRANCH  18  26
ENDBRANCH   1  17
BRANCH   1  28
ATOM     28  C   UNL     1     -36.106  20.310   0.571  0.00  0.00    +0.152 C 
BRANCH  28  29
ATOM     29  O   UNL     1     -36.032  19.536  -0.621  0.00  0.00    -0.350 OA
ATOM     30  C   UNL     1     -36.672  18.277  -0.462  0.00  0.00    +0.174 C 
ENDBRANCH  28  29
ENDBRANCH   1  28
TORSDOF 6
ENDMDL
MODEL 5
REMARK VINA RESULT:      -6.7      3.035      6.480
REMARK  Name = 54716150
REMARK  6 active torsions:
REMARK  status: ('A' for Active; 'I' for Inactive)
REMARK    1  A    between atoms: C_1  and  C_4
REMARK    2  A    between atoms: C_1  and  C_17
REMARK    3  A    between atoms: C_1  and  C_28
REMARK    4  A    between atoms: C_5  and  O_13
REMARK    5  A    between atoms: C_18  and  O_26
REMARK    6  A    between atoms: C_28  and  O_29
REMARK                            x       y       z     vdW  Elec       q    Type
REMARK                         _______ _______ _______ _____ _____    ______ ____
ROOT
ATOM      1  C   UNL     1     -37.627  25.825   1.242  0.00  0.00    +0.093 C 
ENDROOT
BRANCH   1   4
ATOM      2  O   UNL     1     -41.188  25.438   0.039  0.00  0.00    -0.421 OA
ATOM      3  O   UNL     1     -39.164  25.108  -0.949  0.00  0.00    -0.245 OA
ATOM      4  C   UNL     1     -39.122  25.843   1.316  0.00  0.00    +0.094 A 
ATOM      5  C   UNL     1     -39.850  26.189   2.394  0.00  0.00    +0.139 A 
ATOM      6  C   UNL     1     -41.314  26.181   2.349  0.00  0.00    +0.068 A 
ATOM      7  C   UNL     1     -39.799  25.435   0.050  0.00  0.00    +0.345 A 
ATOM      8  C   UNL     1     -41.941  25.804   1.166  0.00  0.00    +0.152 A 
ATOM      9  C   UNL     1     -42.124  26.534   3.437  0.00  0.00    +0.006 C 
ATOM     10  C   UNL     1     -43.330  25.770   1.039  0.00  0.00    +0.038 C 
ATOM     11  C   UNL     1     -43.518  26.506   3.325  0.00  0.00    +0.000 C 
ATOM     12  C   UNL     1     -44.121  26.124   2.128  0.00  0.00    +0.003 C 
BRANCH   5  13
ATOM     13  O   UNL     1     -39.317  26.572   3.607  0.00  0.00    -0.505 OA
ATOM     14  H   UNL     1     -38.842  25.954   4.127  0.00  0.00    +0.292 HD
ENDBRANCH   5  13
ENDBRANCH   1   4
BRANCH   1  17
ATOM     15  O   UNL     1     -36.422  22.377   2.240  0.00  0.00    -0.421 OA
ATOM     16  O   UNL     1     -37.286  23.231   0.317  0.00  0.00    -0.245 OA
ATOM     17  C   UNL     1     -37.048  24.756   2.129  0.00  0.00    +0.094 A 
ATOM     18  C   UNL     1     -36.650  24.925   3.404  0.00  0.00    +0.139 A 
ATOM     19  C   UNL     1     -36.110  23.806   4.180  0.00  0.00    +0.068 A 
ATOM     20  C   UNL     1     -36.938  23.417   1.479  0.00  0.00    +0.345 A 
ATOM     21  C   UNL     1     -36.012  22.560   3.571  0.00  0.00    +0.152 A 
ATOM     22  C   UNL     1     -35.683  23.922   5.510  0.00  0.00    +0.006 C 
ATOM     23  C   UNL     1     -35.510  21.443   4.239  0.00  0.00    +0.038 C 
ATOM     24  C   UNL     1     -35.177  22.811   6.195  0.00  0.00    +0.000 C 
ATOM     25  C   UNL     1     -35.090  21.573   5.559  0.00  0.00    +0.003 C 
BRANCH  18  26
ATOM     26  O   UNL     1     -36.705  26.121   4.088  0.00  0.00    -0.505 OA
ATOM     27  H   UNL     1     -36.133  26.824   3.849  0.00  0.00    +0.292 HD
ENDBRANCH  18  26
ENDBRANCH   1  17
BRANCH   1  28
ATOM     28  C   UNL     1     -37.042  27.202   1.564  0.00  0.00    +0.152 C 
BRANCH  28  29
ATOM     29  O   UNL     1     -37.625  28.208   0.743  0.00  0.00    -0.350 OA
ATOM     30  C   UNL     1     -37.003  28.260  -0.534  0.00  0.00    +0.174 C 
ENDBRANCH  28  29
ENDBRANCH   1  28
TORSDOF 6
ENDMDL
MODEL 6
REMARK VINA RESULT:      -6.6      1.445      2.858
REMARK  Name = 54716150
REMARK  6 active torsions:
REMARK  status: ('A' for Active; 'I' for Inactive)
REMARK    1  A    between atoms: C_1  and  C_4
REMARK    2  A    between atoms: C_1  and  C_17
REMARK    3  A    between atoms: C_1  and  C_28
REMARK    4  A    between atoms: C_5  and  O_13
REMARK    5  A    between atoms: C_18  and  O_26
REMARK    6  A    between atoms: C_28  and  O_29
REMARK                            x       y       z     vdW  Elec       q    Type
REMARK                         _______ _______ _______ _____ _____    ______ ____
ROOT
ATOM      1  C   UNL     1     -36.270  25.043   4.250  0.00  0.00    +0.093 C 
ENDROOT
BRANCH   1   4
ATOM      2  O   UNL     1     -33.061  26.892   4.994  0.00  0.00    -0.421 OA
ATOM      3  O   UNL     1     -34.008  25.008   5.848  0.00  0.00    -0.245 OA
ATOM      4  C   UNL     1     -35.220  26.101   4.116  0.00  0.00    +0.094 A 
ATOM      5  C   UNL     1     -35.253  27.133   3.252  0.00  0.00    +0.139 A 
ATOM      6  C   UNL     1     -34.171  28.120   3.216  0.00  0.00    +0.068 A 
ATOM      7  C   UNL     1     -34.070  25.940   5.053  0.00  0.00    +0.345 A 
ATOM      8  C   UNL     1     -33.103  27.969   4.093  0.00  0.00    +0.152 A 
ATOM      9  C   UNL     1     -34.152  29.215   2.341  0.00  0.00    +0.006 C 
ATOM     10  C   UNL     1     -32.033  28.864   4.124  0.00  0.00    +0.038 C 
ATOM     11  C   UNL     1     -33.086  30.122   2.360  0.00  0.00    +0.000 C 
ATOM     12  C   UNL     1     -32.028  29.946   3.250  0.00  0.00    +0.003 C 
BRANCH   5  13
ATOM     13  O   UNL     1     -36.267  27.362   2.345  0.00  0.00    -0.505 OA
ATOM     14  H   UNL     1     -37.161  27.297   2.615  0.00  0.00    +0.292 HD
ENDBRANCH   5  13
ENDBRANCH   1   4
BRANCH   1  17
ATOM     15  O   UNL     1     -35.452  21.368   3.856  0.00  0.00    -0.421 OA
ATOM     16  O   UNL     1     -36.125  22.635   5.621  0.00  0.00    -0.245 OA
ATOM     17  C   UNL     1     -35.863  23.776   3.549  0.00  0.00    +0.094 A 
ATOM     18  C   UNL     1     -35.539  23.670   2.245  0.00  0.00    +0.139 A 
ATOM     19  C   UNL     1     -35.145  22.382   1.670  0.00  0.00    +0.068 A 
ATOM     20  C   UNL     1     -35.830  22.573   4.431  0.00  0.00    +0.345 A 
ATOM     21  C   UNL     1     -35.113  21.264   2.496  0.00  0.00    +0.152 A 
ATOM     22  C   UNL     1     -34.795  22.211   0.323  0.00  0.00    +0.006 C 
ATOM     23  C   UNL     1     -34.748  20.002   2.029  0.00  0.00    +0.038 C 
ATOM     24  C   UNL     1     -34.426  20.952  -0.163  0.00  0.00    +0.000 C 
ATOM     25  C   UNL     1     -34.403  19.849   0.689  0.00  0.00    +0.003 C 
BRANCH  18  26
ATOM     26  O   UNL     1     -35.546  24.718   1.350  0.00  0.00    -0.505 OA
ATOM     27  H   UNL     1     -35.953  25.530   1.583  0.00  0.00    +0.292 HD
ENDBRANCH  18  26
ENDBRANCH   1  17
BRANCH   1  28
ATOM     28  C   UNL     1     -37.629  25.548   3.758  0.00  0.00    +0.152 C 
BRANCH  28  29
ATOM     29  O   UNL     1     -38.609  24.518   3.821  0.00  0.00    -0.350 OA
ATOM     30  C   UNL     1     -39.779  24.871   3.095  0.00  0.00    +0.174 C 
ENDBRANCH  28  29
ENDBRANCH   1  28
TORSDOF 6
ENDMDL
MODEL 7
REMARK VINA RESULT:      -6.6      1.577      2.220
REMARK  Name = 54716150
REMARK  6 active torsions:
REMARK  status: ('A' for Active; 'I' for Inactive)
REMARK    1  A    between atoms: C_1  and  C_4
REMARK    2  A    between atoms: C_1  and  C_17
REMARK    3  A    between atoms: C_1  and  C_28
REMARK    4  A    between atoms: C_5  and  O_13
REMARK    5  A    between atoms: C_18  and  O_26
REMARK    6  A    between atoms: C_28  and  O_29
REMARK                            x       y       z     vdW  Elec       q    Type
REMARK                         _______ _______ _______ _____ _____    ______ ____
ROOT
ATOM      1  C   UNL     1     -36.304  25.064   2.797  0.00  0.00    +0.093 C 
ENDROOT
BRANCH   1   4
ATOM      2  O   UNL     1     -34.532  25.740   6.065  0.00  0.00    -0.421 OA
ATOM      3  O   UNL     1     -36.237  24.354   5.475  0.00  0.00    -0.245 OA
ATOM      4  C   UNL     1     -35.313  25.686   3.731  0.00  0.00    +0.094 A 
ATOM      5  C   UNL     1     -34.393  26.610   3.396  0.00  0.00    +0.139 A 
ATOM      6  C   UNL     1     -33.478  27.160   4.399  0.00  0.00    +0.068 A 
ATOM      7  C   UNL     1     -35.413  25.199   5.138  0.00  0.00    +0.345 A 
ATOM      8  C   UNL     1     -33.577  26.707   5.710  0.00  0.00    +0.152 A 
ATOM      9  C   UNL     1     -32.503  28.125   4.110  0.00  0.00    +0.006 C 
ATOM     10  C   UNL     1     -32.745  27.180   6.725  0.00  0.00    +0.038 C 
ATOM     11  C   UNL     1     -31.661  28.609   5.118  0.00  0.00    +0.000 C 
ATOM     12  C   UNL     1     -31.782  28.137   6.423  0.00  0.00    +0.003 C 
BRANCH   5  13
ATOM     13  O   UNL     1     -34.219  27.115   2.124  0.00  0.00    -0.505 OA
ATOM     14  H   UNL     1     -34.921  27.078   1.505  0.00  0.00    +0.292 HD
ENDBRANCH   5  13
ENDBRANCH   1   4
BRANCH   1  17
ATOM     15  O   UNL     1     -36.165  21.332   2.180  0.00  0.00    -0.421 OA
ATOM     16  O   UNL     1     -37.578  22.664   3.364  0.00  0.00    -0.245 OA
ATOM     17  C   UNL     1     -35.790  23.764   2.241  0.00  0.00    +0.094 A 
ATOM     18  C   UNL     1     -34.711  23.622   1.447  0.00  0.00    +0.139 A 
ATOM     19  C   UNL     1     -34.293  22.301   0.972  0.00  0.00    +0.068 A 
ATOM     20  C   UNL     1     -36.586  22.569   2.646  0.00  0.00    +0.345 A 
ATOM     21  C   UNL     1     -35.037  21.190   1.354  0.00  0.00    +0.152 A 
ATOM     22  C   UNL     1     -33.180  22.093   0.147  0.00  0.00    +0.006 C 
ATOM     23  C   UNL     1     -34.707  19.897   0.947  0.00  0.00    +0.038 C 
ATOM     24  C   UNL     1     -32.835  20.802  -0.272  0.00  0.00    +0.000 C 
ATOM     25  C   UNL     1     -33.598  19.706   0.128  0.00  0.00    +0.003 C 
BRANCH  18  26
ATOM     26  O   UNL     1     -33.917  24.663   1.013  0.00  0.00    -0.505 OA
ATOM     27  H   UNL     1     -34.230  25.245   0.348  0.00  0.00    +0.292 HD
ENDBRANCH  18  26
ENDBRANCH   1  17
BRANCH   1  28
ATOM     28  C   UNL     1     -36.699  26.037   1.684  0.00  0.00    +0.152 C 
BRANCH  28  29
ATOM     29  O   UNL     1     -37.847  26.793   2.052  0.00  0.00    -0.350 OA
ATOM     30  C   UNL     1     -38.814  25.983   2.706  0.00  0.00    +0.174 C 
ENDBRANCH  28  29
ENDBRANCH   1  28
TORSDOF 6
ENDMDL
MODEL 8
REMARK VINA RESULT:      -6.6      1.802      6.379
REMARK  Name = 54716150
REMARK  6 active torsions:
REMARK  status: ('A' for Active; 'I' for Inactive)
REMARK    1  A    between atoms: C_1  and  C_4
REMARK    2  A    between atoms: C_1  and  C_17
REMARK    3  A    between atoms: C_1  and  C_28
REMARK    4  A    between atoms: C_5  and  O_13
REMARK    5  A    between atoms: C_18  and  O_26
REMARK    6  A    between atoms: C_28  and  O_29
REMARK                            x       y       z     vdW  Elec       q    Type
REMARK                         _______ _______ _______ _____ _____    ______ ____
ROOT
ATOM      1  C   UNL     1     -35.409  22.487   1.006  0.00  0.00    +0.093 C 
ENDROOT
BRANCH   1   4
ATOM      2  O   UNL     1     -33.906  19.144   1.921  0.00  0.00    -0.421 OA
ATOM      3  O   UNL     1     -35.799  20.230   2.564  0.00  0.00    -0.245 OA
ATOM      4  C   UNL     1     -34.425  21.360   0.982  0.00  0.00    +0.094 A 
ATOM      5  C   UNL     1     -33.301  21.316   0.242  0.00  0.00    +0.139 A 
ATOM      6  C   UNL     1     -32.401  20.162   0.306  0.00  0.00    +0.068 A 
ATOM      7  C   UNL     1     -34.779  20.223   1.881  0.00  0.00    +0.345 A 
ATOM      8  C   UNL     1     -32.733  19.106   1.149  0.00  0.00    +0.152 A 
ATOM      9  C   UNL     1     -31.218  20.061  -0.437  0.00  0.00    +0.006 C 
ATOM     10  C   UNL     1     -31.930  17.971   1.269  0.00  0.00    +0.038 C 
ATOM     11  C   UNL     1     -30.402  18.929  -0.327  0.00  0.00    +0.000 C 
ATOM     12  C   UNL     1     -30.758  17.886   0.525  0.00  0.00    +0.003 C 
BRANCH   5  13
ATOM     13  O   UNL     1     -32.894  22.312  -0.622  0.00  0.00    -0.505 OA
ATOM     14  H   UNL     1     -33.358  22.456  -1.422  0.00  0.00    +0.292 HD
ENDBRANCH   5  13
ENDBRANCH   1   4
BRANCH   1  17
ATOM     15  O   UNL     1     -33.878  25.830   1.904  0.00  0.00    -0.421 OA
ATOM     16  O   UNL     1     -34.274  24.778  -0.073  0.00  0.00    -0.245 OA
ATOM     17  C   UNL     1     -34.937  23.608   1.891  0.00  0.00    +0.094 A 
ATOM     18  C   UNL     1     -35.006  23.628   3.236  0.00  0.00    +0.139 A 
ATOM     19  C   UNL     1     -34.502  24.772   4.000  0.00  0.00    +0.068 A 
ATOM     20  C   UNL     1     -34.346  24.763   1.152  0.00  0.00    +0.345 A 
ATOM     21  C   UNL     1     -33.950  25.844   3.307  0.00  0.00    +0.152 A 
ATOM     22  C   UNL     1     -34.546  24.848   5.398  0.00  0.00    +0.006 C 
ATOM     23  C   UNL     1     -33.448  26.971   3.957  0.00  0.00    +0.038 C 
ATOM     24  C   UNL     1     -34.046  25.971   6.067  0.00  0.00    +0.000 C 
ATOM     25  C   UNL     1     -33.497  27.031   5.347  0.00  0.00    +0.003 C 
BRANCH  18  26
ATOM     26  O   UNL     1     -35.540  22.616   4.006  0.00  0.00    -0.505 OA
ATOM     27  H   UNL     1     -36.420  22.682   4.322  0.00  0.00    +0.292 HD
ENDBRANCH  18  26
ENDBRANCH   1  17
BRANCH   1  28
ATOM     28  C   UNL     1     -36.801  21.996   1.412  0.00  0.00    +0.152 C 
BRANCH  28  29
ATOM     29  O   UNL     1     -37.767  23.031   1.276  0.00  0.00    -0.350 OA
ATOM     30  C   UNL     1     -38.782  22.926   2.266  0.00  0.00    +0.174 C 
ENDBRANCH  28  29
ENDBRANCH   1  28
TORSDOF 6
ENDMDL
MODEL 9
REMARK VINA RESULT:      -6.6      1.184      6.744
REMARK  Name = 54716150
REMARK  6 active torsions:
REMARK  status: ('A' for Active; 'I' for Inactive)
REMARK    1  A    between atoms: C_1  and  C_4
REMARK    2  A    between atoms: C_1  and  C_17
REMARK    3  A    between atoms: C_1  and  C_28
REMARK    4  A    between atoms: C_5  and  O_13
REMARK    5  A    between atoms: C_18  and  O_26
REMARK    6  A    between atoms: C_28  and  O_29
REMARK                            x       y       z     vdW  Elec       q    Type
REMARK                         _______ _______ _______ _____ _____    ______ ____
ROOT
ATOM      1  C   UNL     1     -36.228  24.111   2.441  0.00  0.00    +0.093 C 
ENDROOT
BRANCH   1   4
ATOM      2  O   UNL     1     -34.117  22.507  -0.251  0.00  0.00    -0.421 OA
ATOM      3  O   UNL     1     -35.027  24.579  -0.012  0.00  0.00    -0.245 OA
ATOM      4  C   UNL     1     -35.433  23.041   1.760  0.00  0.00    +0.094 A 
ATOM      5  C   UNL     1     -35.223  21.799   2.234  0.00  0.00    +0.139 A 
ATOM      6  C   UNL     1     -34.435  20.826   1.474  0.00  0.00    +0.068 A 
ATOM      7  C   UNL     1     -34.858  23.452   0.446  0.00  0.00    +0.345 A 
ATOM      8  C   UNL     1     -33.904  21.211   0.248  0.00  0.00    +0.152 A 
ATOM      9  C   UNL     1     -34.185  19.519   1.915  0.00  0.00    +0.006 C 
ATOM     10  C   UNL     1     -33.143  20.346  -0.538  0.00  0.00    +0.038 C 
ATOM     11  C   UNL     1     -33.424  18.639   1.138  0.00  0.00    +0.000 C 
ATOM     12  C   UNL     1     -32.904  19.052  -0.087  0.00  0.00    +0.003 C 
BRANCH   5  13
ATOM     13  O   UNL     1     -35.706  21.329   3.438  0.00  0.00    -0.505 OA
ATOM     14  H   UNL     1     -35.158  21.335   4.197  0.00  0.00    +0.292 HD
ENDBRANCH   5  13
ENDBRANCH   1   4
BRANCH   1  17
ATOM     15  O   UNL     1     -34.838  24.961   5.857  0.00  0.00    -0.421 OA
ATOM     16  O   UNL     1     -36.305  23.388   5.119  0.00  0.00    -0.245 OA
ATOM     17  C   UNL     1     -35.400  24.840   3.464  0.00  0.00    +0.094 A 
ATOM     18  C   UNL     1     -34.571  25.872   3.212  0.00  0.00    +0.139 A 
ATOM     19  C   UNL     1     -33.820  26.516   4.292  0.00  0.00    +0.068 A 
ATOM     20  C   UNL     1     -35.562  24.330   4.857  0.00  0.00    +0.345 A 
ATOM     21  C   UNL     1     -33.977  26.039   5.589  0.00  0.00    +0.152 A 
ATOM     22  C   UNL     1     -32.947  27.593   4.090  0.00  0.00    +0.006 C 
ATOM     23  C   UNL     1     -33.300  26.596   6.674  0.00  0.00    +0.038 C 
ATOM     24  C   UNL     1     -32.259  28.164   5.168  0.00  0.00    +0.000 C 
ATOM     25  C   UNL     1     -32.436  27.665   6.458  0.00  0.00    +0.003 C 
BRANCH  18  26
ATOM     26  O   UNL     1     -34.349  26.408   1.961  0.00  0.00    -0.505 OA
ATOM     27  H   UNL     1     -33.500  26.345   1.568  0.00  0.00    +0.292 HD
ENDBRANCH  18  26
ENDBRANCH   1  17
BRANCH   1  28
ATOM     28  C   UNL     1     -37.510  23.541   3.054  0.00  0.00    +0.152 C 
BRANCH  28  29
ATOM     29  O   UNL     1     -38.526  23.395   2.068  0.00  0.00    -0.350 OA
ATOM     30  C   UNL     1     -39.037  22.070   2.042  0.00  0.00    +0.174 C 
ENDBRANCH  28  29
ENDBRANCH   1  28
TORSDOF 6
ENDMDL
