MODEL 1
REMARK VINA RESULT:      -5.7      0.000      0.000
REMARK  Name = 5281441
REMARK  7 active torsions:
REMARK  status: ('A' for Active; 'I' for Inactive)
REMARK    1  A    between atoms: C_9  and  O_22
REMARK    2  A    between atoms: C_13  and  O_30
REMARK    3  A    between atoms: C_15  and  C_19
REMARK    4  A    between atoms: C_19  and  O_20
REMARK    5  A    between atoms: O_22  and  C_24
REMARK    6  A    between atoms: C_24  and  C_26
REMARK    7  A    between atoms: O_30  and  C_32
REMARK                            x       y       z     vdW  Elec       q    Type
REMARK                         _______ _______ _______ _____ _____    ______ ____
ROOT
ATOM      1  O   UNL     1     -33.688  25.502   5.426  0.00  0.00    -0.352 OA
ATOM      2  O   UNL     1     -32.844  26.465   2.726  0.00  0.00    -0.446 OA
ATOM      3  O   UNL     1     -31.816  27.374   0.884  0.00  0.00    -0.245 OA
ATOM      4  C   UNL     1     -34.863  24.711   5.218  0.00  0.00    +0.122 C 
ATOM      5  C   UNL     1     -33.801  24.831   4.160  0.00  0.00    +0.180 C 
ATOM      6  C   UNL     1     -34.040  25.697   2.968  0.00  0.00    +0.206 C 
ATOM      7  C   UNL     1     -34.273  24.876   1.695  0.00  0.00    +0.115 C 
ATOM      8  C   UNL     1     -34.970  23.445   6.000  0.00  0.00    +0.034 C 
ATOM      9  C   UNL     1     -35.740  24.490   1.392  0.00  0.00    +0.221 C 
ATOM     10  C   UNL     1     -36.072  25.589   5.240  0.00  0.00    +0.032 C 
ATOM     11  C   UNL     1     -33.622  25.781   0.693  0.00  0.00    +0.060 C 
ATOM     12  C   UNL     1     -35.937  22.466   5.325  0.00  0.00    +0.029 C 
ATOM     13  C   UNL     1     -36.422  23.520   2.390  0.00  0.00    +0.237 C 
ATOM     14  C   UNL     1     -32.651  26.648   1.390  0.00  0.00    +0.337 C 
ATOM     15  C   UNL     1     -35.630  22.305   2.796  0.00  0.00    +0.092 C 
ATOM     16  C   UNL     1     -35.397  21.874   4.049  0.00  0.00    -0.020 C 
ATOM     17  C   UNL     1     -33.801  25.881  -0.626  0.00  0.00    +0.002 C 
ENDROOT
BRANCH  15  19
ATOM     18  O   UNL     1     -34.253  21.895   0.912  0.00  0.00    -0.245 OA
ATOM     19  C   UNL     1     -35.046  21.471   1.733  0.00  0.00    +0.341 C 
BRANCH  19  20
ATOM     20  O   UNL     1     -35.541  20.216   1.851  0.00  0.00    -0.441 OA
ATOM     21  C   UNL     1     -36.569  19.878   0.914  0.00  0.00    +0.256 C 
ENDBRANCH  19  20
ENDBRANCH  15  19
BRANCH   9  22
ATOM     22  O   UNL     1     -36.558  25.672   1.375  0.00  0.00    -0.446 OA
BRANCH  22  24
ATOM     23  O   UNL     1     -37.215  25.203  -0.792  0.00  0.00    -0.247 OA
ATOM     24  C   UNL     1     -37.274  25.862   0.236  0.00  0.00    +0.344 C 
BRANCH  24  26
ATOM     25  O   UNL     1     -38.918  27.000   1.598  0.00  0.00    -0.345 OA
ATOM     26  C   UNL     1     -38.195  27.020   0.366  0.00  0.00    +0.206 C 
ATOM     27  C   UNL     1     -39.671  26.787   0.396  0.00  0.00    +0.151 C 
ATOM     28  C   UNL     1     -37.699  28.367  -0.001  0.00  0.00    +0.044 C 
ATOM     29  C   UNL     1     -40.254  25.428   0.293  0.00  0.00    +0.035 C 
ENDBRANCH  24  26
ENDBRANCH  22  24
ENDBRANCH   9  22
BRANCH  13  30
ATOM     30  O   UNL     1     -37.635  23.067   1.764  0.00  0.00    -0.444 OA
BRANCH  30  32
ATOM     31  O   UNL     1     -39.006  24.002   3.375  0.00  0.00    -0.250 OA
ATOM     32  C   UNL     1     -38.749  23.150   2.537  0.00  0.00    +0.318 C 
ATOM     33  C   UNL     1     -39.687  22.034   2.248  0.00  0.00    +0.121 C 
ENDBRANCH  30  32
ENDBRANCH  13  30
TORSDOF 7
ENDMDL
MODEL 2
REMARK VINA RESULT:      -5.7      2.230      4.879
REMARK  Name = 5281441
REMARK  7 active torsions:
REMARK  status: ('A' for Active; 'I' for Inactive)
REMARK    1  A    between atoms: C_9  and  O_22
REMARK    2  A    between atoms: C_13  and  O_30
REMARK    3  A    between atoms: C_15  and  C_19
REMARK    4  A    between atoms: C_19  and  O_20
REMARK    5  A    between atoms: O_22  and  C_24
REMARK    6  A    between atoms: C_24  and  C_26
REMARK    7  A    between atoms: O_30  and  C_32
REMARK                            x       y       z     vdW  Elec       q    Type
REMARK                         _______ _______ _______ _____ _____    ______ ____
ROOT
ATOM      1  O   UNL     1     -33.628  23.984  -0.547  0.00  0.00    -0.352 OA
ATOM      2  O   UNL     1     -34.867  21.318  -1.079  0.00  0.00    -0.446 OA
ATOM      3  O   UNL     1     -35.443  19.206  -1.774  0.00  0.00    -0.245 OA
ATOM      4  C   UNL     1     -34.410  24.588   0.489  0.00  0.00    +0.122 C 
ATOM      5  C   UNL     1     -34.271  23.095   0.380  0.00  0.00    +0.180 C 
ATOM      6  C   UNL     1     -35.404  22.284  -0.154  0.00  0.00    +0.206 C 
ATOM      7  C   UNL     1     -36.100  21.469   0.942  0.00  0.00    +0.115 C 
ATOM      8  C   UNL     1     -33.665  25.311   1.560  0.00  0.00    +0.034 C 
ATOM      9  C   UNL     1     -37.274  22.167   1.669  0.00  0.00    +0.221 C 
ATOM     10  C   UNL     1     -35.558  25.330  -0.114  0.00  0.00    +0.032 C 
ATOM     11  C   UNL     1     -36.461  20.248   0.153  0.00  0.00    +0.060 C 
ATOM     12  C   UNL     1     -34.514  25.427   2.831  0.00  0.00    +0.029 C 
ATOM     13  C   UNL     1     -36.919  23.407   2.528  0.00  0.00    +0.237 C 
ATOM     14  C   UNL     1     -35.565  20.150  -1.017  0.00  0.00    +0.337 C 
ATOM     15  C   UNL     1     -35.734  23.272   3.448  0.00  0.00    +0.092 C 
ATOM     16  C   UNL     1     -34.693  24.117   3.555  0.00  0.00    -0.020 C 
ATOM     17  C   UNL     1     -37.407  19.329   0.366  0.00  0.00    +0.002 C 
ENDROOT
BRANCH  15  19
ATOM     18  O   UNL     1     -35.315  21.005   3.996  0.00  0.00    -0.245 OA
ATOM     19  C   UNL     1     -35.685  22.109   4.350  0.00  0.00    +0.341 C 
BRANCH  19  20
ATOM     20  O   UNL     1     -36.111  22.499   5.575  0.00  0.00    -0.441 OA
ATOM     21  C   UNL     1     -35.292  22.069   6.668  0.00  0.00    +0.256 C 
ENDBRANCH  19  20
ENDBRANCH  15  19
BRANCH   9  22
ATOM     22  O   UNL     1     -38.238  22.622   0.705  0.00  0.00    -0.446 OA
BRANCH  22  24
ATOM     23  O   UNL     1     -39.899  21.434   1.790  0.00  0.00    -0.247 OA
ATOM     24  C   UNL     1     -39.510  22.193   0.913  0.00  0.00    +0.344 C 
BRANCH  24  26
ATOM     25  O   UNL     1     -41.686  22.066  -0.133  0.00  0.00    -0.345 OA
ATOM     26  C   UNL     1     -40.443  22.767  -0.089  0.00  0.00    +0.206 C 
ATOM     27  C   UNL     1     -40.834  21.956  -1.281  0.00  0.00    +0.151 C 
ATOM     28  C   UNL     1     -40.597  24.239  -0.154  0.00  0.00    +0.044 C 
ATOM     29  C   UNL     1     -40.312  20.587  -1.504  0.00  0.00    +0.035 C 
ENDBRANCH  24  26
ENDBRANCH  22  24
ENDBRANCH   9  22
BRANCH  13  30
ATOM     30  O   UNL     1     -38.074  23.697   3.335  0.00  0.00    -0.444 OA
BRANCH  30  32
ATOM     31  O   UNL     1     -37.883  25.986   3.067  0.00  0.00    -0.250 OA
ATOM     32  C   UNL     1     -38.539  24.969   3.241  0.00  0.00    +0.318 C 
ATOM     33  C   UNL     1     -40.018  25.012   3.377  0.00  0.00    +0.121 C 
ENDBRANCH  30  32
ENDBRANCH  13  30
TORSDOF 7
ENDMDL
MODEL 3
REMARK VINA RESULT:      -5.6      1.979      5.747
REMARK  Name = 5281441
REMARK  7 active torsions:
REMARK  status: ('A' for Active; 'I' for Inactive)
REMARK    1  A    between atoms: C_9  and  O_22
REMARK    2  A    between atoms: C_13  and  O_30
REMARK    3  A    between atoms: C_15  and  C_19
REMARK    4  A    between atoms: C_19  and  O_20
REMARK    5  A    between atoms: O_22  and  C_24
REMARK    6  A    between atoms: C_24  and  C_26
REMARK    7  A    between atoms: O_30  and  C_32
REMARK                            x       y       z     vdW  Elec       q    Type
REMARK                         _______ _______ _______ _____ _____    ______ ____
ROOT
ATOM      1  O   UNL     1     -33.308  26.378   4.906  0.00  0.00    -0.352 OA
ATOM      2  O   UNL     1     -34.432  23.628   5.226  0.00  0.00    -0.446 OA
ATOM      3  O   UNL     1     -35.191  21.578   5.932  0.00  0.00    -0.245 OA
ATOM      4  C   UNL     1     -33.543  26.749   3.543  0.00  0.00    +0.122 C 
ATOM      5  C   UNL     1     -34.459  25.802   4.268  0.00  0.00    +0.180 C 
ATOM      6  C   UNL     1     -34.393  24.340   3.973  0.00  0.00    +0.206 C 
ATOM      7  C   UNL     1     -35.612  23.854   3.180  0.00  0.00    +0.115 C 
ATOM      8  C   UNL     1     -33.995  28.149   3.296  0.00  0.00    +0.034 C 
ATOM      9  C   UNL     1     -35.490  23.913   1.639  0.00  0.00    +0.221 C 
ATOM     10  C   UNL     1     -32.414  26.273   2.688  0.00  0.00    +0.032 C 
ATOM     11  C   UNL     1     -35.760  22.483   3.766  0.00  0.00    +0.060 C 
ATOM     12  C   UNL     1     -34.710  28.261   1.945  0.00  0.00    +0.029 C 
ATOM     13  C   UNL     1     -35.379  25.323   1.005  0.00  0.00    +0.237 C 
ATOM     14  C   UNL     1     -35.116  22.457   5.094  0.00  0.00    +0.337 C 
ATOM     15  C   UNL     1     -36.355  26.360   1.497  0.00  0.00    +0.092 C 
ATOM     16  C   UNL     1     -36.066  27.602   1.928  0.00  0.00    -0.020 C 
ATOM     17  C   UNL     1     -36.350  21.391   3.273  0.00  0.00    +0.002 C 
ENDROOT
BRANCH  15  19
ATOM     18  O   UNL     1     -38.422  25.766   0.501  0.00  0.00    -0.245 OA
ATOM     19  C   UNL     1     -37.786  26.016   1.509  0.00  0.00    +0.341 C 
BRANCH  19  20
ATOM     20  O   UNL     1     -38.221  26.035   2.792  0.00  0.00    -0.441 OA
ATOM     21  C   UNL     1     -39.125  24.982   3.143  0.00  0.00    +0.256 C 
ENDBRANCH  19  20
ENDBRANCH  15  19
BRANCH   9  22
ATOM     22  O   UNL     1     -34.313  23.203   1.219  0.00  0.00    -0.446 OA
BRANCH  22  24
ATOM     23  O   UNL     1     -35.600  21.863  -0.157  0.00  0.00    -0.247 OA
ATOM     24  C   UNL     1     -34.527  22.217   0.310  0.00  0.00    +0.344 C 
BRANCH  24  26
ATOM     25  O   UNL     1     -33.469  20.372  -0.842  0.00  0.00    -0.345 OA
ATOM     26  C   UNL     1     -33.253  21.566  -0.089  0.00  0.00    +0.206 C 
ATOM     27  C   UNL     1     -32.905  20.224   0.469  0.00  0.00    +0.151 C 
ATOM     28  C   UNL     1     -32.162  22.411  -0.629  0.00  0.00    +0.044 C 
ATOM     29  C   UNL     1     -33.794  19.516   1.420  0.00  0.00    +0.035 C 
ENDBRANCH  24  26
ENDBRANCH  22  24
ENDBRANCH   9  22
BRANCH  13  30
ATOM     30  O   UNL     1     -35.586  25.160  -0.409  0.00  0.00    -0.444 OA
BRANCH  30  32
ATOM     31  O   UNL     1     -35.350  26.777  -2.045  0.00  0.00    -0.250 OA
ATOM     32  C   UNL     1     -34.894  26.023  -1.197  0.00  0.00    +0.318 C 
ATOM     33  C   UNL     1     -33.437  25.961  -0.912  0.00  0.00    +0.121 C 
ENDBRANCH  30  32
ENDBRANCH  13  30
TORSDOF 7
ENDMDL
MODEL 4
REMARK VINA RESULT:      -5.6      1.679      5.715
REMARK  Name = 5281441
REMARK  7 active torsions:
REMARK  status: ('A' for Active; 'I' for Inactive)
REMARK    1  A    between atoms: C_9  and  O_22
REMARK    2  A    between atoms: C_13  and  O_30
REMARK    3  A    between atoms: C_15  and  C_19
REMARK    4  A    between atoms: C_19  and  O_20
REMARK    5  A    between atoms: O_22  and  C_24
REMARK    6  A    between atoms: C_24  and  C_26
REMARK    7  A    between atoms: O_30  and  C_32
REMARK                            x       y       z     vdW  Elec       q    Type
REMARK                         _______ _______ _______ _____ _____    ______ ____
ROOT
ATOM      1  O   UNL     1     -31.630  26.954   1.390  0.00  0.00    -0.352 OA
ATOM      2  O   UNL     1     -32.740  26.741   4.156  0.00  0.00    -0.446 OA
ATOM      3  O   UNL     1     -33.199  26.818   6.405  0.00  0.00    -0.245 OA
ATOM      4  C   UNL     1     -32.636  26.429   0.516  0.00  0.00    +0.122 C 
ATOM      5  C   UNL     1     -32.995  27.086   1.820  0.00  0.00    +0.180 C 
ATOM      6  C   UNL     1     -33.410  26.245   2.980  0.00  0.00    +0.206 C 
ATOM      7  C   UNL     1     -34.910  26.364   3.274  0.00  0.00    +0.115 C 
ATOM      8  C   UNL     1     -32.872  27.168  -0.759  0.00  0.00    +0.034 C 
ATOM      9  C   UNL     1     -35.831  25.360   2.541  0.00  0.00    +0.221 C 
ATOM     10  C   UNL     1     -32.468  24.950   0.384  0.00  0.00    +0.032 C 
ATOM     11  C   UNL     1     -34.881  26.246   4.768  0.00  0.00    +0.060 C 
ATOM     12  C   UNL     1     -34.265  26.861  -1.318  0.00  0.00    +0.029 C 
ATOM     13  C   UNL     1     -35.912  25.491   1.000  0.00  0.00    +0.237 C 
ATOM     14  C   UNL     1     -33.538  26.622   5.253  0.00  0.00    +0.337 C 
ATOM     15  C   UNL     1     -36.105  26.880   0.451  0.00  0.00    +0.092 C 
ATOM     16  C   UNL     1     -35.382  27.476  -0.515  0.00  0.00    -0.020 C 
ATOM     17  C   UNL     1     -35.836  25.875   5.625  0.00  0.00    +0.002 C 
ENDROOT
BRANCH  15  19
ATOM     18  O   UNL     1     -38.364  27.338   1.004  0.00  0.00    -0.245 OA
ATOM     19  C   UNL     1     -37.200  27.697   1.000  0.00  0.00    +0.341 C 
BRANCH  19  20
ATOM     20  O   UNL     1     -36.678  28.855   1.469  0.00  0.00    -0.441 OA
ATOM     21  C   UNL     1     -37.061  30.031   0.748  0.00  0.00    +0.256 C 
ENDBRANCH  19  20
ENDBRANCH  15  19
BRANCH   9  22
ATOM     22  O   UNL     1     -35.383  24.018   2.797  0.00  0.00    -0.446 OA
BRANCH  22  24
ATOM     23  O   UNL     1     -37.430  23.504   3.742  0.00  0.00    -0.247 OA
ATOM     24  C   UNL     1     -36.301  23.203   3.378  0.00  0.00    +0.344 C 
BRANCH  24  26
ATOM     25  O   UNL     1     -34.984  21.414   2.425  0.00  0.00    -0.345 OA
ATOM     26  C   UNL     1     -35.772  21.826   3.542  0.00  0.00    +0.206 C 
ATOM     27  C   UNL     1     -36.237  20.744   2.621  0.00  0.00    +0.151 C 
ATOM     28  C   UNL     1     -35.188  21.439   4.847  0.00  0.00    +0.044 C 
ATOM     29  C   UNL     1     -37.222  21.001   1.543  0.00  0.00    +0.035 C 
ENDBRANCH  24  26
ENDBRANCH  22  24
ENDBRANCH   9  22
BRANCH  13  30
ATOM     30  O   UNL     1     -37.027  24.690   0.574  0.00  0.00    -0.444 OA
BRANCH  30  32
ATOM     31  O   UNL     1     -37.686  24.241  -1.598  0.00  0.00    -0.250 OA
ATOM     32  C   UNL     1     -36.904  24.140  -0.663  0.00  0.00    +0.318 C 
ATOM     33  C   UNL     1     -35.649  23.355  -0.779  0.00  0.00    +0.121 C 
ENDBRANCH  30  32
ENDBRANCH  13  30
TORSDOF 7
ENDMDL
MODEL 5
REMARK VINA RESULT:      -5.5      1.908      5.024
REMARK  Name = 5281441
REMARK  7 active torsions:
REMARK  status: ('A' for Active; 'I' for Inactive)
REMARK    1  A    between atoms: C_9  and  O_22
REMARK    2  A    between atoms: C_13  and  O_30
REMARK    3  A    between atoms: C_15  and  C_19
REMARK    4  A    between atoms: C_19  and  O_20
REMARK    5  A    between atoms: O_22  and  C_24
REMARK    6  A    between atoms: C_24  and  C_26
REMARK    7  A    between atoms: O_30  and  C_32
REMARK                            x       y       z     vdW  Elec       q    Type
REMARK                         _______ _______ _______ _____ _____    ______ ____
ROOT
ATOM      1  O   UNL     1     -35.008  22.323  -1.527  0.00  0.00    -0.352 OA
ATOM      2  O   UNL     1     -35.791  25.200  -1.337  0.00  0.00    -0.446 OA
ATOM      3  O   UNL     1     -36.331  27.409  -1.665  0.00  0.00    -0.245 OA
ATOM      4  C   UNL     1     -35.190  21.773  -0.218  0.00  0.00    +0.122 C 
ATOM      5  C   UNL     1     -36.027  22.921  -0.710  0.00  0.00    +0.180 C 
ATOM      6  C   UNL     1     -35.754  24.301  -0.211  0.00  0.00    +0.206 C 
ATOM      7  C   UNL     1     -36.839  24.794   0.752  0.00  0.00    +0.115 C 
ATOM      8  C   UNL     1     -35.799  20.413  -0.137  0.00  0.00    +0.034 C 
ATOM      9  C   UNL     1     -36.615  24.481   2.250  0.00  0.00    +0.221 C 
ATOM     10  C   UNL     1     -33.951  21.975   0.592  0.00  0.00    +0.032 C 
ATOM     11  C   UNL     1     -36.852  26.248   0.389  0.00  0.00    +0.060 C 
ATOM     12  C   UNL     1     -36.423  20.175   1.242  0.00  0.00    +0.029 C 
ATOM     13  C   UNL     1     -36.640  22.987   2.658  0.00  0.00    +0.237 C 
ATOM     14  C   UNL     1     -36.308  26.407  -0.974  0.00  0.00    +0.337 C 
ATOM     15  C   UNL     1     -37.774  22.159   2.111  0.00  0.00    +0.092 C 
ATOM     16  C   UNL     1     -37.678  20.975   1.478  0.00  0.00    -0.020 C 
ATOM     17  C   UNL     1     -37.261  27.310   1.088  0.00  0.00    +0.002 C 
ENDROOT
BRANCH  15  19
ATOM     18  O   UNL     1     -39.445  23.534   3.076  0.00  0.00    -0.245 OA
ATOM     19  C   UNL     1     -39.146  22.664   2.279  0.00  0.00    +0.341 C 
BRANCH  19  20
ATOM     20  O   UNL     1     -39.955  22.001   1.419  0.00  0.00    -0.441 OA
ATOM     21  C   UNL     1     -40.457  22.783   0.330  0.00  0.00    +0.256 C 
ENDBRANCH  19  20
ENDBRANCH  15  19
BRANCH   9  22
ATOM     22  O   UNL     1     -35.330  24.976   2.660  0.00  0.00    -0.446 OA
BRANCH  22  24
ATOM     23  O   UNL     1     -36.275  26.240   4.350  0.00  0.00    -0.247 OA
ATOM     24  C   UNL     1     -35.362  25.973   3.582  0.00  0.00    +0.344 C 
BRANCH  24  26
ATOM     25  O   UNL     1     -32.957  25.951   3.836  0.00  0.00    -0.345 OA
ATOM     26  C   UNL     1     -34.102  26.760   3.569  0.00  0.00    +0.206 C 
ATOM     27  C   UNL     1     -33.319  26.917   4.832  0.00  0.00    +0.151 C 
ATOM     28  C   UNL     1     -33.888  27.739   2.478  0.00  0.00    +0.044 C 
ATOM     29  C   UNL     1     -33.762  26.314   6.111  0.00  0.00    +0.035 C 
ENDBRANCH  24  26
ENDBRANCH  22  24
ENDBRANCH   9  22
BRANCH  13  30
ATOM     30  O   UNL     1     -36.722  22.950   4.093  0.00  0.00    -0.444 OA
BRANCH  30  32
ATOM     31  O   UNL     1     -35.347  21.110   4.368  0.00  0.00    -0.250 OA
ATOM     32  C   UNL     1     -35.762  22.209   4.707  0.00  0.00    +0.318 C 
ATOM     33  C   UNL     1     -35.231  22.905   5.907  0.00  0.00    +0.121 C 
ENDBRANCH  30  32
ENDBRANCH  13  30
TORSDOF 7
ENDMDL
MODEL 6
REMARK VINA RESULT:      -5.5      2.161      5.994
REMARK  Name = 5281441
REMARK  7 active torsions:
REMARK  status: ('A' for Active; 'I' for Inactive)
REMARK    1  A    between atoms: C_9  and  O_22
REMARK    2  A    between atoms: C_13  and  O_30
REMARK    3  A    between atoms: C_15  and  C_19
REMARK    4  A    between atoms: C_19  and  O_20
REMARK    5  A    between atoms: O_22  and  C_24
REMARK    6  A    between atoms: C_24  and  C_26
REMARK    7  A    between atoms: O_30  and  C_32
REMARK                            x       y       z     vdW  Elec       q    Type
REMARK                         _______ _______ _______ _____ _____    ______ ____
ROOT
ATOM      1  O   UNL     1     -39.941  20.587   0.349  0.00  0.00    -0.352 OA
ATOM      2  O   UNL     1     -37.090  19.698   0.456  0.00  0.00    -0.446 OA
ATOM      3  O   UNL     1     -35.075  18.598   0.387  0.00  0.00    -0.245 OA
ATOM      4  C   UNL     1     -39.930  21.993   0.618  0.00  0.00    +0.122 C 
ATOM      5  C   UNL     1     -38.762  21.311  -0.039  0.00  0.00    +0.180 C 
ATOM      6  C   UNL     1     -37.525  21.040   0.752  0.00  0.00    +0.206 C 
ATOM      7  C   UNL     1     -36.365  21.954   0.343  0.00  0.00    +0.115 C 
ATOM      8  C   UNL     1     -40.834  22.843  -0.210  0.00  0.00    +0.034 C 
ATOM      9  C   UNL     1     -36.254  23.296   1.106  0.00  0.00    +0.221 C 
ATOM     10  C   UNL     1     -39.996  22.224   2.093  0.00  0.00    +0.032 C 
ATOM     11  C   UNL     1     -35.222  21.005   0.532  0.00  0.00    +0.060 C 
ATOM     12  C   UNL     1     -40.358  24.300  -0.217  0.00  0.00    +0.029 C 
ATOM     13  C   UNL     1     -37.403  24.313   0.892  0.00  0.00    +0.237 C 
ATOM     14  C   UNL     1     -35.730  19.621   0.458  0.00  0.00    +0.337 C 
ATOM     15  C   UNL     1     -37.837  24.550  -0.531  0.00  0.00    +0.092 C 
ATOM     16  C   UNL     1     -39.093  24.512  -1.010  0.00  0.00    -0.020 C 
ATOM     17  C   UNL     1     -33.924  21.244   0.739  0.00  0.00    +0.002 C 
ENDROOT
BRANCH  15  19
ATOM     18  O   UNL     1     -36.055  25.828  -1.430  0.00  0.00    -0.245 OA
ATOM     19  C   UNL     1     -36.801  24.870  -1.527  0.00  0.00    +0.341 C 
BRANCH  19  20
ATOM     20  O   UNL     1     -36.850  23.940  -2.510  0.00  0.00    -0.441 OA
ATOM     21  C   UNL     1     -35.576  23.479  -2.973  0.00  0.00    +0.256 C 
ENDBRANCH  19  20
ENDBRANCH  15  19
BRANCH   9  22
ATOM     22  O   UNL     1     -36.211  23.046   2.520  0.00  0.00    -0.446 OA
BRANCH  22  24
ATOM     23  O   UNL     1     -34.201  24.175   2.701  0.00  0.00    -0.247 OA
ATOM     24  C   UNL     1     -35.201  23.664   3.186  0.00  0.00    +0.344 C 
BRANCH  24  26
ATOM     25  O   UNL     1     -36.751  24.119   4.985  0.00  0.00    -0.345 OA
ATOM     26  C   UNL     1     -35.440  23.662   4.652  0.00  0.00    +0.206 C 
ATOM     27  C   UNL     1     -35.652  24.957   5.365  0.00  0.00    +0.151 C 
ATOM     28  C   UNL     1     -35.012  22.483   5.440  0.00  0.00    +0.044 C 
ATOM     29  C   UNL     1     -35.625  26.258   4.656  0.00  0.00    +0.035 C 
ENDBRANCH  24  26
ENDBRANCH  22  24
ENDBRANCH   9  22
BRANCH  13  30
ATOM     30  O   UNL     1     -36.951  25.568   1.430  0.00  0.00    -0.444 OA
BRANCH  30  32
ATOM     31  O   UNL     1     -38.115  27.562   1.292  0.00  0.00    -0.250 OA
ATOM     32  C   UNL     1     -37.937  26.444   1.755  0.00  0.00    +0.318 C 
ATOM     33  C   UNL     1     -38.837  25.880   2.793  0.00  0.00    +0.121 C 
ENDBRANCH  30  32
ENDBRANCH  13  30
TORSDOF 7
ENDMDL
MODEL 7
REMARK VINA RESULT:      -5.5      1.904      5.072
REMARK  Name = 5281441
REMARK  7 active torsions:
REMARK  status: ('A' for Active; 'I' for Inactive)
REMARK    1  A    between atoms: C_9  and  O_22
REMARK    2  A    between atoms: C_13  and  O_30
REMARK    3  A    between atoms: C_15  and  C_19
REMARK    4  A    between atoms: C_19  and  O_20
REMARK    5  A    between atoms: O_22  and  C_24
REMARK    6  A    between atoms: C_24  and  C_26
REMARK    7  A    between atoms: O_30  and  C_32
REMARK                            x       y       z     vdW  Elec       q    Type
REMARK                         _______ _______ _______ _____ _____    ______ ____
ROOT
ATOM      1  O   UNL     1     -33.786  25.557  -0.705  0.00  0.00    -0.352 OA
ATOM      2  O   UNL     1     -33.813  22.668   0.055  0.00  0.00    -0.446 OA
ATOM      3  O   UNL     1     -33.417  20.433   0.408  0.00  0.00    -0.245 OA
ATOM      4  C   UNL     1     -34.910  26.153  -0.048  0.00  0.00    +0.122 C 
ATOM      5  C   UNL     1     -34.202  24.962   0.535  0.00  0.00    +0.180 C 
ATOM      6  C   UNL     1     -34.831  23.611   0.445  0.00  0.00    +0.206 C 
ATOM      7  C   UNL     1     -35.352  23.125   1.802  0.00  0.00    +0.115 C 
ATOM      8  C   UNL     1     -34.697  27.496   0.565  0.00  0.00    +0.034 C 
ATOM      9  C   UNL     1     -36.812  23.503   2.146  0.00  0.00    +0.221 C 
ATOM     10  C   UNL     1     -36.126  26.019  -0.907  0.00  0.00    +0.032 C 
ATOM     11  C   UNL     1     -35.079  21.658   1.662  0.00  0.00    +0.060 C 
ATOM     12  C   UNL     1     -35.740  27.770   1.655  0.00  0.00    +0.029 C 
ATOM     13  C   UNL     1     -37.111  25.011   2.339  0.00  0.00    +0.237 C 
ATOM     14  C   UNL     1     -34.019  21.462   0.653  0.00  0.00    +0.337 C 
ATOM     15  C   UNL     1     -36.148  25.783   3.204  0.00  0.00    +0.092 C 
ATOM     16  C   UNL     1     -35.539  26.943   2.898  0.00  0.00    -0.020 C 
ATOM     17  C   UNL     1     -35.630  20.612   2.284  0.00  0.00    +0.002 C 
ENDROOT
BRANCH  15  19
ATOM     18  O   UNL     1     -36.666  24.792   5.293  0.00  0.00    -0.245 OA
ATOM     19  C   UNL     1     -35.827  25.244   4.536  0.00  0.00    +0.341 C 
BRANCH  19  20
ATOM     20  O   UNL     1     -34.490  25.350   4.730  0.00  0.00    -0.441 OA
ATOM     21  C   UNL     1     -34.103  26.039   5.923  0.00  0.00    +0.256 C 
ENDBRANCH  19  20
ENDBRANCH  15  19
BRANCH   9  22
ATOM     22  O   UNL     1     -37.687  23.063   1.095  0.00  0.00    -0.446 OA
BRANCH  22  24
ATOM     23  O   UNL     1     -38.915  21.809   2.600  0.00  0.00    -0.247 OA
ATOM     24  C   UNL     1     -38.746  22.314   1.499  0.00  0.00    +0.344 C 
BRANCH  24  26
ATOM     25  O   UNL     1     -40.588  21.024   0.610  0.00  0.00    -0.345 OA
ATOM     26  C   UNL     1     -39.742  22.157   0.409  0.00  0.00    +0.206 C 
ATOM     27  C   UNL     1     -39.669  20.965  -0.489  0.00  0.00    +0.151 C 
ATOM     28  C   UNL     1     -40.471  23.356  -0.066  0.00  0.00    +0.044 C 
ATOM     29  C   UNL     1     -38.623  19.927  -0.332  0.00  0.00    +0.035 C 
ENDBRANCH  24  26
ENDBRANCH  22  24
ENDBRANCH   9  22
BRANCH  13  30
ATOM     30  O   UNL     1     -38.414  25.102   2.941  0.00  0.00    -0.444 OA
BRANCH  30  32
ATOM     31  O   UNL     1     -39.001  26.776   1.457  0.00  0.00    -0.250 OA
ATOM     32  C   UNL     1     -39.263  25.983   2.350  0.00  0.00    +0.318 C 
ATOM     33  C   UNL     1     -40.627  25.884   2.929  0.00  0.00    +0.121 C 
ENDBRANCH  30  32
ENDBRANCH  13  30
TORSDOF 7
ENDMDL
MODEL 8
REMARK VINA RESULT:      -5.4      2.057      5.273
REMARK  Name = 5281441
REMARK  7 active torsions:
REMARK  status: ('A' for Active; 'I' for Inactive)
REMARK    1  A    between atoms: C_9  and  O_22
REMARK    2  A    between atoms: C_13  and  O_30
REMARK    3  A    between atoms: C_15  and  C_19
REMARK    4  A    between atoms: C_19  and  O_20
REMARK    5  A    between atoms: O_22  and  C_24
REMARK    6  A    between atoms: C_24  and  C_26
REMARK    7  A    between atoms: O_30  and  C_32
REMARK                            x       y       z     vdW  Elec       q    Type
REMARK                         _______ _______ _______ _____ _____    ______ ____
ROOT
ATOM      1  O   UNL     1     -38.664  27.123   0.391  0.00  0.00    -0.352 OA
ATOM      2  O   UNL     1     -36.539  28.866   1.562  0.00  0.00    -0.446 OA
ATOM      3  O   UNL     1     -35.218  30.558   2.380  0.00  0.00    -0.245 OA
ATOM      4  C   UNL     1     -38.209  25.775   0.555  0.00  0.00    +0.122 C 
ATOM      5  C   UNL     1     -37.810  26.860   1.516  0.00  0.00    +0.180 C 
ATOM      6  C   UNL     1     -36.433  27.433   1.454  0.00  0.00    +0.206 C 
ATOM      7  C   UNL     1     -35.567  26.988   2.637  0.00  0.00    +0.115 C 
ATOM      8  C   UNL     1     -39.226  24.768   0.977  0.00  0.00    +0.034 C 
ATOM      9  C   UNL     1     -34.760  25.683   2.439  0.00  0.00    +0.221 C 
ATOM     10  C   UNL     1     -37.358  25.385  -0.609  0.00  0.00    +0.032 C 
ATOM     11  C   UNL     1     -34.753  28.231   2.830  0.00  0.00    +0.060 C 
ATOM     12  C   UNL     1     -38.554  23.552   1.624  0.00  0.00    +0.029 C 
ATOM     13  C   UNL     1     -35.580  24.378   2.281  0.00  0.00    +0.237 C 
ATOM     14  C   UNL     1     -35.482  29.377   2.253  0.00  0.00    +0.337 C 
ATOM     15  C   UNL     1     -36.698  24.161   3.266  0.00  0.00    +0.092 C 
ATOM     16  C   UNL     1     -37.973  23.840   2.984  0.00  0.00    -0.020 C 
ATOM     17  C   UNL     1     -33.561  28.402   3.408  0.00  0.00    +0.002 C 
ENDROOT
BRANCH  15  19
ATOM     18  O   UNL     1     -36.266  25.369   5.259  0.00  0.00    -0.245 OA
ATOM     19  C   UNL     1     -36.394  24.295   4.701  0.00  0.00    +0.341 C 
BRANCH  19  20
ATOM     20  O   UNL     1     -36.293  23.054   5.235  0.00  0.00    -0.441 OA
ATOM     21  C   UNL     1     -35.086  22.802   5.961  0.00  0.00    +0.256 C 
ENDBRANCH  19  20
ENDBRANCH  15  19
BRANCH   9  22
ATOM     22  O   UNL     1     -33.958  25.787   1.251  0.00  0.00    -0.446 OA
BRANCH  22  24
ATOM     23  O   UNL     1     -32.016  25.539   2.482  0.00  0.00    -0.247 OA
ATOM     24  C   UNL     1     -32.633  25.543   1.426  0.00  0.00    +0.344 C 
BRANCH  24  26
ATOM     25  O   UNL     1     -30.563  25.559   0.175  0.00  0.00    -0.345 OA
ATOM     26  C   UNL     1     -31.960  25.266   0.132  0.00  0.00    +0.206 C 
ATOM     27  C   UNL     1     -31.380  26.396  -0.654  0.00  0.00    +0.151 C 
ATOM     28  C   UNL     1     -32.273  24.001  -0.575  0.00  0.00    +0.044 C 
ATOM     29  C   UNL     1     -31.459  27.800  -0.185  0.00  0.00    +0.035 C 
ENDBRANCH  24  26
ENDBRANCH  22  24
ENDBRANCH   9  22
BRANCH  13  30
ATOM     30  O   UNL     1     -34.653  23.287   2.419  0.00  0.00    -0.444 OA
BRANCH  30  32
ATOM     31  O   UNL     1     -35.280  21.063   2.519  0.00  0.00    -0.250 OA
ATOM     32  C   UNL     1     -35.076  22.102   1.907  0.00  0.00    +0.318 C 
ATOM     33  C   UNL     1     -35.281  22.193   0.438  0.00  0.00    +0.121 C 
ENDBRANCH  30  32
ENDBRANCH  13  30
TORSDOF 7
ENDMDL
MODEL 9
REMARK VINA RESULT:      -5.4      1.997      4.848
REMARK  Name = 5281441
REMARK  7 active torsions:
REMARK  status: ('A' for Active; 'I' for Inactive)
REMARK    1  A    between atoms: C_9  and  O_22
REMARK    2  A    between atoms: C_13  and  O_30
REMARK    3  A    between atoms: C_15  and  C_19
REMARK    4  A    between atoms: C_19  and  O_20
REMARK    5  A    between atoms: O_22  and  C_24
REMARK    6  A    between atoms: C_24  and  C_26
REMARK    7  A    between atoms: O_30  and  C_32
REMARK                            x       y       z     vdW  Elec       q    Type
REMARK                         _______ _______ _______ _____ _____    ______ ____
ROOT
ATOM      1  O   UNL     1     -39.689  23.313   2.502  0.00  0.00    -0.352 OA
ATOM      2  O   UNL     1     -37.540  24.585   4.142  0.00  0.00    -0.446 OA
ATOM      3  O   UNL     1     -36.238  25.628   5.722  0.00  0.00    -0.245 OA
ATOM      4  C   UNL     1     -39.039  22.763   1.351  0.00  0.00    +0.122 C 
ATOM      5  C   UNL     1     -38.324  22.897   2.666  0.00  0.00    +0.180 C 
ATOM      6  C   UNL     1     -37.316  23.983   2.852  0.00  0.00    +0.206 C 
ATOM      7  C   UNL     1     -35.882  23.442   2.888  0.00  0.00    +0.115 C 
ATOM      8  C   UNL     1     -39.490  21.413   0.903  0.00  0.00    +0.034 C 
ATOM      9  C   UNL     1     -35.155  23.347   1.526  0.00  0.00    +0.221 C 
ATOM     10  C   UNL     1     -38.946  23.802   0.280  0.00  0.00    +0.032 C 
ATOM     11  C   UNL     1     -35.283  24.393   3.878  0.00  0.00    +0.060 C 
ATOM     12  C   UNL     1     -38.410  20.729   0.058  0.00  0.00    +0.029 C 
ATOM     13  C   UNL     1     -35.731  22.338   0.501  0.00  0.00    +0.237 C 
ATOM     14  C   UNL     1     -36.361  24.964   4.709  0.00  0.00    +0.337 C 
ATOM     15  C   UNL     1     -36.057  20.962   1.021  0.00  0.00    +0.092 C 
ATOM     16  C   UNL     1     -37.211  20.290   0.859  0.00  0.00    -0.020 C 
ATOM     17  C   UNL     1     -34.010  24.747   4.075  0.00  0.00    +0.002 C 
ENDROOT
BRANCH  15  19
ATOM     18  O   UNL     1     -34.975  20.229   2.997  0.00  0.00    -0.245 OA
ATOM     19  C   UNL     1     -35.021  20.244   1.781  0.00  0.00    +0.341 C 
BRANCH  19  20
ATOM     20  O   UNL     1     -34.184  19.643   0.902  0.00  0.00    -0.441 OA
ATOM     21  C   UNL     1     -33.238  18.740   1.483  0.00  0.00    +0.256 C 
ENDBRANCH  19  20
ENDBRANCH  15  19
BRANCH   9  22
ATOM     22  O   UNL     1     -35.184  24.627   0.873  0.00  0.00    -0.446 OA
BRANCH  22  24
ATOM     23  O   UNL     1     -32.877  24.614   0.715  0.00  0.00    -0.247 OA
ATOM     24  C   UNL     1     -33.974  25.102   0.479  0.00  0.00    +0.344 C 
BRANCH  24  26
ATOM     25  O   UNL     1     -32.942  27.160  -0.261  0.00  0.00    -0.345 OA
ATOM     26  C   UNL     1     -34.116  26.350  -0.314  0.00  0.00    +0.206 C 
ATOM     27  C   UNL     1     -34.116  27.670   0.386  0.00  0.00    +0.151 C 
ATOM     28  C   UNL     1     -34.712  26.267  -1.667  0.00  0.00    +0.044 C 
ATOM     29  C   UNL     1     -33.983  27.779   1.858  0.00  0.00    +0.035 C 
ENDBRANCH  24  26
ENDBRANCH  22  24
ENDBRANCH   9  22
BRANCH  13  30
ATOM     30  O   UNL     1     -34.747  22.194  -0.538  0.00  0.00    -0.444 OA
BRANCH  30  32
ATOM     31  O   UNL     1     -34.980  20.869  -2.419  0.00  0.00    -0.250 OA
ATOM     32  C   UNL     1     -35.240  21.865  -1.760  0.00  0.00    +0.318 C 
ATOM     33  C   UNL     1     -36.189  22.898  -2.251  0.00  0.00    +0.121 C 
ENDBRANCH  30  32
ENDBRANCH  13  30
TORSDOF 7
ENDMDL
