MODEL 1
REMARK VINA RESULT:      -6.3      0.000      0.000
REMARK  Name = 6093202
REMARK  9 active torsions:
REMARK  status: ('A' for Active; 'I' for Inactive)
REMARK    1  A    between atoms: C_2  and  O_17
REMARK    2  A    between atoms: C_3  and  O_19
REMARK    3  A    between atoms: C_4  and  C_21
REMARK    4  A    between atoms: C_5  and  N_6
REMARK    5  A    between atoms: C_9  and  C_14
REMARK    6  A    between atoms: C_21  and  O_22
REMARK    7  A    between atoms: O_22  and  P_23
REMARK    8  A    between atoms: P_23  and  O_25
REMARK    9  A    between atoms: P_23  and  O_27
REMARK                            x       y       z     vdW  Elec       q    Type
REMARK                         _______ _______ _______ _____ _____    ______ ____
ROOT
ATOM      1  O   UNL     1     -33.037  25.970   3.792  0.00  0.00    -0.333 OA
ATOM      2  C   UNL     1     -34.441  27.705   3.020  0.00  0.00    +0.171 C 
ATOM      3  C   UNL     1     -35.230  26.416   2.962  0.00  0.00    +0.187 C 
ATOM      4  C   UNL     1     -33.353  27.353   4.022  0.00  0.00    +0.176 C 
ATOM      5  C   UNL     1     -34.127  25.375   3.063  0.00  0.00    +0.223 C 
ENDROOT
BRANCH   5   6
ATOM      6  N   UNL     1     -34.634  24.150   3.732  0.00  0.00    -0.279 N 
ATOM      7  C   UNL     1     -35.011  23.099   2.981  0.00  0.00    +0.124 C 
ATOM      8  C   UNL     1     -34.706  24.118   5.075  0.00  0.00    +0.063 C 
ATOM      9  C   UNL     1     -35.488  21.941   3.580  0.00  0.00    +0.051 C 
ATOM     10  C   UNL     1     -35.176  22.987   5.728  0.00  0.00    +0.016 C 
ATOM     11  C   UNL     1     -35.570  21.890   4.968  0.00  0.00    +0.003 C 
BRANCH   9  14
ATOM     12  O   UNL     1     -35.070  19.957   2.383  0.00  0.00    -0.271 OA
ATOM     13  N   UNL     1     -37.243  20.685   2.451  0.00  0.00    -0.326 N 
ATOM     14  C   UNL     1     -35.894  20.807   2.769  0.00  0.00    +0.240 C 
ATOM     15  H   UNL     1     -37.554  19.928   1.904  0.00  0.00    +0.145 HD
ATOM     16  H   UNL     1     -37.887  21.356   2.773  0.00  0.00    +0.145 HD
ENDBRANCH   9  14
ENDBRANCH   5   6
BRANCH   2  17
ATOM     17  O   UNL     1     -35.251  28.775   3.470  0.00  0.00    -0.379 OA
ATOM     18  H   UNL     1     -35.530  28.607   4.383  0.00  0.00    +0.211 HD
ENDBRANCH   2  17
BRANCH   3  19
ATOM     19  O   UNL     1     -35.931  26.288   1.738  0.00  0.00    -0.378 OA
ATOM     20  H   UNL     1     -35.941  27.143   1.280  0.00  0.00    +0.211 HD
ENDBRANCH   3  19
BRANCH   4  21
ATOM     21  C   UNL     1     -32.098  28.193   3.869  0.00  0.00    +0.186 C 
BRANCH  21  22
ATOM     22  O   UNL     1     -31.259  27.972   4.991  0.00  0.00    -0.271 OA
BRANCH  22  23
ATOM     23  P   UNL     1     -31.543  28.812   6.343  0.00  0.00    +0.473 P 
ATOM     24  O   UNL     1     -32.266  30.112   6.142  0.00  0.00    -0.227 OA
BRANCH  23  25
ATOM     25  O   UNL     1     -30.087  28.931   7.036  0.00  0.00    -0.303 OA
ATOM     26  H   UNL     1     -29.890  29.864   7.219  0.00  0.00    +0.222 HD
ENDBRANCH  23  25
BRANCH  23  27
ATOM     27  O   UNL     1     -32.313  27.741   7.279  0.00  0.00    -0.303 OA
ATOM     28  H   UNL     1     -31.893  26.871   7.187  0.00  0.00    +0.222 HD
ENDBRANCH  23  27
ENDBRANCH  22  23
ENDBRANCH  21  22
ENDBRANCH   4  21
TORSDOF 9
ENDMDL
MODEL 2
REMARK VINA RESULT:      -6.3      3.910      5.824
REMARK  Name = 6093202
REMARK  9 active torsions:
REMARK  status: ('A' for Active; 'I' for Inactive)
REMARK    1  A    between atoms: C_2  and  O_17
REMARK    2  A    between atoms: C_3  and  O_19
REMARK    3  A    between atoms: C_4  and  C_21
REMARK    4  A    between atoms: C_5  and  N_6
REMARK    5  A    between atoms: C_9  and  C_14
REMARK    6  A    between atoms: C_21  and  O_22
REMARK    7  A    between atoms: O_22  and  P_23
REMARK    8  A    between atoms: P_23  and  O_25
REMARK    9  A    between atoms: P_23  and  O_27
REMARK                            x       y       z     vdW  Elec       q    Type
REMARK                         _______ _______ _______ _____ _____    ______ ____
ROOT
ATOM      1  O   UNL     1     -34.736  22.607   1.355  0.00  0.00    -0.333 OA
ATOM      2  C   UNL     1     -36.251  22.156   3.110  0.00  0.00    +0.171 C 
ATOM      3  C   UNL     1     -35.640  20.840   2.681  0.00  0.00    +0.187 C 
ATOM      4  C   UNL     1     -35.226  23.152   2.591  0.00  0.00    +0.176 C 
ATOM      5  C   UNL     1     -35.048  21.202   1.328  0.00  0.00    +0.223 C 
ENDROOT
BRANCH   5   6
ATOM      6  N   UNL     1     -33.847  20.374   1.053  0.00  0.00    -0.279 N 
ATOM      7  C   UNL     1     -32.860  20.881   0.290  0.00  0.00    +0.124 C 
ATOM      8  C   UNL     1     -33.770  19.136   1.573  0.00  0.00    +0.063 C 
ATOM      9  C   UNL     1     -31.725  20.130   0.018  0.00  0.00    +0.051 C 
ATOM     10  C   UNL     1     -32.658  18.341   1.334  0.00  0.00    +0.016 C 
ATOM     11  C   UNL     1     -31.628  18.847   0.547  0.00  0.00    +0.003 C 
BRANCH   9  14
ATOM     12  O   UNL     1     -30.420  21.898  -0.829  0.00  0.00    -0.271 OA
ATOM     13  N   UNL     1     -29.899  19.787  -1.557  0.00  0.00    -0.326 N 
ATOM     14  C   UNL     1     -30.661  20.677  -0.805  0.00  0.00    +0.240 C 
ATOM     15  H   UNL     1     -29.169  20.123  -2.126  0.00  0.00    +0.145 HD
ATOM     16  H   UNL     1     -30.090  18.822  -1.520  0.00  0.00    +0.145 HD
ENDBRANCH   9  14
ENDBRANCH   5   6
BRANCH   2  17
ATOM     17  O   UNL     1     -36.384  22.217   4.517  0.00  0.00    -0.379 OA
ATOM     18  H   UNL     1     -36.809  21.406   4.837  0.00  0.00    +0.211 HD
ENDBRANCH   2  17
BRANCH   3  19
ATOM     19  O   UNL     1     -36.622  19.829   2.546  0.00  0.00    -0.378 OA
ATOM     20  H   UNL     1     -37.442  20.115   2.978  0.00  0.00    +0.211 HD
ENDBRANCH   3  19
BRANCH   4  21
ATOM     21  C   UNL     1     -35.801  24.535   2.343  0.00  0.00    +0.186 C 
BRANCH  21  22
ATOM     22  O   UNL     1     -36.406  25.001   3.539  0.00  0.00    -0.271 OA
BRANCH  22  23
ATOM     23  P   UNL     1     -35.492  25.816   4.597  0.00  0.00    +0.473 P 
ATOM     24  O   UNL     1     -34.397  26.641   3.986  0.00  0.00    -0.227 OA
BRANCH  23  25
ATOM     25  O   UNL     1     -35.003  24.681   5.639  0.00  0.00    -0.303 OA
ATOM     26  H   UNL     1     -34.975  23.820   5.191  0.00  0.00    +0.222 HD
ENDBRANCH  23  25
BRANCH  23  27
ATOM     27  O   UNL     1     -36.585  26.654   5.446  0.00  0.00    -0.303 OA
ATOM     28  H   UNL     1     -36.585  27.578   5.148  0.00  0.00    +0.222 HD
ENDBRANCH  23  27
ENDBRANCH  22  23
ENDBRANCH  21  22
ENDBRANCH   4  21
TORSDOF 9
ENDMDL
MODEL 3
REMARK VINA RESULT:      -6.3      4.772      6.375
REMARK  Name = 6093202
REMARK  9 active torsions:
REMARK  status: ('A' for Active; 'I' for Inactive)
REMARK    1  A    between atoms: C_2  and  O_17
REMARK    2  A    between atoms: C_3  and  O_19
REMARK    3  A    between atoms: C_4  and  C_21
REMARK    4  A    between atoms: C_5  and  N_6
REMARK    5  A    between atoms: C_9  and  C_14
REMARK    6  A    between atoms: C_21  and  O_22
REMARK    7  A    between atoms: O_22  and  P_23
REMARK    8  A    between atoms: P_23  and  O_25
REMARK    9  A    between atoms: P_23  and  O_27
REMARK                            x       y       z     vdW  Elec       q    Type
REMARK                         _______ _______ _______ _____ _____    ______ ____
ROOT
ATOM      1  O   UNL     1     -36.747  21.791   1.647  0.00  0.00    -0.333 OA
ATOM      2  C   UNL     1     -36.673  22.505   3.897  0.00  0.00    +0.171 C 
ATOM      3  C   UNL     1     -35.443  21.662   3.642  0.00  0.00    +0.187 C 
ATOM      4  C   UNL     1     -37.060  22.916   2.485  0.00  0.00    +0.176 C 
ATOM      5  C   UNL     1     -35.822  20.945   2.356  0.00  0.00    +0.223 C 
ENDROOT
BRANCH   5   6
ATOM      6  N   UNL     1     -34.609  20.657   1.550  0.00  0.00    -0.279 N 
ATOM      7  C   UNL     1     -34.038  19.442   1.633  0.00  0.00    +0.124 C 
ATOM      8  C   UNL     1     -34.106  21.619   0.755  0.00  0.00    +0.063 C 
ATOM      9  C   UNL     1     -32.903  19.145   0.891  0.00  0.00    +0.051 C 
ATOM     10  C   UNL     1     -32.973  21.378  -0.010  0.00  0.00    +0.016 C 
ATOM     11  C   UNL     1     -32.368  20.127   0.063  0.00  0.00    +0.003 C 
BRANCH   9  14
ATOM     12  O   UNL     1     -31.248  17.645   1.637  0.00  0.00    -0.271 OA
ATOM     13  N   UNL     1     -32.909  16.777   0.316  0.00  0.00    -0.326 N 
ATOM     14  C   UNL     1     -32.288  17.832   0.979  0.00  0.00    +0.240 C 
ATOM     15  H   UNL     1     -32.519  15.874   0.355  0.00  0.00    +0.145 HD
ATOM     16  H   UNL     1     -33.738  16.935  -0.191  0.00  0.00    +0.145 HD
ENDBRANCH   9  14
ENDBRANCH   5   6
BRANCH   2  17
ATOM     17  O   UNL     1     -36.362  23.622   4.708  0.00  0.00    -0.379 OA
ATOM     18  H   UNL     1     -36.254  24.407   4.149  0.00  0.00    +0.211 HD
ENDBRANCH   2  17
BRANCH   3  19
ATOM     19  O   UNL     1     -35.221  20.734   4.688  0.00  0.00    -0.378 OA
ATOM     20  H   UNL     1     -34.594  20.056   4.392  0.00  0.00    +0.211 HD
ENDBRANCH   3  19
BRANCH   4  21
ATOM     21  C   UNL     1     -38.531  23.262   2.340  0.00  0.00    +0.186 C 
BRANCH  21  22
ATOM     22  O   UNL     1     -38.861  24.266   3.286  0.00  0.00    -0.271 OA
BRANCH  22  23
ATOM     23  P   UNL     1     -38.595  25.812   2.893  0.00  0.00    +0.473 P 
ATOM     24  O   UNL     1     -38.366  26.064   1.431  0.00  0.00    -0.227 OA
BRANCH  23  25
ATOM     25  O   UNL     1     -37.384  26.256   3.869  0.00  0.00    -0.303 OA
ATOM     26  H   UNL     1     -36.540  25.964   3.490  0.00  0.00    +0.222 HD
ENDBRANCH  23  25
BRANCH  23  27
ATOM     27  O   UNL     1     -39.877  26.571   3.523  0.00  0.00    -0.303 OA
ATOM     28  H   UNL     1     -39.664  27.507   3.658  0.00  0.00    +0.222 HD
ENDBRANCH  23  27
ENDBRANCH  22  23
ENDBRANCH  21  22
ENDBRANCH   4  21
TORSDOF 9
ENDMDL
MODEL 4
REMARK VINA RESULT:      -6.2      4.448      8.800
REMARK  Name = 6093202
REMARK  9 active torsions:
REMARK  status: ('A' for Active; 'I' for Inactive)
REMARK    1  A    between atoms: C_2  and  O_17
REMARK    2  A    between atoms: C_3  and  O_19
REMARK    3  A    between atoms: C_4  and  C_21
REMARK    4  A    between atoms: C_5  and  N_6
REMARK    5  A    between atoms: C_9  and  C_14
REMARK    6  A    between atoms: C_21  and  O_22
REMARK    7  A    between atoms: O_22  and  P_23
REMARK    8  A    between atoms: P_23  and  O_25
REMARK    9  A    between atoms: P_23  and  O_27
REMARK                            x       y       z     vdW  Elec       q    Type
REMARK                         _______ _______ _______ _____ _____    ______ ____
ROOT
ATOM      1  O   UNL     1     -37.251  22.309   1.887  0.00  0.00    -0.333 OA
ATOM      2  C   UNL     1     -36.661  20.159   1.109  0.00  0.00    +0.171 C 
ATOM      3  C   UNL     1     -35.686  20.534   2.204  0.00  0.00    +0.187 C 
ATOM      4  C   UNL     1     -37.830  21.084   1.409  0.00  0.00    +0.176 C 
ATOM      5  C   UNL     1     -35.900  22.037   2.303  0.00  0.00    +0.223 C 
ENDROOT
BRANCH   5   6
ATOM      6  N   UNL     1     -35.646  22.502   3.690  0.00  0.00    -0.279 N 
ATOM      7  C   UNL     1     -35.631  23.822   3.948  0.00  0.00    +0.124 C 
ATOM      8  C   UNL     1     -35.436  21.593   4.659  0.00  0.00    +0.063 C 
ATOM      9  C   UNL     1     -35.396  24.286   5.235  0.00  0.00    +0.051 C 
ATOM     10  C   UNL     1     -35.197  21.998   5.965  0.00  0.00    +0.016 C 
ATOM     11  C   UNL     1     -35.177  23.360   6.251  0.00  0.00    +0.003 C 
BRANCH   9  14
ATOM     12  O   UNL     1     -34.367  26.273   5.968  0.00  0.00    -0.271 OA
ATOM     13  N   UNL     1     -36.535  26.439   5.240  0.00  0.00    -0.326 N 
ATOM     14  C   UNL     1     -35.381  25.711   5.514  0.00  0.00    +0.240 C 
ATOM     15  H   UNL     1     -36.561  27.407   5.416  0.00  0.00    +0.145 HD
ATOM     16  H   UNL     1     -37.327  25.986   4.869  0.00  0.00    +0.145 HD
ENDBRANCH   9  14
ENDBRANCH   5   6
BRANCH   2  17
ATOM     17  O   UNL     1     -37.026  18.795   1.203  0.00  0.00    -0.379 OA
ATOM     18  H   UNL     1     -37.610  18.565   0.463  0.00  0.00    +0.211 HD
ENDBRANCH   2  17
BRANCH   3  19
ATOM     19  O   UNL     1     -34.351  20.240   1.837  0.00  0.00    -0.378 OA
ATOM     20  H   UNL     1     -34.090  20.798   1.088  0.00  0.00    +0.211 HD
ENDBRANCH   3  19
BRANCH   4  21
ATOM     21  C   UNL     1     -38.698  21.371   0.198  0.00  0.00    +0.186 C 
BRANCH  21  22
ATOM     22  O   UNL     1     -39.673  20.347   0.079  0.00  0.00    -0.271 OA
BRANCH  22  23
ATOM     23  P   UNL     1     -39.719  19.482  -1.287  0.00  0.00    +0.473 P 
ATOM     24  O   UNL     1     -39.109  20.152  -2.483  0.00  0.00    -0.227 OA
BRANCH  23  25
ATOM     25  O   UNL     1     -41.278  19.082  -1.438  0.00  0.00    -0.303 OA
ATOM     26  H   UNL     1     -41.705  19.109  -0.567  0.00  0.00    +0.222 HD
ENDBRANCH  23  25
BRANCH  23  27
ATOM     27  O   UNL     1     -39.018  18.089  -0.855  0.00  0.00    -0.303 OA
ATOM     28  H   UNL     1     -38.173  17.994  -1.323  0.00  0.00    +0.222 HD
ENDBRANCH  23  27
ENDBRANCH  22  23
ENDBRANCH  21  22
ENDBRANCH   4  21
TORSDOF 9
ENDMDL
MODEL 5
REMARK VINA RESULT:      -6.2      2.680      2.989
REMARK  Name = 6093202
REMARK  9 active torsions:
REMARK  status: ('A' for Active; 'I' for Inactive)
REMARK    1  A    between atoms: C_2  and  O_17
REMARK    2  A    between atoms: C_3  and  O_19
REMARK    3  A    between atoms: C_4  and  C_21
REMARK    4  A    between atoms: C_5  and  N_6
REMARK    5  A    between atoms: C_9  and  C_14
REMARK    6  A    between atoms: C_21  and  O_22
REMARK    7  A    between atoms: O_22  and  P_23
REMARK    8  A    between atoms: P_23  and  O_25
REMARK    9  A    between atoms: P_23  and  O_27
REMARK                            x       y       z     vdW  Elec       q    Type
REMARK                         _______ _______ _______ _____ _____    ______ ____
ROOT
ATOM      1  O   UNL     1     -35.617  25.106   4.359  0.00  0.00    -0.333 OA
ATOM      2  C   UNL     1     -34.822  27.158   3.503  0.00  0.00    +0.171 C 
ATOM      3  C   UNL     1     -35.935  26.683   2.595  0.00  0.00    +0.187 C 
ATOM      4  C   UNL     1     -35.116  26.386   4.779  0.00  0.00    +0.176 C 
ATOM      5  C   UNL     1     -36.050  25.219   2.991  0.00  0.00    +0.223 C 
ENDROOT
BRANCH   5   6
ATOM      6  N   UNL     1     -37.446  24.746   2.813  0.00  0.00    -0.279 N 
ATOM      7  C   UNL     1     -37.669  23.455   2.504  0.00  0.00    +0.124 C 
ATOM      8  C   UNL     1     -38.459  25.618   2.965  0.00  0.00    +0.063 C 
ATOM      9  C   UNL     1     -38.963  22.985   2.333  0.00  0.00    +0.051 C 
ATOM     10  C   UNL     1     -39.774  25.204   2.807  0.00  0.00    +0.016 C 
ATOM     11  C   UNL     1     -40.024  23.873   2.486  0.00  0.00    +0.003 C 
BRANCH   9  14
ATOM     12  O   UNL     1     -40.336  21.187   1.679  0.00  0.00    -0.271 OA
ATOM     13  N   UNL     1     -38.119  20.720   2.034  0.00  0.00    -0.326 N 
ATOM     14  C   UNL     1     -39.203  21.592   2.001  0.00  0.00    +0.240 C 
ATOM     15  H   UNL     1     -38.245  19.769   1.815  0.00  0.00    +0.145 HD
ATOM     16  H   UNL     1     -37.226  21.054   2.278  0.00  0.00    +0.145 HD
ENDBRANCH   9  14
ENDBRANCH   5   6
BRANCH   2  17
ATOM     17  O   UNL     1     -34.893  28.557   3.701  0.00  0.00    -0.379 OA
ATOM     18  H   UNL     1     -34.475  28.786   4.546  0.00  0.00    +0.211 HD
ENDBRANCH   2  17
BRANCH   3  19
ATOM     19  O   UNL     1     -35.585  26.809   1.230  0.00  0.00    -0.378 OA
ATOM     20  H   UNL     1     -34.680  27.150   1.158  0.00  0.00    +0.211 HD
ENDBRANCH   3  19
BRANCH   4  21
ATOM     21  C   UNL     1     -33.895  26.189   5.659  0.00  0.00    +0.186 C 
BRANCH  21  22
ATOM     22  O   UNL     1     -32.805  26.903   5.098  0.00  0.00    -0.271 OA
BRANCH  22  23
ATOM     23  P   UNL     1     -32.105  28.062   5.984  0.00  0.00    +0.473 P 
ATOM     24  O   UNL     1     -32.492  29.464   5.614  0.00  0.00    -0.227 OA
BRANCH  23  25
ATOM     25  O   UNL     1     -30.527  27.729   5.876  0.00  0.00    -0.303 OA
ATOM     26  H   UNL     1     -30.059  28.495   5.505  0.00  0.00    +0.222 HD
ENDBRANCH  23  25
BRANCH  23  27
ATOM     27  O   UNL     1     -32.473  27.629   7.498  0.00  0.00    -0.303 OA
ATOM     28  H   UNL     1     -32.384  28.398   8.084  0.00  0.00    +0.222 HD
ENDBRANCH  23  27
ENDBRANCH  22  23
ENDBRANCH  21  22
ENDBRANCH   4  21
TORSDOF 9
ENDMDL
MODEL 6
REMARK VINA RESULT:      -6.1      4.139      7.766
REMARK  Name = 6093202
REMARK  9 active torsions:
REMARK  status: ('A' for Active; 'I' for Inactive)
REMARK    1  A    between atoms: C_2  and  O_17
REMARK    2  A    between atoms: C_3  and  O_19
REMARK    3  A    between atoms: C_4  and  C_21
REMARK    4  A    between atoms: C_5  and  N_6
REMARK    5  A    between atoms: C_9  and  C_14
REMARK    6  A    between atoms: C_21  and  O_22
REMARK    7  A    between atoms: O_22  and  P_23
REMARK    8  A    between atoms: P_23  and  O_25
REMARK    9  A    between atoms: P_23  and  O_27
REMARK                            x       y       z     vdW  Elec       q    Type
REMARK                         _______ _______ _______ _____ _____    ______ ____
ROOT
ATOM      1  O   UNL     1     -34.836  21.086   1.846  0.00  0.00    -0.333 OA
ATOM      2  C   UNL     1     -36.778  21.132   0.503  0.00  0.00    +0.171 C 
ATOM      3  C   UNL     1     -37.170  21.582   1.893  0.00  0.00    +0.187 C 
ATOM      4  C   UNL     1     -35.278  21.384   0.511  0.00  0.00    +0.176 C 
ATOM      5  C   UNL     1     -35.983  21.109   2.716  0.00  0.00    +0.223 C 
ENDROOT
BRANCH   5   6
ATOM      6  N   UNL     1     -35.774  22.005   3.881  0.00  0.00    -0.279 N 
ATOM      7  C   UNL     1     -36.128  23.300   3.785  0.00  0.00    +0.124 C 
ATOM      8  C   UNL     1     -35.234  21.504   5.006  0.00  0.00    +0.063 C 
ATOM      9  C   UNL     1     -35.945  24.161   4.857  0.00  0.00    +0.051 C 
ATOM     10  C   UNL     1     -35.028  22.319   6.111  0.00  0.00    +0.016 C 
ATOM     11  C   UNL     1     -35.387  23.661   6.031  0.00  0.00    +0.003 C 
BRANCH   9  14
ATOM     12  O   UNL     1     -35.621  26.463   5.236  0.00  0.00    -0.271 OA
ATOM     13  N   UNL     1     -37.508  25.861   4.081  0.00  0.00    -0.326 N 
ATOM     14  C   UNL     1     -36.328  25.558   4.755  0.00  0.00    +0.240 C 
ATOM     15  H   UNL     1     -37.799  26.797   3.992  0.00  0.00    +0.145 HD
ATOM     16  H   UNL     1     -38.052  25.138   3.694  0.00  0.00    +0.145 HD
ENDBRANCH   9  14
ENDBRANCH   5   6
BRANCH   2  17
ATOM     17  O   UNL     1     -37.439  21.901  -0.484  0.00  0.00    -0.379 OA
ATOM     18  H   UNL     1     -37.690  21.329  -1.225  0.00  0.00    +0.211 HD
ENDBRANCH   2  17
BRANCH   3  19
ATOM     19  O   UNL     1     -38.364  20.955   2.326  0.00  0.00    -0.378 OA
ATOM     20  H   UNL     1     -38.542  20.180   1.772  0.00  0.00    +0.211 HD
ENDBRANCH   3  19
BRANCH   4  21
ATOM     21  C   UNL     1     -34.517  20.523  -0.480  0.00  0.00    +0.186 C 
BRANCH  21  22
ATOM     22  O   UNL     1     -34.989  19.188  -0.385  0.00  0.00    -0.271 OA
BRANCH  22  23
ATOM     23  P   UNL     1     -33.947  18.031   0.054  0.00  0.00    +0.473 P 
ATOM     24  O   UNL     1     -32.794  17.827  -0.884  0.00  0.00    -0.227 OA
BRANCH  23  25
ATOM     25  O   UNL     1     -34.886  16.736   0.288  0.00  0.00    -0.303 OA
ATOM     26  H   UNL     1     -34.662  16.051  -0.362  0.00  0.00    +0.222 HD
ENDBRANCH  23  25
BRANCH  23  27
ATOM     27  O   UNL     1     -33.536  18.469   1.556  0.00  0.00    -0.303 OA
ATOM     28  H   UNL     1     -34.062  19.238   1.824  0.00  0.00    +0.222 HD
ENDBRANCH  23  27
ENDBRANCH  22  23
ENDBRANCH  21  22
ENDBRANCH   4  21
TORSDOF 9
ENDMDL
MODEL 7
REMARK VINA RESULT:      -6.1      3.547      5.663
REMARK  Name = 6093202
REMARK  9 active torsions:
REMARK  status: ('A' for Active; 'I' for Inactive)
REMARK    1  A    between atoms: C_2  and  O_17
REMARK    2  A    between atoms: C_3  and  O_19
REMARK    3  A    between atoms: C_4  and  C_21
REMARK    4  A    between atoms: C_5  and  N_6
REMARK    5  A    between atoms: C_9  and  C_14
REMARK    6  A    between atoms: C_21  and  O_22
REMARK    7  A    between atoms: O_22  and  P_23
REMARK    8  A    between atoms: P_23  and  O_25
REMARK    9  A    between atoms: P_23  and  O_27
REMARK                            x       y       z     vdW  Elec       q    Type
REMARK                         _______ _______ _______ _____ _____    ______ ____
ROOT
ATOM      1  O   UNL     1     -35.167  22.783   1.272  0.00  0.00    -0.333 OA
ATOM      2  C   UNL     1     -36.369  22.187   3.216  0.00  0.00    +0.171 C 
ATOM      3  C   UNL     1     -35.743  20.927   2.659  0.00  0.00    +0.187 C 
ATOM      4  C   UNL     1     -35.502  23.265   2.584  0.00  0.00    +0.176 C 
ATOM      5  C   UNL     1     -35.386  21.360   1.246  0.00  0.00    +0.223 C 
ENDROOT
BRANCH   5   6
ATOM      6  N   UNL     1     -34.186  20.626   0.770  0.00  0.00    -0.279 N 
ATOM      7  C   UNL     1     -34.172  19.282   0.829  0.00  0.00    +0.124 C 
ATOM      8  C   UNL     1     -33.139  21.321   0.291  0.00  0.00    +0.063 C 
ATOM      9  C   UNL     1     -33.064  18.570   0.392  0.00  0.00    +0.051 C 
ATOM     10  C   UNL     1     -32.005  20.662  -0.161  0.00  0.00    +0.016 C 
ATOM     11  C   UNL     1     -31.971  19.272  -0.107  0.00  0.00    +0.003 C 
BRANCH   9  14
ATOM     12  O   UNL     1     -31.992  16.488   0.643  0.00  0.00    -0.271 OA
ATOM     13  N   UNL     1     -34.261  16.449   0.315  0.00  0.00    -0.326 N 
ATOM     14  C   UNL     1     -33.049  17.119   0.455  0.00  0.00    +0.240 C 
ATOM     15  H   UNL     1     -34.288  15.466   0.353  0.00  0.00    +0.145 HD
ATOM     16  H   UNL     1     -35.092  16.960   0.179  0.00  0.00    +0.145 HD
ENDBRANCH   9  14
ENDBRANCH   5   6
BRANCH   2  17
ATOM     17  O   UNL     1     -36.295  22.207   4.629  0.00  0.00    -0.379 OA
ATOM     18  H   UNL     1     -35.464  21.799   4.915  0.00  0.00    +0.211 HD
ENDBRANCH   2  17
BRANCH   3  19
ATOM     19  O   UNL     1     -36.664  19.852   2.638  0.00  0.00    -0.378 OA
ATOM     20  H   UNL     1     -36.582  19.371   1.800  0.00  0.00    +0.211 HD
ENDBRANCH   3  19
BRANCH   4  21
ATOM     21  C   UNL     1     -36.199  24.608   2.469  0.00  0.00    +0.186 C 
BRANCH  21  22
ATOM     22  O   UNL     1     -36.705  24.973   3.743  0.00  0.00    -0.271 OA
BRANCH  22  23
ATOM     23  P   UNL     1     -35.708  25.706   4.786  0.00  0.00    +0.473 P 
ATOM     24  O   UNL     1     -34.894  24.780   5.642  0.00  0.00    -0.227 OA
BRANCH  23  25
ATOM     25  O   UNL     1     -36.674  26.722   5.592  0.00  0.00    -0.303 OA
ATOM     26  H   UNL     1     -36.500  27.632   5.302  0.00  0.00    +0.222 HD
ENDBRANCH  23  25
BRANCH  23  27
ATOM     27  O   UNL     1     -34.847  26.688   3.832  0.00  0.00    -0.303 OA
ATOM     28  H   UNL     1     -34.455  27.395   4.368  0.00  0.00    +0.222 HD
ENDBRANCH  23  27
ENDBRANCH  22  23
ENDBRANCH  21  22
ENDBRANCH   4  21
TORSDOF 9
ENDMDL
MODEL 8
REMARK VINA RESULT:      -6.1      4.406      6.368
REMARK  Name = 6093202
REMARK  9 active torsions:
REMARK  status: ('A' for Active; 'I' for Inactive)
REMARK    1  A    between atoms: C_2  and  O_17
REMARK    2  A    between atoms: C_3  and  O_19
REMARK    3  A    between atoms: C_4  and  C_21
REMARK    4  A    between atoms: C_5  and  N_6
REMARK    5  A    between atoms: C_9  and  C_14
REMARK    6  A    between atoms: C_21  and  O_22
REMARK    7  A    between atoms: O_22  and  P_23
REMARK    8  A    between atoms: P_23  and  O_25
REMARK    9  A    between atoms: P_23  and  O_27
REMARK                            x       y       z     vdW  Elec       q    Type
REMARK                         _______ _______ _______ _____ _____    ______ ____
ROOT
ATOM      1  O   UNL     1     -39.017  24.803   3.837  0.00  0.00    -0.333 OA
ATOM      2  C   UNL     1     -38.620  26.376   2.121  0.00  0.00    +0.171 C 
ATOM      3  C   UNL     1     -37.277  25.871   2.601  0.00  0.00    +0.187 C 
ATOM      4  C   UNL     1     -39.548  25.263   2.583  0.00  0.00    +0.176 C 
ATOM      5  C   UNL     1     -37.646  25.232   3.930  0.00  0.00    +0.223 C 
ENDROOT
BRANCH   5   6
ATOM      6  N   UNL     1     -36.733  24.100   4.227  0.00  0.00    -0.279 N 
ATOM      7  C   UNL     1     -36.741  23.020   3.424  0.00  0.00    +0.124 C 
ATOM      8  C   UNL     1     -35.917  24.177   5.294  0.00  0.00    +0.063 C 
ATOM      9  C   UNL     1     -35.898  21.947   3.678  0.00  0.00    +0.051 C 
ATOM     10  C   UNL     1     -35.052  23.134   5.596  0.00  0.00    +0.016 C 
ATOM     11  C   UNL     1     -35.047  22.009   4.777  0.00  0.00    +0.003 C 
BRANCH   9  14
ATOM     12  O   UNL     1     -34.875  20.116   2.608  0.00  0.00    -0.271 OA
ATOM     13  N   UNL     1     -37.114  20.419   2.221  0.00  0.00    -0.326 N 
ATOM     14  C   UNL     1     -35.906  20.783   2.810  0.00  0.00    +0.240 C 
ATOM     15  H   UNL     1     -37.157  19.635   1.627  0.00  0.00    +0.145 HD
ATOM     16  H   UNL     1     -37.926  20.947   2.398  0.00  0.00    +0.145 HD
ENDBRANCH   9  14
ENDBRANCH   5   6
BRANCH   2  17
ATOM     17  O   UNL     1     -38.631  26.525   0.713  0.00  0.00    -0.379 OA
ATOM     18  H   UNL     1     -38.185  27.351   0.472  0.00  0.00    +0.211 HD
ENDBRANCH   2  17
BRANCH   3  19
ATOM     19  O   UNL     1     -36.359  26.932   2.791  0.00  0.00    -0.378 OA
ATOM     20  H   UNL     1     -36.153  27.339   1.935  0.00  0.00    +0.211 HD
ENDBRANCH   3  19
BRANCH   4  21
ATOM     21  C   UNL     1     -40.983  25.717   2.776  0.00  0.00    +0.186 C 
BRANCH  21  22
ATOM     22  O   UNL     1     -41.051  27.120   2.576  0.00  0.00    -0.271 OA
BRANCH  22  23
ATOM     23  P   UNL     1     -42.343  27.917   3.137  0.00  0.00    +0.473 P 
ATOM     24  O   UNL     1     -43.605  27.108   3.209  0.00  0.00    -0.227 OA
BRANCH  23  25
ATOM     25  O   UNL     1     -42.418  29.234   2.203  0.00  0.00    -0.303 OA
ATOM     26  H   UNL     1     -43.246  29.225   1.695  0.00  0.00    +0.222 HD
ENDBRANCH  23  25
BRANCH  23  27
ATOM     27  O   UNL     1     -41.821  28.496   4.554  0.00  0.00    -0.303 OA
ATOM     28  H   UNL     1     -41.781  27.775   5.202  0.00  0.00    +0.222 HD
ENDBRANCH  23  27
ENDBRANCH  22  23
ENDBRANCH  21  22
ENDBRANCH   4  21
TORSDOF 9
ENDMDL
MODEL 9
REMARK VINA RESULT:      -6.1      4.038      6.184
REMARK  Name = 6093202
REMARK  9 active torsions:
REMARK  status: ('A' for Active; 'I' for Inactive)
REMARK    1  A    between atoms: C_2  and  O_17
REMARK    2  A    between atoms: C_3  and  O_19
REMARK    3  A    between atoms: C_4  and  C_21
REMARK    4  A    between atoms: C_5  and  N_6
REMARK    5  A    between atoms: C_9  and  C_14
REMARK    6  A    between atoms: C_21  and  O_22
REMARK    7  A    between atoms: O_22  and  P_23
REMARK    8  A    between atoms: P_23  and  O_25
REMARK    9  A    between atoms: P_23  and  O_27
REMARK                            x       y       z     vdW  Elec       q    Type
REMARK                         _______ _______ _______ _____ _____    ______ ____
ROOT
ATOM      1  O   UNL     1     -34.839  22.262   1.026  0.00  0.00    -0.333 OA
ATOM      2  C   UNL     1     -36.264  21.979   2.888  0.00  0.00    +0.171 C 
ATOM      3  C   UNL     1     -35.777  20.609   2.471  0.00  0.00    +0.187 C 
ATOM      4  C   UNL     1     -35.207  22.881   2.269  0.00  0.00    +0.176 C 
ATOM      5  C   UNL     1     -35.252  20.883   1.070  0.00  0.00    +0.223 C 
ENDROOT
BRANCH   5   6
ATOM      6  N   UNL     1     -34.132  19.962   0.752  0.00  0.00    -0.279 N 
ATOM      7  C   UNL     1     -34.385  18.650   0.592  0.00  0.00    +0.124 C 
ATOM      8  C   UNL     1     -32.888  20.459   0.630  0.00  0.00    +0.063 C 
ATOM      9  C   UNL     1     -33.357  17.766   0.293  0.00  0.00    +0.051 C 
ATOM     10  C   UNL     1     -31.821  19.622   0.332  0.00  0.00    +0.016 C 
ATOM     11  C   UNL     1     -32.063  18.262   0.163  0.00  0.00    +0.003 C 
BRANCH   9  14
ATOM     12  O   UNL     1     -32.712  15.528  -0.052  0.00  0.00    -0.271 OA
ATOM     13  N   UNL     1     -34.958  15.933   0.170  0.00  0.00    -0.326 N 
ATOM     14  C   UNL     1     -33.631  16.350   0.120  0.00  0.00    +0.240 C 
ATOM     15  H   UNL     1     -35.180  14.981   0.057  0.00  0.00    +0.145 HD
ATOM     16  H   UNL     1     -35.675  16.591   0.320  0.00  0.00    +0.145 HD
ENDBRANCH   9  14
ENDBRANCH   5   6
BRANCH   2  17
ATOM     17  O   UNL     1     -36.300  22.096   4.298  0.00  0.00    -0.379 OA
ATOM     18  H   UNL     1     -35.405  21.986   4.655  0.00  0.00    +0.211 HD
ENDBRANCH   2  17
BRANCH   3  19
ATOM     19  O   UNL     1     -36.834  19.668   2.436  0.00  0.00    -0.378 OA
ATOM     20  H   UNL     1     -36.693  19.049   1.703  0.00  0.00    +0.211 HD
ENDBRANCH   3  19
BRANCH   4  21
ATOM     21  C   UNL     1     -35.699  24.293   2.007  0.00  0.00    +0.186 C 
BRANCH  21  22
ATOM     22  O   UNL     1     -35.699  25.013   3.229  0.00  0.00    -0.271 OA
BRANCH  22  23
ATOM     23  P   UNL     1     -37.105  25.588   3.785  0.00  0.00    +0.473 P 
ATOM     24  O   UNL     1     -38.175  24.557   3.989  0.00  0.00    -0.227 OA
BRANCH  23  25
ATOM     25  O   UNL     1     -37.475  26.772   2.747  0.00  0.00    -0.303 OA
ATOM     26  H   UNL     1     -38.181  27.323   3.122  0.00  0.00    +0.222 HD
ENDBRANCH  23  25
BRANCH  23  27
ATOM     27  O   UNL     1     -36.665  26.389   5.120  0.00  0.00    -0.303 OA
ATOM     28  H   UNL     1     -36.172  25.793   5.705  0.00  0.00    +0.222 HD
ENDBRANCH  23  27
ENDBRANCH  22  23
ENDBRANCH  21  22
ENDBRANCH   4  21
TORSDOF 9
ENDMDL
