MODEL 1
REMARK VINA RESULT:      -5.8      0.000      0.000
REMARK  Name = 5281123
REMARK  11 active torsions:
REMARK  status: ('A' for Active; 'I' for Inactive)
REMARK    1  A    between atoms: C_2  and  O_7
REMARK    2  A    between atoms: C_3  and  O_9
REMARK    3  A    between atoms: C_4  and  O_11
REMARK    4  A    between atoms: C_5  and  C_22
REMARK    5  A    between atoms: C_6  and  O_13
REMARK    6  A    between atoms: O_13  and  C_14
REMARK    7  A    between atoms: C_14  and  C_15
REMARK    8  A    between atoms: C_16  and  C_18
REMARK    9  A    between atoms: C_16  and  C_19
REMARK   10  A    between atoms: C_19  and  O_20
REMARK   11  A    between atoms: C_22  and  O_23
REMARK                            x       y       z     vdW  Elec       q    Type
REMARK                         _______ _______ _______ _____ _____    ______ ____
ROOT
ATOM      1  O   UNL     1     -36.837  23.672   4.701  0.00  0.00    -0.326 OA
ATOM      2  C   UNL     1     -35.471  26.088   3.963  0.00  0.00    +0.172 C 
ATOM      3  C   UNL     1     -34.926  25.128   5.021  0.00  0.00    +0.169 C 
ATOM      4  C   UNL     1     -36.980  25.916   3.785  0.00  0.00    +0.196 C 
ATOM      5  C   UNL     1     -35.410  23.700   4.759  0.00  0.00    +0.176 C 
ATOM      6  C   UNL     1     -37.356  24.443   3.620  0.00  0.00    +0.266 C 
ENDROOT
BRANCH   2   7
ATOM      7  O   UNL     1     -35.192  27.421   4.391  0.00  0.00    -0.379 OA
ATOM      8  H   UNL     1     -35.389  27.506   5.336  0.00  0.00    +0.211 HD
ENDBRANCH   2   7
BRANCH   3   9
ATOM      9  O   UNL     1     -33.501  25.155   4.992  0.00  0.00    -0.379 OA
ATOM     10  H   UNL     1     -33.185  24.640   4.233  0.00  0.00    +0.211 HD
ENDBRANCH   3   9
BRANCH   4  11
ATOM     11  O   UNL     1     -37.402  26.618   2.616  0.00  0.00    -0.378 OA
ATOM     12  H   UNL     1     -38.012  26.062   2.107  0.00  0.00    +0.211 HD
ENDBRANCH   4  11
BRANCH   6  13
ATOM     13  O   UNL     1     -38.780  24.353   3.604  0.00  0.00    -0.324 OA
BRANCH  13  14
ATOM     14  C   UNL     1     -39.237  23.589   2.499  0.00  0.00    +0.172 C 
BRANCH  14  15
ATOM     15  C   UNL     1     -38.224  22.526   2.202  0.00  0.00    +0.014 C 
ATOM     16  C   UNL     1     -38.395  21.417   1.459  0.00  0.00    +0.074 C 
BRANCH  16  18
ATOM     17  N   UNL     1     -40.678  20.893   0.355  0.00  0.00    -0.191 NA
ATOM     18  C   UNL     1     -39.653  21.123   0.848  0.00  0.00    +0.098 C 
ENDBRANCH  16  18
BRANCH  16  19
ATOM     19  C   UNL     1     -37.269  20.433   1.274  0.00  0.00    +0.174 C 
BRANCH  19  20
ATOM     20  O   UNL     1     -36.933  19.857   2.530  0.00  0.00    -0.377 OA
ATOM     21  H   UNL     1     -36.025  19.515   2.498  0.00  0.00    +0.211 HD
ENDBRANCH  19  20
ENDBRANCH  16  19
ENDBRANCH  14  15
ENDBRANCH  13  14
ENDBRANCH   6  13
BRANCH   5  22
ATOM     22  C   UNL     1     -34.975  22.744   5.866  0.00  0.00    +0.169 C 
BRANCH  22  23
ATOM     23  O   UNL     1     -36.108  22.016   6.303  0.00  0.00    -0.379 OA
ATOM     24  H   UNL     1     -36.381  21.396   5.610  0.00  0.00    +0.211 HD
ENDBRANCH  22  23
ENDBRANCH   5  22
TORSDOF 11
ENDMDL
MODEL 2
REMARK VINA RESULT:      -5.6      3.944      6.895
REMARK  Name = 5281123
REMARK  11 active torsions:
REMARK  status: ('A' for Active; 'I' for Inactive)
REMARK    1  A    between atoms: C_2  and  O_7
REMARK    2  A    between atoms: C_3  and  O_9
REMARK    3  A    between atoms: C_4  and  O_11
REMARK    4  A    between atoms: C_5  and  C_22
REMARK    5  A    between atoms: C_6  and  O_13
REMARK    6  A    between atoms: O_13  and  C_14
REMARK    7  A    between atoms: C_14  and  C_15
REMARK    8  A    between atoms: C_16  and  C_18
REMARK    9  A    between atoms: C_16  and  C_19
REMARK   10  A    between atoms: C_19  and  O_20
REMARK   11  A    between atoms: C_22  and  O_23
REMARK                            x       y       z     vdW  Elec       q    Type
REMARK                         _______ _______ _______ _____ _____    ______ ____
ROOT
ATOM      1  O   UNL     1     -34.925  24.203   5.669  0.00  0.00    -0.326 OA
ATOM      2  C   UNL     1     -36.686  24.163   3.400  0.00  0.00    +0.172 C 
ATOM      3  C   UNL     1     -35.920  22.924   3.866  0.00  0.00    +0.169 C 
ATOM      4  C   UNL     1     -36.013  25.446   3.888  0.00  0.00    +0.196 C 
ATOM      5  C   UNL     1     -35.630  22.998   5.367  0.00  0.00    +0.176 C 
ATOM      6  C   UNL     1     -35.690  25.371   5.381  0.00  0.00    +0.266 C 
ENDROOT
BRANCH   2   7
ATOM      7  O   UNL     1     -36.713  24.154   1.972  0.00  0.00    -0.379 OA
ATOM      8  H   UNL     1     -37.469  23.629   1.667  0.00  0.00    +0.211 HD
ENDBRANCH   2   7
BRANCH   3   9
ATOM      9  O   UNL     1     -36.697  21.760   3.593  0.00  0.00    -0.379 OA
ATOM     10  H   UNL     1     -36.366  21.020   4.125  0.00  0.00    +0.211 HD
ENDBRANCH   3   9
BRANCH   4  11
ATOM     11  O   UNL     1     -36.889  26.551   3.675  0.00  0.00    -0.378 OA
ATOM     12  H   UNL     1     -37.192  26.893   4.531  0.00  0.00    +0.211 HD
ENDBRANCH   4  11
BRANCH   6  13
ATOM     13  O   UNL     1     -34.940  26.535   5.727  0.00  0.00    -0.324 OA
BRANCH  13  14
ATOM     14  C   UNL     1     -33.546  26.271   5.721  0.00  0.00    +0.172 C 
BRANCH  14  15
ATOM     15  C   UNL     1     -32.853  27.346   6.502  0.00  0.00    +0.014 C 
ATOM     16  C   UNL     1     -32.084  28.341   6.022  0.00  0.00    +0.074 C 
BRANCH  16  18
ATOM     17  N   UNL     1     -31.627  28.564   3.482  0.00  0.00    -0.191 NA
ATOM     18  C   UNL     1     -31.831  28.469   4.621  0.00  0.00    +0.098 C 
ENDBRANCH  16  18
BRANCH  16  19
ATOM     19  C   UNL     1     -31.441  29.335   6.953  0.00  0.00    +0.174 C 
BRANCH  19  20
ATOM     20  O   UNL     1     -30.092  28.955   7.192  0.00  0.00    -0.377 OA
ATOM     21  H   UNL     1     -29.499  29.521   6.674  0.00  0.00    +0.211 HD
ENDBRANCH  19  20
ENDBRANCH  16  19
ENDBRANCH  14  15
ENDBRANCH  13  14
ENDBRANCH   6  13
BRANCH   5  22
ATOM     22  C   UNL     1     -34.767  21.830   5.833  0.00  0.00    +0.169 C 
BRANCH  22  23
ATOM     23  O   UNL     1     -35.586  20.680   5.945  0.00  0.00    -0.379 OA
ATOM     24  H   UNL     1     -35.843  20.379   5.060  0.00  0.00    +0.211 HD
ENDBRANCH  22  23
ENDBRANCH   5  22
TORSDOF 11
ENDMDL
MODEL 3
REMARK VINA RESULT:      -5.5      4.352      7.540
REMARK  Name = 5281123
REMARK  11 active torsions:
REMARK  status: ('A' for Active; 'I' for Inactive)
REMARK    1  A    between atoms: C_2  and  O_7
REMARK    2  A    between atoms: C_3  and  O_9
REMARK    3  A    between atoms: C_4  and  O_11
REMARK    4  A    between atoms: C_5  and  C_22
REMARK    5  A    between atoms: C_6  and  O_13
REMARK    6  A    between atoms: O_13  and  C_14
REMARK    7  A    between atoms: C_14  and  C_15
REMARK    8  A    between atoms: C_16  and  C_18
REMARK    9  A    between atoms: C_16  and  C_19
REMARK   10  A    between atoms: C_19  and  O_20
REMARK   11  A    between atoms: C_22  and  O_23
REMARK                            x       y       z     vdW  Elec       q    Type
REMARK                         _______ _______ _______ _____ _____    ______ ____
ROOT
ATOM      1  O   UNL     1     -34.045  24.723   5.376  0.00  0.00    -0.326 OA
ATOM      2  C   UNL     1     -36.193  25.796   3.800  0.00  0.00    +0.172 C 
ATOM      3  C   UNL     1     -36.043  24.299   4.070  0.00  0.00    +0.169 C 
ATOM      4  C   UNL     1     -34.860  26.525   3.966  0.00  0.00    +0.196 C 
ATOM      5  C   UNL     1     -35.309  24.057   5.391  0.00  0.00    +0.176 C 
ATOM      6  C   UNL     1     -34.175  26.140   5.278  0.00  0.00    +0.266 C 
ENDROOT
BRANCH   2   7
ATOM      7  O   UNL     1     -36.660  25.958   2.460  0.00  0.00    -0.379 OA
ATOM      8  H   UNL     1     -37.182  25.183   2.203  0.00  0.00    +0.211 HD
ENDBRANCH   2   7
BRANCH   3   9
ATOM      9  O   UNL     1     -37.335  23.700   4.133  0.00  0.00    -0.379 OA
ATOM     10  H   UNL     1     -37.893  24.200   4.748  0.00  0.00    +0.211 HD
ENDBRANCH   3   9
BRANCH   4  11
ATOM     11  O   UNL     1     -35.089  27.934   3.979  0.00  0.00    -0.378 OA
ATOM     12  H   UNL     1     -35.271  28.240   3.077  0.00  0.00    +0.211 HD
ENDBRANCH   4  11
BRANCH   6  13
ATOM     13  O   UNL     1     -32.883  26.744   5.293  0.00  0.00    -0.324 OA
BRANCH  13  14
ATOM     14  C   UNL     1     -32.647  27.430   6.513  0.00  0.00    +0.172 C 
BRANCH  14  15
ATOM     15  C   UNL     1     -31.408  28.258   6.363  0.00  0.00    +0.014 C 
ATOM     16  C   UNL     1     -31.275  29.420   5.697  0.00  0.00    +0.074 C 
BRANCH  16  18
ATOM     17  N   UNL     1     -33.286  30.485   4.460  0.00  0.00    -0.191 NA
ATOM     18  C   UNL     1     -32.381  30.010   5.011  0.00  0.00    +0.098 C 
ENDBRANCH  16  18
BRANCH  16  19
ATOM     19  C   UNL     1     -29.943  30.120   5.628  0.00  0.00    +0.174 C 
BRANCH  19  20
ATOM     20  O   UNL     1     -30.103  31.383   4.996  0.00  0.00    -0.377 OA
ATOM     21  H   UNL     1     -31.036  31.648   5.034  0.00  0.00    +0.211 HD
ENDBRANCH  19  20
ENDBRANCH  16  19
ENDBRANCH  14  15
ENDBRANCH  13  14
ENDBRANCH   6  13
BRANCH   5  22
ATOM     22  C   UNL     1     -35.044  22.573   5.626  0.00  0.00    +0.169 C 
BRANCH  22  23
ATOM     23  O   UNL     1     -36.132  22.029   6.351  0.00  0.00    -0.379 OA
ATOM     24  H   UNL     1     -36.523  21.298   5.848  0.00  0.00    +0.211 HD
ENDBRANCH  22  23
ENDBRANCH   5  22
TORSDOF 11
ENDMDL
MODEL 4
REMARK VINA RESULT:      -5.4      2.866      5.687
REMARK  Name = 5281123
REMARK  11 active torsions:
REMARK  status: ('A' for Active; 'I' for Inactive)
REMARK    1  A    between atoms: C_2  and  O_7
REMARK    2  A    between atoms: C_3  and  O_9
REMARK    3  A    between atoms: C_4  and  O_11
REMARK    4  A    between atoms: C_5  and  C_22
REMARK    5  A    between atoms: C_6  and  O_13
REMARK    6  A    between atoms: O_13  and  C_14
REMARK    7  A    between atoms: C_14  and  C_15
REMARK    8  A    between atoms: C_16  and  C_18
REMARK    9  A    between atoms: C_16  and  C_19
REMARK   10  A    between atoms: C_19  and  O_20
REMARK   11  A    between atoms: C_22  and  O_23
REMARK                            x       y       z     vdW  Elec       q    Type
REMARK                         _______ _______ _______ _____ _____    ______ ____
ROOT
ATOM      1  O   UNL     1     -37.484  23.796   2.083  0.00  0.00    -0.326 OA
ATOM      2  C   UNL     1     -39.518  21.963   1.213  0.00  0.00    +0.172 C 
ATOM      3  C   UNL     1     -39.840  23.233   2.002  0.00  0.00    +0.169 C 
ATOM      4  C   UNL     1     -38.068  21.530   1.431  0.00  0.00    +0.196 C 
ATOM      5  C   UNL     1     -38.778  24.308   1.759  0.00  0.00    +0.176 C 
ATOM      6  C   UNL     1     -37.104  22.703   1.249  0.00  0.00    +0.266 C 
ENDROOT
BRANCH   2   7
ATOM      7  O   UNL     1     -40.395  20.930   1.662  0.00  0.00    -0.379 OA
ATOM      8  H   UNL     1     -39.891  20.275   2.168  0.00  0.00    +0.211 HD
ENDBRANCH   2   7
BRANCH   3   9
ATOM      9  O   UNL     1     -41.113  23.729   1.595  0.00  0.00    -0.379 OA
ATOM     10  H   UNL     1     -41.295  24.564   2.053  0.00  0.00    +0.211 HD
ENDBRANCH   3   9
BRANCH   4  11
ATOM     11  O   UNL     1     -37.727  20.521   0.481  0.00  0.00    -0.378 OA
ATOM     12  H   UNL     1     -37.870  19.646   0.874  0.00  0.00    +0.211 HD
ENDBRANCH   4  11
BRANCH   6  13
ATOM     13  O   UNL     1     -35.796  22.257   1.607  0.00  0.00    -0.324 OA
BRANCH  13  14
ATOM     14  C   UNL     1     -35.205  23.113   2.572  0.00  0.00    +0.172 C 
BRANCH  14  15
ATOM     15  C   UNL     1     -35.205  22.411   3.896  0.00  0.00    +0.014 C 
ATOM     16  C   UNL     1     -35.510  22.933   5.099  0.00  0.00    +0.074 C 
BRANCH  16  18
ATOM     17  N   UNL     1     -36.175  25.425   5.341  0.00  0.00    -0.191 NA
ATOM     18  C   UNL     1     -35.880  24.307   5.237  0.00  0.00    +0.098 C 
ENDBRANCH  16  18
BRANCH  16  19
ATOM     19  C   UNL     1     -35.441  22.088   6.345  0.00  0.00    +0.174 C 
BRANCH  19  20
ATOM     20  O   UNL     1     -35.418  20.714   5.983  0.00  0.00    -0.377 OA
ATOM     21  H   UNL     1     -36.225  20.495   5.490  0.00  0.00    +0.211 HD
ENDBRANCH  19  20
ENDBRANCH  16  19
ENDBRANCH  14  15
ENDBRANCH  13  14
ENDBRANCH   6  13
BRANCH   5  22
ATOM     22  C   UNL     1     -39.015  25.542   2.624  0.00  0.00    +0.169 C 
BRANCH  22  23
ATOM     23  O   UNL     1     -39.007  25.146   3.984  0.00  0.00    -0.379 OA
ATOM     24  H   UNL     1     -38.992  24.179   4.040  0.00  0.00    +0.211 HD
ENDBRANCH  22  23
ENDBRANCH   5  22
TORSDOF 11
ENDMDL
MODEL 5
REMARK VINA RESULT:      -5.4      3.829      6.258
REMARK  Name = 5281123
REMARK  11 active torsions:
REMARK  status: ('A' for Active; 'I' for Inactive)
REMARK    1  A    between atoms: C_2  and  O_7
REMARK    2  A    between atoms: C_3  and  O_9
REMARK    3  A    between atoms: C_4  and  O_11
REMARK    4  A    between atoms: C_5  and  C_22
REMARK    5  A    between atoms: C_6  and  O_13
REMARK    6  A    between atoms: O_13  and  C_14
REMARK    7  A    between atoms: C_14  and  C_15
REMARK    8  A    between atoms: C_16  and  C_18
REMARK    9  A    between atoms: C_16  and  C_19
REMARK   10  A    between atoms: C_19  and  O_20
REMARK   11  A    between atoms: C_22  and  O_23
REMARK                            x       y       z     vdW  Elec       q    Type
REMARK                         _______ _______ _______ _____ _____    ______ ____
ROOT
ATOM      1  O   UNL     1     -32.637  28.019   3.949  0.00  0.00    -0.326 OA
ATOM      2  C   UNL     1     -31.848  29.162   6.463  0.00  0.00    +0.172 C 
ATOM      3  C   UNL     1     -31.505  29.813   5.123  0.00  0.00    +0.169 C 
ATOM      4  C   UNL     1     -32.128  27.668   6.298  0.00  0.00    +0.196 C 
ATOM      5  C   UNL     1     -32.540  29.441   4.058  0.00  0.00    +0.176 C 
ATOM      6  C   UNL     1     -33.105  27.410   5.151  0.00  0.00    +0.266 C 
ENDROOT
BRANCH   2   7
ATOM      7  O   UNL     1     -30.735  29.343   7.339  0.00  0.00    -0.379 OA
ATOM      8  H   UNL     1     -30.098  29.951   6.932  0.00  0.00    +0.211 HD
ENDBRANCH   2   7
BRANCH   3   9
ATOM      9  O   UNL     1     -31.481  31.230   5.280  0.00  0.00    -0.379 OA
ATOM     10  H   UNL     1     -32.247  31.510   5.803  0.00  0.00    +0.211 HD
ENDBRANCH   3   9
BRANCH   4  11
ATOM     11  O   UNL     1     -32.704  27.159   7.499  0.00  0.00    -0.378 OA
ATOM     12  H   UNL     1     -33.668  27.267   7.467  0.00  0.00    +0.211 HD
ENDBRANCH   4  11
BRANCH   6  13
ATOM     13  O   UNL     1     -33.203  25.998   4.967  0.00  0.00    -0.324 OA
BRANCH  13  14
ATOM     14  C   UNL     1     -34.549  25.595   4.772  0.00  0.00    +0.172 C 
BRANCH  14  15
ATOM     15  C   UNL     1     -34.837  24.436   5.678  0.00  0.00    +0.014 C 
ATOM     16  C   UNL     1     -35.180  23.184   5.322  0.00  0.00    +0.074 C 
BRANCH  16  18
ATOM     17  N   UNL     1     -35.424  22.522   2.830  0.00  0.00    -0.191 NA
ATOM     18  C   UNL     1     -35.320  22.818   3.948  0.00  0.00    +0.098 C 
ENDBRANCH  16  18
BRANCH  16  19
ATOM     19  C   UNL     1     -35.456  22.135   6.368  0.00  0.00    +0.174 C 
BRANCH  19  20
ATOM     20  O   UNL     1     -35.368  20.845   5.779  0.00  0.00    -0.377 OA
ATOM     21  H   UNL     1     -35.428  20.167   6.471  0.00  0.00    +0.211 HD
ENDBRANCH  19  20
ENDBRANCH  16  19
ENDBRANCH  14  15
ENDBRANCH  13  14
ENDBRANCH   6  13
BRANCH   5  22
ATOM     22  C   UNL     1     -32.157  29.983   2.684  0.00  0.00    +0.169 C 
BRANCH  22  23
ATOM     23  O   UNL     1     -32.406  31.377   2.664  0.00  0.00    -0.379 OA
ATOM     24  H   UNL     1     -32.826  31.643   3.497  0.00  0.00    +0.211 HD
ENDBRANCH  22  23
ENDBRANCH   5  22
TORSDOF 11
ENDMDL
MODEL 6
REMARK VINA RESULT:      -5.4      1.844      2.112
REMARK  Name = 5281123
REMARK  11 active torsions:
REMARK  status: ('A' for Active; 'I' for Inactive)
REMARK    1  A    between atoms: C_2  and  O_7
REMARK    2  A    between atoms: C_3  and  O_9
REMARK    3  A    between atoms: C_4  and  O_11
REMARK    4  A    between atoms: C_5  and  C_22
REMARK    5  A    between atoms: C_6  and  O_13
REMARK    6  A    between atoms: O_13  and  C_14
REMARK    7  A    between atoms: C_14  and  C_15
REMARK    8  A    between atoms: C_16  and  C_18
REMARK    9  A    between atoms: C_16  and  C_19
REMARK   10  A    between atoms: C_19  and  O_20
REMARK   11  A    between atoms: C_22  and  O_23
REMARK                            x       y       z     vdW  Elec       q    Type
REMARK                         _______ _______ _______ _____ _____    ______ ____
ROOT
ATOM      1  O   UNL     1     -36.647  23.056   4.057  0.00  0.00    -0.326 OA
ATOM      2  C   UNL     1     -35.607  25.732   4.115  0.00  0.00    +0.172 C 
ATOM      3  C   UNL     1     -35.560  24.807   5.331  0.00  0.00    +0.169 C 
ATOM      4  C   UNL     1     -36.699  25.302   3.134  0.00  0.00    +0.196 C 
ATOM      5  C   UNL     1     -35.527  23.340   4.896  0.00  0.00    +0.176 C 
ATOM      6  C   UNL     1     -36.624  23.803   2.842  0.00  0.00    +0.266 C 
ENDROOT
BRANCH   2   7
ATOM      7  O   UNL     1     -35.879  27.056   4.577  0.00  0.00    -0.379 OA
ATOM      8  H   UNL     1     -35.050  27.557   4.628  0.00  0.00    +0.211 HD
ENDBRANCH   2   7
BRANCH   3   9
ATOM      9  O   UNL     1     -34.393  25.097   6.097  0.00  0.00    -0.379 OA
ATOM     10  H   UNL     1     -33.625  24.667   5.691  0.00  0.00    +0.211 HD
ENDBRANCH   3   9
BRANCH   4  11
ATOM     11  O   UNL     1     -36.535  26.005   1.904  0.00  0.00    -0.378 OA
ATOM     12  H   UNL     1     -36.994  26.858   1.955  0.00  0.00    +0.211 HD
ENDBRANCH   4  11
BRANCH   6  13
ATOM     13  O   UNL     1     -37.752  23.454   2.041  0.00  0.00    -0.324 OA
BRANCH  13  14
ATOM     14  C   UNL     1     -38.336  22.236   2.473  0.00  0.00    +0.172 C 
BRANCH  14  15
ATOM     15  C   UNL     1     -38.200  21.225   1.376  0.00  0.00    +0.014 C 
ATOM     16  C   UNL     1     -37.197  20.346   1.190  0.00  0.00    +0.074 C 
BRANCH  16  18
ATOM     17  N   UNL     1     -35.170  20.262   2.801  0.00  0.00    -0.191 NA
ATOM     18  C   UNL     1     -36.082  20.299   2.083  0.00  0.00    +0.098 C 
ENDBRANCH  16  18
BRANCH  16  19
ATOM     19  C   UNL     1     -37.206  19.405   0.014  0.00  0.00    +0.174 C 
BRANCH  19  20
ATOM     20  O   UNL     1     -37.188  18.063   0.483  0.00  0.00    -0.377 OA
ATOM     21  H   UNL     1     -37.238  17.455  -0.272  0.00  0.00    +0.211 HD
ENDBRANCH  19  20
ENDBRANCH  16  19
ENDBRANCH  14  15
ENDBRANCH  13  14
ENDBRANCH   6  13
BRANCH   5  22
ATOM     22  C   UNL     1     -35.597  22.395   6.092  0.00  0.00    +0.169 C 
BRANCH  22  23
ATOM     23  O   UNL     1     -35.358  21.075   5.639  0.00  0.00    -0.379 OA
ATOM     24  H   UNL     1     -34.499  21.038   5.191  0.00  0.00    +0.211 HD
ENDBRANCH  22  23
ENDBRANCH   5  22
TORSDOF 11
ENDMDL
MODEL 7
REMARK VINA RESULT:      -5.4      1.704      1.879
REMARK  Name = 5281123
REMARK  11 active torsions:
REMARK  status: ('A' for Active; 'I' for Inactive)
REMARK    1  A    between atoms: C_2  and  O_7
REMARK    2  A    between atoms: C_3  and  O_9
REMARK    3  A    between atoms: C_4  and  O_11
REMARK    4  A    between atoms: C_5  and  C_22
REMARK    5  A    between atoms: C_6  and  O_13
REMARK    6  A    between atoms: O_13  and  C_14
REMARK    7  A    between atoms: C_14  and  C_15
REMARK    8  A    between atoms: C_16  and  C_18
REMARK    9  A    between atoms: C_16  and  C_19
REMARK   10  A    between atoms: C_19  and  O_20
REMARK   11  A    between atoms: C_22  and  O_23
REMARK                            x       y       z     vdW  Elec       q    Type
REMARK                         _______ _______ _______ _____ _____    ______ ____
ROOT
ATOM      1  O   UNL     1     -37.108  23.093   3.584  0.00  0.00    -0.326 OA
ATOM      2  C   UNL     1     -36.343  25.718   4.465  0.00  0.00    +0.172 C 
ATOM      3  C   UNL     1     -35.895  24.447   5.188  0.00  0.00    +0.169 C 
ATOM      4  C   UNL     1     -37.606  25.470   3.640  0.00  0.00    +0.196 C 
ATOM      5  C   UNL     1     -35.840  23.263   4.220  0.00  0.00    +0.176 C 
ATOM      6  C   UNL     1     -37.470  24.213   2.779  0.00  0.00    +0.266 C 
ENDROOT
BRANCH   2   7
ATOM      7  O   UNL     1     -36.607  26.717   5.450  0.00  0.00    -0.379 OA
ATOM      8  H   UNL     1     -35.844  27.310   5.522  0.00  0.00    +0.211 HD
ENDBRANCH   2   7
BRANCH   3   9
ATOM      9  O   UNL     1     -34.602  24.656   5.750  0.00  0.00    -0.379 OA
ATOM     10  H   UNL     1     -34.677  24.728   6.714  0.00  0.00    +0.211 HD
ENDBRANCH   3   9
BRANCH   4  11
ATOM     11  O   UNL     1     -37.834  26.581   2.775  0.00  0.00    -0.378 OA
ATOM     12  H   UNL     1     -37.062  26.706   2.200  0.00  0.00    +0.211 HD
ENDBRANCH   4  11
BRANCH   6  13
ATOM     13  O   UNL     1     -38.730  23.970   2.155  0.00  0.00    -0.324 OA
BRANCH  13  14
ATOM     14  C   UNL     1     -39.249  22.700   2.518  0.00  0.00    +0.172 C 
BRANCH  14  15
ATOM     15  C   UNL     1     -39.522  21.920   1.268  0.00  0.00    +0.014 C 
ATOM     16  C   UNL     1     -38.732  20.994   0.692  0.00  0.00    +0.074 C 
BRANCH  16  18
ATOM     17  N   UNL     1     -36.433  20.366   1.704  0.00  0.00    -0.191 NA
ATOM     18  C   UNL     1     -37.465  20.651   1.255  0.00  0.00    +0.098 C 
ENDBRANCH  16  18
BRANCH  16  19
ATOM     19  C   UNL     1     -39.151  20.313  -0.585  0.00  0.00    +0.174 C 
BRANCH  19  20
ATOM     20  O   UNL     1     -38.998  18.907  -0.443  0.00  0.00    -0.377 OA
ATOM     21  H   UNL     1     -39.536  18.453  -1.111  0.00  0.00    +0.211 HD
ENDBRANCH  19  20
ENDBRANCH  16  19
ENDBRANCH  14  15
ENDBRANCH  13  14
ENDBRANCH   6  13
BRANCH   5  22
ATOM     22  C   UNL     1     -35.508  21.960   4.941  0.00  0.00    +0.169 C 
BRANCH  22  23
ATOM     23  O   UNL     1     -36.062  22.011   6.243  0.00  0.00    -0.379 OA
ATOM     24  H   UNL     1     -36.419  21.141   6.478  0.00  0.00    +0.211 HD
ENDBRANCH  22  23
ENDBRANCH   5  22
TORSDOF 11
ENDMDL
MODEL 8
REMARK VINA RESULT:      -5.4      2.470      5.139
REMARK  Name = 5281123
REMARK  11 active torsions:
REMARK  status: ('A' for Active; 'I' for Inactive)
REMARK    1  A    between atoms: C_2  and  O_7
REMARK    2  A    between atoms: C_3  and  O_9
REMARK    3  A    between atoms: C_4  and  O_11
REMARK    4  A    between atoms: C_5  and  C_22
REMARK    5  A    between atoms: C_6  and  O_13
REMARK    6  A    between atoms: O_13  and  C_14
REMARK    7  A    between atoms: C_14  and  C_15
REMARK    8  A    between atoms: C_16  and  C_18
REMARK    9  A    between atoms: C_16  and  C_19
REMARK   10  A    between atoms: C_19  and  O_20
REMARK   11  A    between atoms: C_22  and  O_23
REMARK                            x       y       z     vdW  Elec       q    Type
REMARK                         _______ _______ _______ _____ _____    ______ ____
ROOT
ATOM      1  O   UNL     1     -38.334  23.723   2.391  0.00  0.00    -0.326 OA
ATOM      2  C   UNL     1     -40.844  25.023   1.881  0.00  0.00    +0.172 C 
ATOM      3  C   UNL     1     -40.356  23.831   1.058  0.00  0.00    +0.169 C 
ATOM      4  C   UNL     1     -39.678  25.738   2.565  0.00  0.00    +0.196 C 
ATOM      5  C   UNL     1     -39.421  22.945   1.886  0.00  0.00    +0.176 C 
ATOM      6  C   UNL     1     -38.763  24.747   3.285  0.00  0.00    +0.266 C 
ENDROOT
BRANCH   2   7
ATOM      7  O   UNL     1     -41.505  25.929   0.998  0.00  0.00    -0.379 OA
ATOM      8  H   UNL     1     -41.415  26.834   1.335  0.00  0.00    +0.211 HD
ENDBRANCH   2   7
BRANCH   3   9
ATOM      9  O   UNL     1     -41.478  23.062   0.632  0.00  0.00    -0.379 OA
ATOM     10  H   UNL     1     -42.234  23.651   0.482  0.00  0.00    +0.211 HD
ENDBRANCH   3   9
BRANCH   4  11
ATOM     11  O   UNL     1     -40.186  26.659   3.529  0.00  0.00    -0.378 OA
ATOM     12  H   UNL     1     -40.978  26.286   3.946  0.00  0.00    +0.211 HD
ENDBRANCH   4  11
BRANCH   6  13
ATOM     13  O   UNL     1     -37.631  25.467   3.771  0.00  0.00    -0.324 OA
BRANCH  13  14
ATOM     14  C   UNL     1     -36.424  24.770   3.506  0.00  0.00    +0.172 C 
BRANCH  14  15
ATOM     15  C   UNL     1     -36.046  23.988   4.727  0.00  0.00    +0.014 C 
ATOM     16  C   UNL     1     -35.693  22.690   4.791  0.00  0.00    +0.074 C 
BRANCH  16  18
ATOM     17  N   UNL     1     -35.627  21.209   2.668  0.00  0.00    -0.191 NA
ATOM     18  C   UNL     1     -35.653  21.876   3.618  0.00  0.00    +0.098 C 
ENDBRANCH  16  18
BRANCH  16  19
ATOM     19  C   UNL     1     -35.359  22.048   6.113  0.00  0.00    +0.174 C 
BRANCH  19  20
ATOM     20  O   UNL     1     -35.279  20.639   5.947  0.00  0.00    -0.377 OA
ATOM     21  H   UNL     1     -35.602  20.397   5.064  0.00  0.00    +0.211 HD
ENDBRANCH  19  20
ENDBRANCH  16  19
ENDBRANCH  14  15
ENDBRANCH  13  14
ENDBRANCH   6  13
BRANCH   5  22
ATOM     22  C   UNL     1     -38.830  21.814   1.051  0.00  0.00    +0.169 C 
BRANCH  22  23
ATOM     23  O   UNL     1     -39.761  20.747   1.013  0.00  0.00    -0.379 OA
ATOM     24  H   UNL     1     -39.459  20.076   0.381  0.00  0.00    +0.211 HD
ENDBRANCH  22  23
ENDBRANCH   5  22
TORSDOF 11
ENDMDL
MODEL 9
REMARK VINA RESULT:      -5.3      2.645      5.342
REMARK  Name = 5281123
REMARK  11 active torsions:
REMARK  status: ('A' for Active; 'I' for Inactive)
REMARK    1  A    between atoms: C_2  and  O_7
REMARK    2  A    between atoms: C_3  and  O_9
REMARK    3  A    between atoms: C_4  and  O_11
REMARK    4  A    between atoms: C_5  and  C_22
REMARK    5  A    between atoms: C_6  and  O_13
REMARK    6  A    between atoms: O_13  and  C_14
REMARK    7  A    between atoms: C_14  and  C_15
REMARK    8  A    between atoms: C_16  and  C_18
REMARK    9  A    between atoms: C_16  and  C_19
REMARK   10  A    between atoms: C_19  and  O_20
REMARK   11  A    between atoms: C_22  and  O_23
REMARK                            x       y       z     vdW  Elec       q    Type
REMARK                         _______ _______ _______ _____ _____    ______ ____
ROOT
ATOM      1  O   UNL     1     -37.165  23.345   2.392  0.00  0.00    -0.326 OA
ATOM      2  C   UNL     1     -40.034  23.359   2.270  0.00  0.00    +0.172 C 
ATOM      3  C   UNL     1     -39.194  22.224   1.683  0.00  0.00    +0.169 C 
ATOM      4  C   UNL     1     -39.217  24.644   2.398  0.00  0.00    +0.196 C 
ATOM      5  C   UNL     1     -37.860  22.098   2.424  0.00  0.00    +0.176 C 
ATOM      6  C   UNL     1     -37.870  24.382   3.072  0.00  0.00    +0.266 C 
ENDROOT
BRANCH   2   7
ATOM      7  O   UNL     1     -41.142  23.584   1.397  0.00  0.00    -0.379 OA
ATOM      8  H   UNL     1     -41.887  23.940   1.905  0.00  0.00    +0.211 HD
ENDBRANCH   2   7
BRANCH   3   9
ATOM      9  O   UNL     1     -39.913  20.999   1.795  0.00  0.00    -0.379 OA
ATOM     10  H   UNL     1     -40.141  20.676   0.910  0.00  0.00    +0.211 HD
ENDBRANCH   3   9
BRANCH   4  11
ATOM     11  O   UNL     1     -39.937  25.586   3.192  0.00  0.00    -0.378 OA
ATOM     12  H   UNL     1     -40.782  25.198   3.468  0.00  0.00    +0.211 HD
ENDBRANCH   4  11
BRANCH   6  13
ATOM     13  O   UNL     1     -37.112  25.590   3.025  0.00  0.00    -0.324 OA
BRANCH  13  14
ATOM     14  C   UNL     1     -36.703  25.993   4.322  0.00  0.00    +0.172 C 
BRANCH  14  15
ATOM     15  C   UNL     1     -36.364  24.770   5.119  0.00  0.00    +0.014 C 
ATOM     16  C   UNL     1     -35.163  24.171   5.228  0.00  0.00    +0.074 C 
BRANCH  16  18
ATOM     17  N   UNL     1     -33.086  25.091   3.985  0.00  0.00    -0.191 NA
ATOM     18  C   UNL     1     -34.019  24.677   4.538  0.00  0.00    +0.098 C 
ENDBRANCH  16  18
BRANCH  16  19
ATOM     19  C   UNL     1     -34.997  22.927   6.062  0.00  0.00    +0.174 C 
BRANCH  19  20
ATOM     20  O   UNL     1     -36.081  22.042   5.812  0.00  0.00    -0.377 OA
ATOM     21  H   UNL     1     -36.892  22.556   5.666  0.00  0.00    +0.211 HD
ENDBRANCH  19  20
ENDBRANCH  16  19
ENDBRANCH  14  15
ENDBRANCH  13  14
ENDBRANCH   6  13
BRANCH   5  22
ATOM     22  C   UNL     1     -36.955  21.050   1.782  0.00  0.00    +0.169 C 
BRANCH  22  23
ATOM     23  O   UNL     1     -36.986  19.879   2.578  0.00  0.00    -0.379 OA
ATOM     24  H   UNL     1     -37.510  19.197   2.131  0.00  0.00    +0.211 HD
ENDBRANCH  22  23
ENDBRANCH   5  22
TORSDOF 11
ENDMDL
