MODEL 1
REMARK VINA RESULT:      -6.7      0.000      0.000
REMARK  Name = 56946881
REMARK  5 active torsions:
REMARK  status: ('A' for Active; 'I' for Inactive)
REMARK    1  A    between atoms: C_3  and  C_23
REMARK    2  A    between atoms: C_4  and  C_19
REMARK    3  A    between atoms: C_13  and  O_26
REMARK    4  A    between atoms: C_15  and  O_28
REMARK    5  A    between atoms: C_23  and  O_24
REMARK                            x       y       z     vdW  Elec       q    Type
REMARK                         _______ _______ _______ _____ _____    ______ ____
ROOT
ATOM      1  O   UNL     1     -36.247  21.402   3.104  0.00  0.00    -0.291 OA
ATOM      2  O   UNL     1     -33.313  26.142   4.787  0.00  0.00    -0.290 OA
ATOM      3  C   UNL     1     -35.228  25.435   3.460  0.00  0.00    +0.167 C 
ATOM      4  C   UNL     1     -36.595  24.890   3.953  0.00  0.00    +0.054 C 
ATOM      5  C   UNL     1     -36.399  23.425   4.367  0.00  0.00    +0.086 C 
ATOM      6  C   UNL     1     -34.681  24.588   2.311  0.00  0.00    -0.001 A 
ATOM      7  C   UNL     1     -35.031  23.229   2.184  0.00  0.00    +0.065 A 
ATOM      8  C   UNL     1     -35.345  23.298   5.445  0.00  0.00    -0.034 C 
ATOM      9  C   UNL     1     -35.929  22.586   3.185  0.00  0.00    +0.179 C 
ATOM     10  C   UNL     1     -34.233  25.338   4.633  0.00  0.00    +0.186 C 
ATOM     11  C   UNL     1     -34.355  24.196   5.583  0.00  0.00    +0.030 C 
ATOM     12  C   UNL     1     -33.765  25.125   1.389  0.00  0.00    +0.009 A 
ATOM     13  C   UNL     1     -34.519  22.452   1.137  0.00  0.00    +0.135 A 
ATOM     14  C   UNL     1     -35.468  22.125   6.375  0.00  0.00    +0.027 C 
ATOM     15  C   UNL     1     -33.254  24.348   0.348  0.00  0.00    +0.128 A 
ATOM     16  C   UNL     1     -33.635  23.015   0.219  0.00  0.00    +0.045 A 
ATOM     17  C   UNL     1     -33.239  26.524   1.504  0.00  0.00    +0.034 C 
ATOM     18  C   UNL     1     -33.085  22.189  -0.900  0.00  0.00    +0.037 C 
ENDROOT
BRANCH   4  19
ATOM     19  C   UNL     1     -37.742  25.018   2.982  0.00  0.00    -0.029 C 
ATOM     20  C   UNL     1     -39.018  24.750   3.294  0.00  0.00    -0.030 C 
ATOM     21  C   UNL     1     -40.154  24.877   2.334  0.00  0.00    +0.030 C 
ENDBRANCH   4  19
BRANCH   3  23
ATOM     22  O   UNL     1     -35.935  27.258   2.017  0.00  0.00    -0.249 OA
ATOM     23  C   UNL     1     -35.498  26.878   3.094  0.00  0.00    +0.324 C 
BRANCH  23  24
ATOM     24  O   UNL     1     -35.188  27.700   4.125  0.00  0.00    -0.480 OA
ATOM     25  H   UNL     1     -35.822  28.311   4.445  0.00  0.00    +0.295 HD
ENDBRANCH  23  24
ENDBRANCH   3  23
BRANCH  13  26
ATOM     26  O   UNL     1     -34.850  21.137   0.980  0.00  0.00    -0.506 OA
ATOM     27  H   UNL     1     -34.177  20.487   0.927  0.00  0.00    +0.292 HD
ENDBRANCH  13  26
BRANCH  15  28
ATOM     28  O   UNL     1     -32.368  24.886  -0.540  0.00  0.00    -0.506 OA
ATOM     29  H   UNL     1     -32.259  24.499  -1.387  0.00  0.00    +0.292 HD
ENDBRANCH  15  28
TORSDOF 5
ENDMDL
MODEL 2
REMARK VINA RESULT:      -6.3      1.085      1.113
REMARK  Name = 56946881
REMARK  5 active torsions:
REMARK  status: ('A' for Active; 'I' for Inactive)
REMARK    1  A    between atoms: C_3  and  C_23
REMARK    2  A    between atoms: C_4  and  C_19
REMARK    3  A    between atoms: C_13  and  O_26
REMARK    4  A    between atoms: C_15  and  O_28
REMARK    5  A    between atoms: C_23  and  O_24
REMARK                            x       y       z     vdW  Elec       q    Type
REMARK                         _______ _______ _______ _____ _____    ______ ____
ROOT
ATOM      1  O   UNL     1     -35.782  20.552   2.965  0.00  0.00    -0.291 OA
ATOM      2  O   UNL     1     -33.713  25.880   4.073  0.00  0.00    -0.290 OA
ATOM      3  C   UNL     1     -35.437  24.709   2.814  0.00  0.00    +0.167 C 
ATOM      4  C   UNL     1     -36.717  24.014   3.347  0.00  0.00    +0.054 C 
ATOM      5  C   UNL     1     -36.306  22.664   3.951  0.00  0.00    +0.086 C 
ATOM      6  C   UNL     1     -34.716  23.826   1.795  0.00  0.00    -0.001 A 
ATOM      7  C   UNL     1     -34.838  22.423   1.838  0.00  0.00    +0.065 A 
ATOM      8  C   UNL     1     -35.288  22.847   5.056  0.00  0.00    -0.034 C 
ATOM      9  C   UNL     1     -35.661  21.772   2.897  0.00  0.00    +0.179 C 
ATOM     10  C   UNL     1     -34.486  24.924   4.008  0.00  0.00    +0.186 C 
ATOM     11  C   UNL     1     -34.461  23.905   5.095  0.00  0.00    +0.030 C 
ATOM     12  C   UNL     1     -33.861  24.387   0.828  0.00  0.00    +0.009 A 
ATOM     13  C   UNL     1     -34.167  21.616   0.911  0.00  0.00    +0.135 A 
ATOM     14  C   UNL     1     -35.260  21.795   6.128  0.00  0.00    +0.027 C 
ATOM     15  C   UNL     1     -33.191  23.579  -0.092  0.00  0.00    +0.128 A 
ATOM     16  C   UNL     1     -33.349  22.197  -0.055  0.00  0.00    +0.045 A 
ATOM     17  C   UNL     1     -33.570  25.855   0.770  0.00  0.00    +0.034 C 
ATOM     18  C   UNL     1     -32.629  21.339  -1.046  0.00  0.00    +0.037 C 
ENDROOT
BRANCH   4  19
ATOM     19  C   UNL     1     -37.831  23.830   2.345  0.00  0.00    -0.029 C 
ATOM     20  C   UNL     1     -38.839  22.961   2.502  0.00  0.00    -0.030 C 
ATOM     21  C   UNL     1     -39.941  22.779   1.512  0.00  0.00    +0.030 C 
ENDBRANCH   4  19
BRANCH   3  23
ATOM     22  O   UNL     1     -36.265  26.221   1.101  0.00  0.00    -0.249 OA
ATOM     23  C   UNL     1     -35.919  26.031   2.258  0.00  0.00    +0.324 C 
BRANCH  23  24
ATOM     24  O   UNL     1     -35.915  26.985   3.220  0.00  0.00    -0.480 OA
ATOM     25  H   UNL     1     -35.362  27.736   3.133  0.00  0.00    +0.295 HD
ENDBRANCH  23  24
ENDBRANCH   3  23
BRANCH  13  26
ATOM     26  O   UNL     1     -34.278  20.255   0.920  0.00  0.00    -0.506 OA
ATOM     27  H   UNL     1     -33.668  19.739   1.410  0.00  0.00    +0.292 HD
ENDBRANCH  13  26
BRANCH  15  28
ATOM     28  O   UNL     1     -32.368  24.140  -1.026  0.00  0.00    -0.506 OA
ATOM     29  H   UNL     1     -31.457  24.257  -0.838  0.00  0.00    +0.292 HD
ENDBRANCH  15  28
TORSDOF 5
ENDMDL
MODEL 3
REMARK VINA RESULT:      -6.1      2.124      5.099
REMARK  Name = 56946881
REMARK  5 active torsions:
REMARK  status: ('A' for Active; 'I' for Inactive)
REMARK    1  A    between atoms: C_3  and  C_23
REMARK    2  A    between atoms: C_4  and  C_19
REMARK    3  A    between atoms: C_13  and  O_26
REMARK    4  A    between atoms: C_15  and  O_28
REMARK    5  A    between atoms: C_23  and  O_24
REMARK                            x       y       z     vdW  Elec       q    Type
REMARK                         _______ _______ _______ _____ _____    ______ ____
ROOT
ATOM      1  O   UNL     1     -37.088  24.908   4.966  0.00  0.00    -0.291 OA
ATOM      2  O   UNL     1     -35.564  20.207   1.887  0.00  0.00    -0.290 OA
ATOM      3  C   UNL     1     -35.466  22.640   1.859  0.00  0.00    +0.167 C 
ATOM      4  C   UNL     1     -34.591  23.581   2.728  0.00  0.00    +0.054 C 
ATOM      5  C   UNL     1     -35.229  23.667   4.122  0.00  0.00    +0.086 C 
ATOM      6  C   UNL     1     -36.910  23.139   1.793  0.00  0.00    -0.001 A 
ATOM      7  C   UNL     1     -37.457  23.913   2.837  0.00  0.00    +0.065 A 
ATOM      8  C   UNL     1     -35.347  22.298   4.755  0.00  0.00    -0.034 C 
ATOM      9  C   UNL     1     -36.638  24.241   4.038  0.00  0.00    +0.179 C 
ATOM     10  C   UNL     1     -35.477  21.253   2.531  0.00  0.00    +0.186 C 
ATOM     11  C   UNL     1     -35.439  21.178   4.019  0.00  0.00    +0.030 C 
ATOM     12  C   UNL     1     -37.749  22.786   0.721  0.00  0.00    +0.009 A 
ATOM     13  C   UNL     1     -38.783  24.358   2.779  0.00  0.00    +0.135 A 
ATOM     14  C   UNL     1     -35.335  22.246   6.257  0.00  0.00    +0.027 C 
ATOM     15  C   UNL     1     -39.072  23.229   0.668  0.00  0.00    +0.128 A 
ATOM     16  C   UNL     1     -39.586  24.019   1.692  0.00  0.00    +0.045 A 
ATOM     17  C   UNL     1     -37.302  21.872  -0.379  0.00  0.00    +0.034 C 
ATOM     18  C   UNL     1     -41.004  24.491   1.627  0.00  0.00    +0.037 C 
ENDROOT
BRANCH   4  19
ATOM     19  C   UNL     1     -34.351  24.961   2.167  0.00  0.00    -0.029 C 
ATOM     20  C   UNL     1     -33.539  25.865   2.732  0.00  0.00    -0.030 C 
ATOM     21  C   UNL     1     -33.301  27.230   2.177  0.00  0.00    +0.030 C 
ENDBRANCH   4  19
BRANCH   3  23
ATOM     22  O   UNL     1     -34.975  23.354  -0.411  0.00  0.00    -0.249 OA
ATOM     23  C   UNL     1     -34.765  22.590   0.520  0.00  0.00    +0.324 C 
BRANCH  23  24
ATOM     24  O   UNL     1     -33.868  21.576   0.487  0.00  0.00    -0.480 OA
ATOM     25  H   UNL     1     -32.972  21.749   0.273  0.00  0.00    +0.295 HD
ENDBRANCH  23  24
ENDBRANCH   3  23
BRANCH  13  26
ATOM     26  O   UNL     1     -39.336  25.120   3.768  0.00  0.00    -0.506 OA
ATOM     27  H   UNL     1     -39.316  26.055   3.705  0.00  0.00    +0.292 HD
ENDBRANCH  13  26
BRANCH  15  28
ATOM     28  O   UNL     1     -39.872  22.879  -0.381  0.00  0.00    -0.506 OA
ATOM     29  H   UNL     1     -40.251  22.023  -0.417  0.00  0.00    +0.292 HD
ENDBRANCH  15  28
TORSDOF 5
ENDMDL
MODEL 4
REMARK VINA RESULT:      -6.0      1.705      2.650
REMARK  Name = 56946881
REMARK  5 active torsions:
REMARK  status: ('A' for Active; 'I' for Inactive)
REMARK    1  A    between atoms: C_3  and  C_23
REMARK    2  A    between atoms: C_4  and  C_19
REMARK    3  A    between atoms: C_13  and  O_26
REMARK    4  A    between atoms: C_15  and  O_28
REMARK    5  A    between atoms: C_23  and  O_24
REMARK                            x       y       z     vdW  Elec       q    Type
REMARK                         _______ _______ _______ _____ _____    ______ ____
ROOT
ATOM      1  O   UNL     1     -36.132  23.000   5.343  0.00  0.00    -0.291 OA
ATOM      2  O   UNL     1     -33.710  26.526   1.393  0.00  0.00    -0.290 OA
ATOM      3  C   UNL     1     -35.795  25.392   1.939  0.00  0.00    +0.167 C 
ATOM      4  C   UNL     1     -36.803  25.719   3.072  0.00  0.00    +0.054 C 
ATOM      5  C   UNL     1     -36.222  25.189   4.390  0.00  0.00    +0.086 C 
ATOM      6  C   UNL     1     -35.512  23.892   1.872  0.00  0.00    -0.001 A 
ATOM      7  C   UNL     1     -35.634  23.080   3.018  0.00  0.00    +0.065 A 
ATOM      8  C   UNL     1     -34.868  25.801   4.677  0.00  0.00    -0.034 C 
ATOM      9  C   UNL     1     -36.023  23.679   4.326  0.00  0.00    +0.179 C 
ATOM     10  C   UNL     1     -34.470  26.108   2.268  0.00  0.00    +0.186 C 
ATOM     11  C   UNL     1     -34.066  26.247   3.695  0.00  0.00    +0.030 C 
ATOM     12  C   UNL     1     -35.061  23.293   0.682  0.00  0.00    +0.009 A 
ATOM     13  C   UNL     1     -35.363  21.708   2.956  0.00  0.00    +0.135 A 
ATOM     14  C   UNL     1     -34.466  25.906   6.120  0.00  0.00    +0.027 C 
ATOM     15  C   UNL     1     -34.788  21.925   0.624  0.00  0.00    +0.128 A 
ATOM     16  C   UNL     1     -34.945  21.133   1.758  0.00  0.00    +0.045 A 
ATOM     17  C   UNL     1     -34.787  24.086  -0.560  0.00  0.00    +0.034 C 
ATOM     18  C   UNL     1     -34.653  19.668   1.688  0.00  0.00    +0.037 C 
ENDROOT
BRANCH   4  19
ATOM     19  C   UNL     1     -38.209  25.211   2.868  0.00  0.00    -0.029 C 
ATOM     20  C   UNL     1     -39.290  26.002   2.827  0.00  0.00    -0.030 C 
ATOM     21  C   UNL     1     -40.681  25.499   2.625  0.00  0.00    +0.030 C 
ENDBRANCH   4  19
BRANCH   3  23
ATOM     22  O   UNL     1     -37.187  25.357  -0.053  0.00  0.00    -0.249 OA
ATOM     23  C   UNL     1     -36.425  25.962   0.687  0.00  0.00    +0.324 C 
BRANCH  23  24
ATOM     24  O   UNL     1     -36.027  27.242   0.491  0.00  0.00    -0.480 OA
ATOM     25  H   UNL     1     -36.328  27.920   1.064  0.00  0.00    +0.295 HD
ENDBRANCH  23  24
ENDBRANCH   3  23
BRANCH  13  26
ATOM     26  O   UNL     1     -35.485  20.894   4.046  0.00  0.00    -0.506 OA
ATOM     27  H   UNL     1     -35.314  21.231   4.903  0.00  0.00    +0.292 HD
ENDBRANCH  13  26
BRANCH  15  28
ATOM     28  O   UNL     1     -34.355  21.360  -0.540  0.00  0.00    -0.506 OA
ATOM     29  H   UNL     1     -33.464  21.078  -0.622  0.00  0.00    +0.292 HD
ENDBRANCH  15  28
TORSDOF 5
ENDMDL
MODEL 5
REMARK VINA RESULT:      -6.0      1.665      5.406
REMARK  Name = 56946881
REMARK  5 active torsions:
REMARK  status: ('A' for Active; 'I' for Inactive)
REMARK    1  A    between atoms: C_3  and  C_23
REMARK    2  A    between atoms: C_4  and  C_19
REMARK    3  A    between atoms: C_13  and  O_26
REMARK    4  A    between atoms: C_15  and  O_28
REMARK    5  A    between atoms: C_23  and  O_24
REMARK                            x       y       z     vdW  Elec       q    Type
REMARK                         _______ _______ _______ _____ _____    ______ ____
ROOT
ATOM      1  O   UNL     1     -36.179  26.834   3.384  0.00  0.00    -0.291 OA
ATOM      2  O   UNL     1     -35.668  21.115   4.348  0.00  0.00    -0.290 OA
ATOM      3  C   UNL     1     -35.545  22.787   2.582  0.00  0.00    +0.167 C 
ATOM      4  C   UNL     1     -34.444  23.851   2.336  0.00  0.00    +0.054 C 
ATOM      5  C   UNL     1     -34.657  24.993   3.340  0.00  0.00    +0.086 C 
ATOM      6  C   UNL     1     -36.940  23.400   2.458  0.00  0.00    -0.001 A 
ATOM      7  C   UNL     1     -37.154  24.768   2.719  0.00  0.00    +0.065 A 
ATOM      8  C   UNL     1     -34.610  24.485   4.764  0.00  0.00    -0.034 C 
ATOM      9  C   UNL     1     -36.023  25.640   3.144  0.00  0.00    +0.179 C 
ATOM     10  C   UNL     1     -35.385  22.269   4.025  0.00  0.00    +0.186 C 
ATOM     11  C   UNL     1     -34.925  23.217   5.079  0.00  0.00    +0.030 C 
ATOM     12  C   UNL     1     -38.055  22.603   2.142  0.00  0.00    +0.009 A 
ATOM     13  C   UNL     1     -38.436  25.325   2.616  0.00  0.00    +0.135 A 
ATOM     14  C   UNL     1     -34.171  25.463   5.816  0.00  0.00    +0.027 C 
ATOM     15  C   UNL     1     -39.331  23.161   2.043  0.00  0.00    +0.128 A 
ATOM     16  C   UNL     1     -39.520  24.520   2.273  0.00  0.00    +0.045 A 
ATOM     17  C   UNL     1     -37.955  21.119   1.961  0.00  0.00    +0.034 C 
ATOM     18  C   UNL     1     -40.890  25.111   2.164  0.00  0.00    +0.037 C 
ENDROOT
BRANCH   4  19
ATOM     19  C   UNL     1     -34.353  24.390   0.930  0.00  0.00    -0.029 C 
ATOM     20  C   UNL     1     -33.197  24.617   0.290  0.00  0.00    -0.030 C 
ATOM     21  C   UNL     1     -33.107  25.150  -1.101  0.00  0.00    +0.030 C 
ENDBRANCH   4  19
BRANCH   3  23
ATOM     22  O   UNL     1     -35.528  21.746   0.386  0.00  0.00    -0.249 OA
ATOM     23  C   UNL     1     -35.256  21.694   1.577  0.00  0.00    +0.324 C 
BRANCH  23  24
ATOM     24  O   UNL     1     -34.653  20.639   2.176  0.00  0.00    -0.480 OA
ATOM     25  H   UNL     1     -34.543  20.628   3.107  0.00  0.00    +0.295 HD
ENDBRANCH  23  24
ENDBRANCH   3  23
BRANCH  13  26
ATOM     26  O   UNL     1     -38.672  26.650   2.850  0.00  0.00    -0.506 OA
ATOM     27  H   UNL     1     -39.116  27.167   2.206  0.00  0.00    +0.292 HD
ENDBRANCH  13  26
BRANCH  15  28
ATOM     28  O   UNL     1     -40.402  22.374   1.733  0.00  0.00    -0.506 OA
ATOM     29  H   UNL     1     -40.520  22.068   0.854  0.00  0.00    +0.292 HD
ENDBRANCH  15  28
TORSDOF 5
ENDMDL
MODEL 6
REMARK VINA RESULT:      -6.0      2.482      4.756
REMARK  Name = 56946881
REMARK  5 active torsions:
REMARK  status: ('A' for Active; 'I' for Inactive)
REMARK    1  A    between atoms: C_3  and  C_23
REMARK    2  A    between atoms: C_4  and  C_19
REMARK    3  A    between atoms: C_13  and  O_26
REMARK    4  A    between atoms: C_15  and  O_28
REMARK    5  A    between atoms: C_23  and  O_24
REMARK                            x       y       z     vdW  Elec       q    Type
REMARK                         _______ _______ _______ _____ _____    ______ ____
ROOT
ATOM      1  O   UNL     1     -34.446  21.652   1.463  0.00  0.00    -0.291 OA
ATOM      2  O   UNL     1     -37.733  26.411   0.793  0.00  0.00    -0.290 OA
ATOM      3  C   UNL     1     -37.277  24.590   2.345  0.00  0.00    +0.167 C 
ATOM      4  C   UNL     1     -36.023  24.370   3.232  0.00  0.00    +0.054 C 
ATOM      5  C   UNL     1     -34.900  23.829   2.337  0.00  0.00    +0.086 C 
ATOM      6  C   UNL     1     -37.685  23.297   1.639  0.00  0.00    -0.001 A 
ATOM      7  C   UNL     1     -36.733  22.299   1.349  0.00  0.00    +0.065 A 
ATOM      8  C   UNL     1     -34.598  24.781   1.201  0.00  0.00    -0.034 C 
ATOM      9  C   UNL     1     -35.300  22.499   1.708  0.00  0.00    +0.179 C 
ATOM     10  C   UNL     1     -36.910  25.623   1.260  0.00  0.00    +0.186 C 
ATOM     11  C   UNL     1     -35.522  25.628   0.717  0.00  0.00    +0.030 C 
ATOM     12  C   UNL     1     -39.008  23.096   1.205  0.00  0.00    +0.009 A 
ATOM     13  C   UNL     1     -37.107  21.120   0.692  0.00  0.00    +0.135 A 
ATOM     14  C   UNL     1     -33.202  24.752   0.648  0.00  0.00    +0.027 C 
ATOM     15  C   UNL     1     -39.377  21.921   0.548  0.00  0.00    +0.128 A 
ATOM     16  C   UNL     1     -38.430  20.933   0.298  0.00  0.00    +0.045 A 
ATOM     17  C   UNL     1     -40.070  24.142   1.360  0.00  0.00    +0.034 C 
ATOM     18  C   UNL     1     -38.834  19.676  -0.406  0.00  0.00    +0.037 C 
ENDROOT
BRANCH   4  19
ATOM     19  C   UNL     1     -36.218  23.481   4.436  0.00  0.00    -0.029 C 
ATOM     20  C   UNL     1     -35.212  23.004   5.182  0.00  0.00    -0.030 C 
ATOM     21  C   UNL     1     -35.404  22.126   6.373  0.00  0.00    +0.030 C 
ENDBRANCH   4  19
BRANCH   3  23
ATOM     22  O   UNL     1     -39.196  24.478   3.831  0.00  0.00    -0.249 OA
ATOM     23  C   UNL     1     -38.324  25.140   3.287  0.00  0.00    +0.324 C 
BRANCH  23  24
ATOM     24  O   UNL     1     -38.169  26.476   3.449  0.00  0.00    -0.480 OA
ATOM     25  H   UNL     1     -37.838  26.816   4.257  0.00  0.00    +0.295 HD
ENDBRANCH  23  24
ENDBRANCH   3  23
BRANCH  13  26
ATOM     26  O   UNL     1     -36.210  20.130   0.410  0.00  0.00    -0.506 OA
ATOM     27  H   UNL     1     -36.013  19.479   1.054  0.00  0.00    +0.292 HD
ENDBRANCH  13  26
BRANCH  15  28
ATOM     28  O   UNL     1     -40.666  21.741   0.136  0.00  0.00    -0.506 OA
ATOM     29  H   UNL     1     -41.298  22.422   0.262  0.00  0.00    +0.292 HD
ENDBRANCH  15  28
TORSDOF 5
ENDMDL
MODEL 7
REMARK VINA RESULT:      -5.9      1.982      4.682
REMARK  Name = 56946881
REMARK  5 active torsions:
REMARK  status: ('A' for Active; 'I' for Inactive)
REMARK    1  A    between atoms: C_3  and  C_23
REMARK    2  A    between atoms: C_4  and  C_19
REMARK    3  A    between atoms: C_13  and  O_26
REMARK    4  A    between atoms: C_15  and  O_28
REMARK    5  A    between atoms: C_23  and  O_24
REMARK                            x       y       z     vdW  Elec       q    Type
REMARK                         _______ _______ _______ _____ _____    ______ ____
ROOT
ATOM      1  O   UNL     1     -37.102  21.141   1.330  0.00  0.00    -0.291 OA
ATOM      2  O   UNL     1     -39.068  26.347   3.045  0.00  0.00    -0.290 OA
ATOM      3  C   UNL     1     -37.167  25.265   1.975  0.00  0.00    +0.167 C 
ATOM      4  C   UNL     1     -37.077  24.662   0.548  0.00  0.00    +0.054 C 
ATOM      5  C   UNL     1     -37.785  23.300   0.566  0.00  0.00    +0.086 C 
ATOM      6  C   UNL     1     -36.557  24.320   3.010  0.00  0.00    -0.001 A 
ATOM      7  C   UNL     1     -36.525  22.929   2.790  0.00  0.00    +0.065 A 
ATOM      8  C   UNL     1     -39.226  23.437   1.006  0.00  0.00    -0.034 C 
ATOM      9  C   UNL     1     -37.109  22.350   1.548  0.00  0.00    +0.179 C 
ATOM     10  C   UNL     1     -38.660  25.440   2.319  0.00  0.00    +0.186 C 
ATOM     11  C   UNL     1     -39.636  24.441   1.799  0.00  0.00    +0.030 C 
ATOM     12  C   UNL     1     -36.069  24.808   4.236  0.00  0.00    +0.009 A 
ATOM     13  C   UNL     1     -35.976  22.065   3.746  0.00  0.00    +0.135 A 
ATOM     14  C   UNL     1     -40.190  22.404   0.495  0.00  0.00    +0.027 C 
ATOM     15  C   UNL     1     -35.524  23.944   5.188  0.00  0.00    +0.128 A 
ATOM     16  C   UNL     1     -35.472  22.576   4.940  0.00  0.00    +0.045 A 
ATOM     17  C   UNL     1     -36.161  26.255   4.617  0.00  0.00    +0.034 C 
ATOM     18  C   UNL     1     -34.886  21.656   5.964  0.00  0.00    +0.037 C 
ENDROOT
BRANCH   4  19
ATOM     19  C   UNL     1     -35.688  24.531  -0.024  0.00  0.00    -0.029 C 
ATOM     20  C   UNL     1     -35.429  24.092  -1.264  0.00  0.00    -0.030 C 
ATOM     21  C   UNL     1     -34.055  23.963  -1.831  0.00  0.00    +0.030 C 
ENDBRANCH   4  19
BRANCH   3  23
ATOM     22  O   UNL     1     -35.261  26.769   1.876  0.00  0.00    -0.249 OA
ATOM     23  C   UNL     1     -36.473  26.605   1.871  0.00  0.00    +0.324 C 
BRANCH  23  24
ATOM     24  O   UNL     1     -37.378  27.607   1.773  0.00  0.00    -0.480 OA
ATOM     25  H   UNL     1     -38.268  27.416   1.550  0.00  0.00    +0.295 HD
ENDBRANCH  23  24
ENDBRANCH   3  23
BRANCH  13  26
ATOM     26  O   UNL     1     -35.919  20.713   3.555  0.00  0.00    -0.506 OA
ATOM     27  H   UNL     1     -36.127  20.350   2.717  0.00  0.00    +0.292 HD
ENDBRANCH  13  26
BRANCH  15  28
ATOM     28  O   UNL     1     -35.052  24.435   6.370  0.00  0.00    -0.506 OA
ATOM     29  H   UNL     1     -35.508  25.129   6.806  0.00  0.00    +0.292 HD
ENDBRANCH  15  28
TORSDOF 5
ENDMDL
MODEL 8
REMARK VINA RESULT:      -5.9      1.817      4.735
REMARK  Name = 56946881
REMARK  5 active torsions:
REMARK  status: ('A' for Active; 'I' for Inactive)
REMARK    1  A    between atoms: C_3  and  C_23
REMARK    2  A    between atoms: C_4  and  C_19
REMARK    3  A    between atoms: C_13  and  O_26
REMARK    4  A    between atoms: C_15  and  O_28
REMARK    5  A    between atoms: C_23  and  O_24
REMARK                            x       y       z     vdW  Elec       q    Type
REMARK                         _______ _______ _______ _____ _____    ______ ____
ROOT
ATOM      1  O   UNL     1     -37.908  20.970   2.060  0.00  0.00    -0.291 OA
ATOM      2  O   UNL     1     -34.598  25.408   0.259  0.00  0.00    -0.290 OA
ATOM      3  C   UNL     1     -35.596  24.441   2.257  0.00  0.00    +0.167 C 
ATOM      4  C   UNL     1     -35.192  23.144   3.008  0.00  0.00    +0.054 C 
ATOM      5  C   UNL     1     -35.733  21.949   2.213  0.00  0.00    +0.086 C 
ATOM      6  C   UNL     1     -37.112  24.519   2.075  0.00  0.00    -0.001 A 
ATOM      7  C   UNL     1     -37.896  23.349   2.018  0.00  0.00    +0.065 A 
ATOM      8  C   UNL     1     -35.198  21.944   0.798  0.00  0.00    -0.034 C 
ATOM      9  C   UNL     1     -37.253  22.008   2.113  0.00  0.00    +0.179 C 
ATOM     10  C   UNL     1     -34.955  24.393   0.856  0.00  0.00    +0.186 C 
ATOM     11  C   UNL     1     -34.817  23.073   0.177  0.00  0.00    +0.030 C 
ATOM     12  C   UNL     1     -37.756  25.757   1.896  0.00  0.00    +0.009 A 
ATOM     13  C   UNL     1     -39.283  23.424   1.839  0.00  0.00    +0.135 A 
ATOM     14  C   UNL     1     -35.092  20.608   0.119  0.00  0.00    +0.027 C 
ATOM     15  C   UNL     1     -39.139  25.827   1.715  0.00  0.00    +0.128 A 
ATOM     16  C   UNL     1     -39.901  24.663   1.693  0.00  0.00    +0.045 A 
ATOM     17  C   UNL     1     -37.002  27.050   1.824  0.00  0.00    +0.034 C 
ATOM     18  C   UNL     1     -41.382  24.748   1.500  0.00  0.00    +0.037 C 
ENDROOT
BRANCH   4  19
ATOM     19  C   UNL     1     -35.620  23.060   4.452  0.00  0.00    -0.029 C 
ATOM     20  C   UNL     1     -35.141  22.158   5.321  0.00  0.00    -0.030 C 
ATOM     21  C   UNL     1     -35.564  22.075   6.750  0.00  0.00    +0.030 C 
ENDBRANCH   4  19
BRANCH   3  23
ATOM     22  O   UNL     1     -35.596  26.150   3.985  0.00  0.00    -0.249 OA
ATOM     23  C   UNL     1     -35.011  25.563   3.085  0.00  0.00    +0.324 C 
BRANCH  23  24
ATOM     24  O   UNL     1     -33.744  25.838   2.693  0.00  0.00    -0.480 OA
ATOM     25  H   UNL     1     -33.026  25.364   3.063  0.00  0.00    +0.295 HD
ENDBRANCH  23  24
ENDBRANCH   3  23
BRANCH  13  26
ATOM     26  O   UNL     1     -40.070  22.308   1.793  0.00  0.00    -0.506 OA
ATOM     27  H   UNL     1     -40.795  22.222   2.380  0.00  0.00    +0.292 HD
ENDBRANCH  13  26
BRANCH  15  28
ATOM     28  O   UNL     1     -39.748  27.037   1.547  0.00  0.00    -0.506 OA
ATOM     29  H   UNL     1     -40.572  27.209   1.960  0.00  0.00    +0.292 HD
ENDBRANCH  15  28
TORSDOF 5
ENDMDL
MODEL 9
REMARK VINA RESULT:      -5.9      2.512      5.380
REMARK  Name = 56946881
REMARK  5 active torsions:
REMARK  status: ('A' for Active; 'I' for Inactive)
REMARK    1  A    between atoms: C_3  and  C_23
REMARK    2  A    between atoms: C_4  and  C_19
REMARK    3  A    between atoms: C_13  and  O_26
REMARK    4  A    between atoms: C_15  and  O_28
REMARK    5  A    between atoms: C_23  and  O_24
REMARK                            x       y       z     vdW  Elec       q    Type
REMARK                         _______ _______ _______ _____ _____    ______ ____
ROOT
ATOM      1  O   UNL     1     -34.279  25.006  -0.221  0.00  0.00    -0.291 OA
ATOM      2  O   UNL     1     -36.991  19.865   0.124  0.00  0.00    -0.290 OA
ATOM      3  C   UNL     1     -35.663  21.432   1.432  0.00  0.00    +0.167 C 
ATOM      4  C   UNL     1     -36.084  22.813   2.001  0.00  0.00    +0.054 C 
ATOM      5  C   UNL     1     -36.060  23.826   0.848  0.00  0.00    +0.086 C 
ATOM      6  C   UNL     1     -34.288  21.506   0.769  0.00  0.00    -0.001 A 
ATOM      7  C   UNL     1     -33.815  22.714   0.218  0.00  0.00    +0.065 A 
ATOM      8  C   UNL     1     -36.981  23.399  -0.274  0.00  0.00    -0.034 C 
ATOM      9  C   UNL     1     -34.661  23.940   0.255  0.00  0.00    +0.179 C 
ATOM     10  C   UNL     1     -36.688  21.037   0.350  0.00  0.00    +0.186 C 
ATOM     11  C   UNL     1     -37.290  22.110  -0.491  0.00  0.00    +0.030 C 
ATOM     12  C   UNL     1     -33.487  20.358   0.634  0.00  0.00    +0.009 A 
ATOM     13  C   UNL     1     -32.559  22.776  -0.400  0.00  0.00    +0.135 A 
ATOM     14  C   UNL     1     -37.556  24.493  -1.129  0.00  0.00    +0.027 C 
ATOM     15  C   UNL     1     -32.237  20.423   0.015  0.00  0.00    +0.128 A 
ATOM     16  C   UNL     1     -31.772  21.632  -0.495  0.00  0.00    +0.045 A 
ATOM     17  C   UNL     1     -33.946  19.003   1.080  0.00  0.00    +0.034 C 
ATOM     18  C   UNL     1     -30.431  21.693  -1.155  0.00  0.00    +0.037 C 
ENDROOT
BRANCH   4  19
ATOM     19  C   UNL     1     -35.272  23.318   3.168  0.00  0.00    -0.029 C 
ATOM     20  C   UNL     1     -35.802  23.934   4.235  0.00  0.00    -0.030 C 
ATOM     21  C   UNL     1     -34.999  24.433   5.390  0.00  0.00    +0.030 C 
ENDBRANCH   4  19
BRANCH   3  23
ATOM     22  O   UNL     1     -34.859  20.364   3.461  0.00  0.00    -0.249 OA
ATOM     23  C   UNL     1     -35.732  20.491   2.615  0.00  0.00    +0.324 C 
BRANCH  23  24
ATOM     24  O   UNL     1     -36.898  19.801   2.611  0.00  0.00    -0.480 OA
ATOM     25  H   UNL     1     -36.899  18.884   2.420  0.00  0.00    +0.295 HD
ENDBRANCH  23  24
ENDBRANCH   3  23
BRANCH  13  26
ATOM     26  O   UNL     1     -32.068  23.935  -0.930  0.00  0.00    -0.506 OA
ATOM     27  H   UNL     1     -32.586  24.430  -1.534  0.00  0.00    +0.292 HD
ENDBRANCH  13  26
BRANCH  15  28
ATOM     28  O   UNL     1     -31.471  19.300  -0.104  0.00  0.00    -0.506 OA
ATOM     29  H   UNL     1     -30.645  19.340  -0.546  0.00  0.00    +0.292 HD
ENDBRANCH  15  28
TORSDOF 5
ENDMDL
