MODEL 1
REMARK VINA RESULT:      -6.3      0.000      0.000
REMARK  Name = 191231
REMARK  4 active torsions:
REMARK  status: ('A' for Active; 'I' for Inactive)
REMARK    1  A    between atoms: N_1  and  C_18
REMARK    2  A    between atoms: C_7  and  C_28
REMARK    3  A    between atoms: P_10  and  O_22
REMARK    4  A    between atoms: C_17  and  O_20
REMARK                            x       y       z     vdW  Elec       q    Type
REMARK                         _______ _______ _______ _____ _____    ______ ____
ROOT
ATOM      1  N   UNL     1     -35.956  24.589   3.807  0.00  0.00    -0.249 N 
ATOM      2  N   UNL     1     -38.268  25.146   3.407  0.00  0.00    -0.233 NA
ATOM      3  N   UNL     1     -39.549  23.293   2.485  0.00  0.00    -0.234 NA
ATOM      4  C   UNL     1     -37.229  24.293   3.392  0.00  0.00    +0.122 C 
ATOM      5  C   UNL     1     -35.159  23.482   3.650  0.00  0.00    +0.075 C 
ATOM      6  C   UNL     1     -37.246  22.973   2.960  0.00  0.00    +0.141 C 
ATOM      7  C   UNL     1     -35.932  22.467   3.126  0.00  0.00    +0.075 C 
ATOM      8  C   UNL     1     -38.466  22.483   2.496  0.00  0.00    +0.111 C 
ATOM      9  C   UNL     1     -39.385  24.558   2.935  0.00  0.00    +0.252 C 
ATOM     10  N   UNL     1     -38.590  21.159   2.035  0.00  0.00    -0.346 N 
ATOM     11  H   UNL     1     -39.461  20.831   1.711  0.00  0.00    +0.143 HD
ATOM     12  H   UNL     1     -37.808  20.561   2.038  0.00  0.00    +0.143 HD
ENDROOT
BRANCH   1  21
ATOM     13  P   UNL     1     -32.197  26.153   1.657  0.00  0.00    +0.476 P 
ATOM     14  O   UNL     1     -35.432  26.846   3.273  0.00  0.00    -0.333 OA
ATOM     15  O   UNL     1     -32.749  25.627   3.079  0.00  0.00    -0.271 OA
ATOM     16  O   UNL     1     -33.355  27.175   1.176  0.00  0.00    -0.271 OA
ATOM     17  O   UNL     1     -31.871  25.075   0.665  0.00  0.00    -0.227 OA
ATOM     18  C   UNL     1     -33.229  26.565   4.034  0.00  0.00    +0.186 C 
ATOM     19  C   UNL     1     -34.199  27.570   3.424  0.00  0.00    +0.177 C 
ATOM     20  C   UNL     1     -34.126  25.818   5.003  0.00  0.00    +0.188 C 
ATOM     21  C   UNL     1     -35.505  25.878   4.338  0.00  0.00    +0.227 C 
ATOM     22  C   UNL     1     -33.785  28.174   2.090  0.00  0.00    +0.186 C 
BRANCH  20  23
ATOM     23  O   UNL     1     -34.194  26.523   6.240  0.00  0.00    -0.378 OA
ATOM     24  H   UNL     1     -34.680  25.990   6.889  0.00  0.00    +0.211 HD
ENDBRANCH  20  23
BRANCH  13  25
ATOM     25  O   UNL     1     -30.952  27.113   2.040  0.00  0.00    -0.302 OA
ATOM     26  H   UNL     1     -31.009  27.936   1.531  0.00  0.00    +0.222 HD
ENDBRANCH  13  25
ENDBRANCH   1  21
BRANCH   7  28
ATOM     27  N   UNL     1     -35.042  20.094   2.582  0.00  0.00    -0.191 NA
ATOM     28  C   UNL     1     -35.443  21.163   2.828  0.00  0.00    +0.098 C 
ENDBRANCH   7  28
TORSDOF 4
ENDMDL
MODEL 2
REMARK VINA RESULT:      -6.2      2.770      4.210
REMARK  Name = 191231
REMARK  4 active torsions:
REMARK  status: ('A' for Active; 'I' for Inactive)
REMARK    1  A    between atoms: N_1  and  C_18
REMARK    2  A    between atoms: C_7  and  C_28
REMARK    3  A    between atoms: P_10  and  O_22
REMARK    4  A    between atoms: C_17  and  O_20
REMARK                            x       y       z     vdW  Elec       q    Type
REMARK                         _______ _______ _______ _____ _____    ______ ____
ROOT
ATOM      1  N   UNL     1     -35.511  22.710   2.533  0.00  0.00    -0.249 N 
ATOM      2  N   UNL     1     -36.343  20.488   2.098  0.00  0.00    -0.233 NA
ATOM      3  N   UNL     1     -35.518  19.554   0.006  0.00  0.00    -0.234 NA
ATOM      4  C   UNL     1     -35.611  21.570   1.778  0.00  0.00    +0.122 C 
ATOM      5  C   UNL     1     -34.680  23.601   1.901  0.00  0.00    +0.075 C 
ATOM      6  C   UNL     1     -34.829  21.735   0.642  0.00  0.00    +0.141 C 
ATOM      7  C   UNL     1     -34.244  23.024   0.726  0.00  0.00    +0.075 C 
ATOM      8  C   UNL     1     -34.801  20.671  -0.259  0.00  0.00    +0.111 C 
ATOM      9  C   UNL     1     -36.235  19.532   1.153  0.00  0.00    +0.252 C 
ATOM     10  N   UNL     1     -34.041  20.737  -1.441  0.00  0.00    -0.346 N 
ATOM     11  H   UNL     1     -34.034  19.975  -2.065  0.00  0.00    +0.143 HD
ATOM     12  H   UNL     1     -33.516  21.545  -1.645  0.00  0.00    +0.143 HD
ENDROOT
BRANCH   1  21
ATOM     13  P   UNL     1     -33.681  26.258   4.827  0.00  0.00    +0.476 P 
ATOM     14  O   UNL     1     -36.656  24.311   3.869  0.00  0.00    -0.333 OA
ATOM     15  O   UNL     1     -33.902  24.661   4.878  0.00  0.00    -0.271 OA
ATOM     16  O   UNL     1     -35.136  26.809   4.385  0.00  0.00    -0.271 OA
ATOM     17  O   UNL     1     -32.552  26.714   3.949  0.00  0.00    -0.227 OA
ATOM     18  C   UNL     1     -35.033  24.131   5.557  0.00  0.00    +0.186 C 
ATOM     19  C   UNL     1     -36.327  24.837   5.167  0.00  0.00    +0.177 C 
ATOM     20  C   UNL     1     -35.274  22.730   5.029  0.00  0.00    +0.188 C 
ATOM     21  C   UNL     1     -36.180  22.951   3.814  0.00  0.00    +0.227 C 
ATOM     22  C   UNL     1     -36.270  26.356   5.111  0.00  0.00    +0.186 C 
BRANCH  20  23
ATOM     23  O   UNL     1     -35.996  21.967   5.994  0.00  0.00    -0.378 OA
ATOM     24  H   UNL     1     -36.377  21.184   5.567  0.00  0.00    +0.211 HD
ENDBRANCH  20  23
BRANCH  13  25
ATOM     25  O   UNL     1     -33.544  26.693   6.380  0.00  0.00    -0.302 OA
ATOM     26  H   UNL     1     -34.265  27.300   6.611  0.00  0.00    +0.222 HD
ENDBRANCH  13  25
ENDBRANCH   1  21
BRANCH   7  28
ATOM     27  N   UNL     1     -32.638  24.176  -0.950  0.00  0.00    -0.191 NA
ATOM     28  C   UNL     1     -33.362  23.657  -0.196  0.00  0.00    +0.098 C 
ENDBRANCH   7  28
TORSDOF 4
ENDMDL
MODEL 3
REMARK VINA RESULT:      -6.1      2.514      4.642
REMARK  Name = 191231
REMARK  4 active torsions:
REMARK  status: ('A' for Active; 'I' for Inactive)
REMARK    1  A    between atoms: N_1  and  C_18
REMARK    2  A    between atoms: C_7  and  C_28
REMARK    3  A    between atoms: P_10  and  O_22
REMARK    4  A    between atoms: C_17  and  O_20
REMARK                            x       y       z     vdW  Elec       q    Type
REMARK                         _______ _______ _______ _____ _____    ______ ____
ROOT
ATOM      1  N   UNL     1     -38.217  23.310   2.748  0.00  0.00    -0.249 N 
ATOM      2  N   UNL     1     -39.084  21.792   1.086  0.00  0.00    -0.233 NA
ATOM      3  N   UNL     1     -41.190  22.539   0.118  0.00  0.00    -0.234 NA
ATOM      4  C   UNL     1     -39.147  22.916   1.820  0.00  0.00    +0.122 C 
ATOM      5  C   UNL     1     -38.605  24.505   3.300  0.00  0.00    +0.075 C 
ATOM      6  C   UNL     1     -40.149  23.878   1.778  0.00  0.00    +0.141 C 
ATOM      7  C   UNL     1     -39.799  24.881   2.719  0.00  0.00    +0.075 C 
ATOM      8  C   UNL     1     -41.195  23.654   0.884  0.00  0.00    +0.111 C 
ATOM      9  C   UNL     1     -40.148  21.688   0.264  0.00  0.00    +0.252 C 
ATOM     10  N   UNL     1     -42.259  24.567   0.765  0.00  0.00    -0.346 N 
ATOM     11  H   UNL     1     -42.989  24.391   0.128  0.00  0.00    +0.143 HD
ATOM     12  H   UNL     1     -42.274  25.381   1.319  0.00  0.00    +0.143 HD
ENDROOT
BRANCH   1  21
ATOM     13  P   UNL     1     -34.787  26.120   3.988  0.00  0.00    +0.476 P 
ATOM     14  O   UNL     1     -36.584  22.937   4.436  0.00  0.00    -0.333 OA
ATOM     15  O   UNL     1     -35.243  25.051   2.868  0.00  0.00    -0.271 OA
ATOM     16  O   UNL     1     -35.187  25.385   5.372  0.00  0.00    -0.271 OA
ATOM     17  O   UNL     1     -35.367  27.494   3.825  0.00  0.00    -0.227 OA
ATOM     18  C   UNL     1     -34.873  23.685   3.012  0.00  0.00    +0.186 C 
ATOM     19  C   UNL     1     -35.162  23.150   4.410  0.00  0.00    +0.177 C 
ATOM     20  C   UNL     1     -35.821  22.859   2.163  0.00  0.00    +0.188 C 
ATOM     21  C   UNL     1     -36.998  22.579   3.102  0.00  0.00    +0.227 C 
ATOM     22  C   UNL     1     -34.751  24.047   5.568  0.00  0.00    +0.186 C 
BRANCH  20  23
ATOM     23  O   UNL     1     -35.210  21.616   1.827  0.00  0.00    -0.378 OA
ATOM     24  H   UNL     1     -35.468  21.362   0.927  0.00  0.00    +0.211 HD
ENDBRANCH  20  23
BRANCH  13  25
ATOM     25  O   UNL     1     -33.170  26.064   3.959  0.00  0.00    -0.302 OA
ATOM     26  H   UNL     1     -32.813  26.696   4.603  0.00  0.00    +0.222 HD
ENDBRANCH  13  25
ENDBRANCH   1  21
BRANCH   7  28
ATOM     27  N   UNL     1     -41.087  27.050   3.311  0.00  0.00    -0.191 NA
ATOM     28  C   UNL     1     -40.506  26.073   3.044  0.00  0.00    +0.098 C 
ENDBRANCH   7  28
TORSDOF 4
ENDMDL
MODEL 4
REMARK VINA RESULT:      -6.1      3.773      6.113
REMARK  Name = 191231
REMARK  4 active torsions:
REMARK  status: ('A' for Active; 'I' for Inactive)
REMARK    1  A    between atoms: N_1  and  C_18
REMARK    2  A    between atoms: C_7  and  C_28
REMARK    3  A    between atoms: P_10  and  O_22
REMARK    4  A    between atoms: C_17  and  O_20
REMARK                            x       y       z     vdW  Elec       q    Type
REMARK                         _______ _______ _______ _____ _____    ______ ____
ROOT
ATOM      1  N   UNL     1     -35.898  21.542   2.702  0.00  0.00    -0.249 N 
ATOM      2  N   UNL     1     -35.229  21.198   4.993  0.00  0.00    -0.233 NA
ATOM      3  N   UNL     1     -35.299  23.237   6.323  0.00  0.00    -0.234 NA
ATOM      4  C   UNL     1     -35.652  21.974   3.980  0.00  0.00    +0.122 C 
ATOM      5  C   UNL     1     -36.315  22.603   1.937  0.00  0.00    +0.075 C 
ATOM      6  C   UNL     1     -35.917  23.336   4.033  0.00  0.00    +0.141 C 
ATOM      7  C   UNL     1     -36.336  23.727   2.735  0.00  0.00    +0.075 C 
ATOM      8  C   UNL     1     -35.725  23.963   5.264  0.00  0.00    +0.111 C 
ATOM      9  C   UNL     1     -35.081  21.917   6.124  0.00  0.00    +0.252 C 
ATOM     10  N   UNL     1     -35.965  25.340   5.424  0.00  0.00    -0.346 N 
ATOM     11  H   UNL     1     -35.823  25.766   6.302  0.00  0.00    +0.143 HD
ATOM     12  H   UNL     1     -36.274  25.879   4.660  0.00  0.00    +0.143 HD
ENDROOT
BRANCH   1  21
ATOM     13  P   UNL     1     -33.030  21.262  -0.890  0.00  0.00    +0.476 P 
ATOM     14  O   UNL     1     -34.349  19.802   2.222  0.00  0.00    -0.333 OA
ATOM     15  O   UNL     1     -34.566  21.057  -0.443  0.00  0.00    -0.271 OA
ATOM     16  O   UNL     1     -32.208  20.541   0.302  0.00  0.00    -0.271 OA
ATOM     17  O   UNL     1     -32.629  22.685  -1.146  0.00  0.00    -0.227 OA
ATOM     18  C   UNL     1     -35.010  19.770  -0.031  0.00  0.00    +0.186 C 
ATOM     19  C   UNL     1     -34.069  19.128   0.982  0.00  0.00    +0.177 C 
ATOM     20  C   UNL     1     -36.270  19.958   0.794  0.00  0.00    +0.188 C 
ATOM     21  C   UNL     1     -35.743  20.168   2.216  0.00  0.00    +0.227 C 
ATOM     22  C   UNL     1     -32.584  19.220   0.667  0.00  0.00    +0.186 C 
BRANCH  20  23
ATOM     23  O   UNL     1     -37.044  18.762   0.774  0.00  0.00    -0.378 OA
ATOM     24  H   UNL     1     -36.972  18.316   1.632  0.00  0.00    +0.211 HD
ENDBRANCH  20  23
BRANCH  13  25
ATOM     25  O   UNL     1     -32.846  20.273  -2.157  0.00  0.00    -0.302 OA
ATOM     26  H   UNL     1     -32.527  20.780  -2.920  0.00  0.00    +0.222 HD
ENDBRANCH  13  25
ENDBRANCH   1  21
BRANCH   7  28
ATOM     27  N   UNL     1     -37.036  26.083   1.914  0.00  0.00    -0.191 NA
ATOM     28  C   UNL     1     -36.720  25.022   2.284  0.00  0.00    +0.098 C 
ENDBRANCH   7  28
TORSDOF 4
ENDMDL
MODEL 5
REMARK VINA RESULT:      -6.1      3.810      6.202
REMARK  Name = 191231
REMARK  4 active torsions:
REMARK  status: ('A' for Active; 'I' for Inactive)
REMARK    1  A    between atoms: N_1  and  C_18
REMARK    2  A    between atoms: C_7  and  C_28
REMARK    3  A    between atoms: P_10  and  O_22
REMARK    4  A    between atoms: C_17  and  O_20
REMARK                            x       y       z     vdW  Elec       q    Type
REMARK                         _______ _______ _______ _____ _____    ______ ____
ROOT
ATOM      1  N   UNL     1     -33.569  26.230   3.965  0.00  0.00    -0.249 N 
ATOM      2  N   UNL     1     -32.945  28.378   4.868  0.00  0.00    -0.233 NA
ATOM      3  N   UNL     1     -31.300  29.544   3.502  0.00  0.00    -0.234 NA
ATOM      4  C   UNL     1     -32.863  27.406   3.942  0.00  0.00    +0.122 C 
ATOM      5  C   UNL     1     -33.235  25.480   2.865  0.00  0.00    +0.075 C 
ATOM      6  C   UNL     1     -32.064  27.408   2.806  0.00  0.00    +0.141 C 
ATOM      7  C   UNL     1     -32.305  26.184   2.130  0.00  0.00    +0.075 C 
ATOM      8  C   UNL     1     -31.265  28.532   2.606  0.00  0.00    +0.111 C 
ATOM      9  C   UNL     1     -32.128  29.407   4.564  0.00  0.00    +0.252 C 
ATOM     10  N   UNL     1     -30.418  28.633   1.486  0.00  0.00    -0.346 N 
ATOM     11  H   UNL     1     -29.860  29.435   1.362  0.00  0.00    +0.143 HD
ATOM     12  H   UNL     1     -30.383  27.902   0.828  0.00  0.00    +0.143 HD
ENDROOT
BRANCH   1  21
ATOM     13  P   UNL     1     -36.203  22.702   2.620  0.00  0.00    +0.476 P 
ATOM     14  O   UNL     1     -34.360  24.428   5.300  0.00  0.00    -0.333 OA
ATOM     15  O   UNL     1     -36.241  24.262   3.028  0.00  0.00    -0.271 OA
ATOM     16  O   UNL     1     -35.264  22.052   3.765  0.00  0.00    -0.271 OA
ATOM     17  O   UNL     1     -35.750  22.425   1.216  0.00  0.00    -0.227 OA
ATOM     18  C   UNL     1     -36.511  24.627   4.377  0.00  0.00    +0.186 C 
ATOM     19  C   UNL     1     -35.669  23.835   5.371  0.00  0.00    +0.177 C 
ATOM     20  C   UNL     1     -35.990  26.037   4.586  0.00  0.00    +0.188 C 
ATOM     21  C   UNL     1     -34.530  25.827   4.995  0.00  0.00    +0.227 C 
ATOM     22  C   UNL     1     -35.573  22.337   5.122  0.00  0.00    +0.186 C 
BRANCH  20  23
ATOM     23  O   UNL     1     -36.678  26.649   5.674  0.00  0.00    -0.378 OA
ATOM     24  H   UNL     1     -37.440  27.145   5.338  0.00  0.00    +0.211 HD
ENDBRANCH  20  23
BRANCH  13  25
ATOM     25  O   UNL     1     -37.689  22.161   2.966  0.00  0.00    -0.302 OA
ATOM     26  H   UNL     1     -38.052  22.666   3.710  0.00  0.00    +0.222 HD
ENDBRANCH  13  25
ENDBRANCH   1  21
BRANCH   7  28
ATOM     27  N   UNL     1     -31.251  25.337  -0.080  0.00  0.00    -0.191 NA
ATOM     28  C   UNL     1     -31.726  25.718   0.915  0.00  0.00    +0.098 C 
ENDBRANCH   7  28
TORSDOF 4
ENDMDL
MODEL 6
REMARK VINA RESULT:      -6.0      3.433      5.642
REMARK  Name = 191231
REMARK  4 active torsions:
REMARK  status: ('A' for Active; 'I' for Inactive)
REMARK    1  A    between atoms: N_1  and  C_18
REMARK    2  A    between atoms: C_7  and  C_28
REMARK    3  A    between atoms: P_10  and  O_22
REMARK    4  A    between atoms: C_17  and  O_20
REMARK                            x       y       z     vdW  Elec       q    Type
REMARK                         _______ _______ _______ _____ _____    ______ ____
ROOT
ATOM      1  N   UNL     1     -36.273  21.866   2.692  0.00  0.00    -0.249 N 
ATOM      2  N   UNL     1     -38.578  22.541   2.466  0.00  0.00    -0.233 NA
ATOM      3  N   UNL     1     -39.007  24.772   3.342  0.00  0.00    -0.234 NA
ATOM      4  C   UNL     1     -37.306  22.755   2.847  0.00  0.00    +0.122 C 
ATOM      5  C   UNL     1     -35.121  22.418   3.194  0.00  0.00    +0.075 C 
ATOM      6  C   UNL     1     -36.804  23.897   3.458  0.00  0.00    +0.141 C 
ATOM      7  C   UNL     1     -35.420  23.676   3.675  0.00  0.00    +0.075 C 
ATOM      8  C   UNL     1     -37.712  24.926   3.702  0.00  0.00    +0.111 C 
ATOM      9  C   UNL     1     -39.355  23.604   2.754  0.00  0.00    +0.252 C 
ATOM     10  N   UNL     1     -37.307  26.125   4.317  0.00  0.00    -0.346 N 
ATOM     11  H   UNL     1     -37.963  26.841   4.480  0.00  0.00    +0.143 HD
ATOM     12  H   UNL     1     -36.367  26.248   4.583  0.00  0.00    +0.143 HD
ENDROOT
BRANCH   1  21
ATOM     13  P   UNL     1     -33.010  21.130  -0.472  0.00  0.00    +0.476 P 
ATOM     14  O   UNL     1     -35.123  19.832   2.251  0.00  0.00    -0.333 OA
ATOM     15  O   UNL     1     -34.603  21.284  -0.268  0.00  0.00    -0.271 OA
ATOM     16  O   UNL     1     -32.586  20.145   0.739  0.00  0.00    -0.271 OA
ATOM     17  O   UNL     1     -32.249  22.422  -0.515  0.00  0.00    -0.227 OA
ATOM     18  C   UNL     1     -35.399  20.123  -0.063  0.00  0.00    +0.186 C 
ATOM     19  C   UNL     1     -34.813  19.198   0.997  0.00  0.00    +0.177 C 
ATOM     20  C   UNL     1     -36.695  20.562   0.592  0.00  0.00    +0.188 C 
ATOM     21  C   UNL     1     -36.371  20.534   2.089  0.00  0.00    +0.227 C 
ATOM     22  C   UNL     1     -33.317  18.937   0.904  0.00  0.00    +0.186 C 
BRANCH  20  23
ATOM     23  O   UNL     1     -37.716  19.601   0.336  0.00  0.00    -0.378 OA
ATOM     24  H   UNL     1     -37.476  18.756   0.749  0.00  0.00    +0.211 HD
ENDBRANCH  20  23
BRANCH  13  25
ATOM     25  O   UNL     1     -32.862  20.217  -1.800  0.00  0.00    -0.302 OA
ATOM     26  H   UNL     1     -32.794  19.284  -1.545  0.00  0.00    +0.222 HD
ENDBRANCH  13  25
ENDBRANCH   1  21
BRANCH   7  28
ATOM     27  N   UNL     1     -33.688  25.269   4.758  0.00  0.00    -0.191 NA
ATOM     28  C   UNL     1     -34.468  24.551   4.271  0.00  0.00    +0.098 C 
ENDBRANCH   7  28
TORSDOF 4
ENDMDL
MODEL 7
REMARK VINA RESULT:      -6.0      3.979      6.382
REMARK  Name = 191231
REMARK  4 active torsions:
REMARK  status: ('A' for Active; 'I' for Inactive)
REMARK    1  A    between atoms: N_1  and  C_18
REMARK    2  A    between atoms: C_7  and  C_28
REMARK    3  A    between atoms: P_10  and  O_22
REMARK    4  A    between atoms: C_17  and  O_20
REMARK                            x       y       z     vdW  Elec       q    Type
REMARK                         _______ _______ _______ _____ _____    ______ ____
ROOT
ATOM      1  N   UNL     1     -34.377  21.121   0.654  0.00  0.00    -0.249 N 
ATOM      2  N   UNL     1     -33.734  18.881   1.274  0.00  0.00    -0.233 NA
ATOM      3  N   UNL     1     -31.437  18.346   0.667  0.00  0.00    -0.234 NA
ATOM      4  C   UNL     1     -33.482  20.085   0.731  0.00  0.00    +0.122 C 
ATOM      5  C   UNL     1     -33.778  22.193   0.039  0.00  0.00    +0.075 C 
ATOM      6  C   UNL     1     -32.289  20.501   0.154  0.00  0.00    +0.141 C 
ATOM      7  C   UNL     1     -32.484  21.837  -0.282  0.00  0.00    +0.075 C 
ATOM      8  C   UNL     1     -31.246  19.576   0.137  0.00  0.00    +0.111 C 
ATOM      9  C   UNL     1     -32.653  18.078   1.196  0.00  0.00    +0.252 C 
ATOM     10  N   UNL     1     -29.997  19.897  -0.425  0.00  0.00    -0.346 N 
ATOM     11  H   UNL     1     -29.272  19.230  -0.428  0.00  0.00    +0.143 HD
ATOM     12  H   UNL     1     -29.847  20.789  -0.815  0.00  0.00    +0.143 HD
ENDROOT
BRANCH   1  21
ATOM     13  P   UNL     1     -35.064  24.141   4.062  0.00  0.00    +0.476 P 
ATOM     14  O   UNL     1     -36.325  22.423   1.059  0.00  0.00    -0.333 OA
ATOM     15  O   UNL     1     -35.040  22.565   3.715  0.00  0.00    -0.271 OA
ATOM     16  O   UNL     1     -35.904  24.769   2.831  0.00  0.00    -0.271 OA
ATOM     17  O   UNL     1     -33.714  24.763   4.273  0.00  0.00    -0.227 OA
ATOM     18  C   UNL     1     -36.249  21.911   3.350  0.00  0.00    +0.186 C 
ATOM     19  C   UNL     1     -37.027  22.680   2.288  0.00  0.00    +0.177 C 
ATOM     20  C   UNL     1     -35.880  20.643   2.603  0.00  0.00    +0.188 C 
ATOM     21  C   UNL     1     -35.756  21.102   1.148  0.00  0.00    +0.227 C 
ATOM     22  C   UNL     1     -37.156  24.180   2.508  0.00  0.00    +0.186 C 
BRANCH  20  23
ATOM     23  O   UNL     1     -36.948  19.703   2.688  0.00  0.00    -0.378 OA
ATOM     24  H   UNL     1     -36.713  19.001   3.314  0.00  0.00    +0.211 HD
ENDBRANCH  20  23
BRANCH  13  25
ATOM     25  O   UNL     1     -36.064  24.258   5.329  0.00  0.00    -0.302 OA
ATOM     26  H   UNL     1     -36.503  23.405   5.474  0.00  0.00    +0.222 HD
ENDBRANCH  13  25
ENDBRANCH   1  21
BRANCH   7  28
ATOM     27  N   UNL     1     -30.794  23.403  -1.466  0.00  0.00    -0.191 NA
ATOM     28  C   UNL     1     -31.556  22.698  -0.933  0.00  0.00    +0.098 C 
ENDBRANCH   7  28
TORSDOF 4
ENDMDL
MODEL 8
REMARK VINA RESULT:      -5.9      3.971      6.511
REMARK  Name = 191231
REMARK  4 active torsions:
REMARK  status: ('A' for Active; 'I' for Inactive)
REMARK    1  A    between atoms: N_1  and  C_18
REMARK    2  A    between atoms: C_7  and  C_28
REMARK    3  A    between atoms: P_10  and  O_22
REMARK    4  A    between atoms: C_17  and  O_20
REMARK                            x       y       z     vdW  Elec       q    Type
REMARK                         _______ _______ _______ _____ _____    ______ ____
ROOT
ATOM      1  N   UNL     1     -35.501  24.682   2.492  0.00  0.00    -0.249 N 
ATOM      2  N   UNL     1     -33.838  25.320   4.117  0.00  0.00    -0.233 NA
ATOM      3  N   UNL     1     -33.673  27.732   4.415  0.00  0.00    -0.234 NA
ATOM      4  C   UNL     1     -34.796  25.607   3.218  0.00  0.00    +0.122 C 
ATOM      5  C   UNL     1     -36.395  25.331   1.677  0.00  0.00    +0.075 C 
ATOM      6  C   UNL     1     -35.248  26.871   2.862  0.00  0.00    +0.141 C 
ATOM      7  C   UNL     1     -36.260  26.688   1.885  0.00  0.00    +0.075 C 
ATOM      8  C   UNL     1     -34.645  27.954   3.501  0.00  0.00    +0.111 C 
ATOM      9  C   UNL     1     -33.334  26.446   4.663  0.00  0.00    +0.252 C 
ATOM     10  N   UNL     1     -35.029  29.276   3.211  0.00  0.00    -0.346 N 
ATOM     11  H   UNL     1     -34.592  30.028   3.673  0.00  0.00    +0.143 HD
ATOM     12  H   UNL     1     -35.735  29.450   2.547  0.00  0.00    +0.143 HD
ENDROOT
BRANCH   1  21
ATOM     13  P   UNL     1     -39.449  22.430   1.751  0.00  0.00    +0.476 P 
ATOM     14  O   UNL     1     -35.795  22.623   1.339  0.00  0.00    -0.333 OA
ATOM     15  O   UNL     1     -38.321  22.732   2.865  0.00  0.00    -0.271 OA
ATOM     16  O   UNL     1     -38.573  22.093   0.434  0.00  0.00    -0.271 OA
ATOM     17  O   UNL     1     -40.459  23.523   1.561  0.00  0.00    -0.227 OA
ATOM     18  C   UNL     1     -37.231  21.832   3.020  0.00  0.00    +0.186 C 
ATOM     19  C   UNL     1     -36.583  21.471   1.688  0.00  0.00    +0.177 C 
ATOM     20  C   UNL     1     -36.110  22.580   3.716  0.00  0.00    +0.188 C 
ATOM     21  C   UNL     1     -35.336  23.228   2.564  0.00  0.00    +0.227 C 
ATOM     22  C   UNL     1     -37.535  21.130   0.552  0.00  0.00    +0.186 C 
BRANCH  20  23
ATOM     23  O   UNL     1     -35.246  21.656   4.373  0.00  0.00    -0.378 OA
ATOM     24  H   UNL     1     -35.227  20.823   3.876  0.00  0.00    +0.211 HD
ENDBRANCH  20  23
BRANCH  13  25
ATOM     25  O   UNL     1     -40.075  21.004   2.191  0.00  0.00    -0.302 OA
ATOM     26  H   UNL     1     -39.752  20.768   3.074  0.00  0.00    +0.222 HD
ENDBRANCH  13  25
ENDBRANCH   1  21
BRANCH   7  28
ATOM     27  N   UNL     1     -37.657  28.495   0.661  0.00  0.00    -0.191 NA
ATOM     28  C   UNL     1     -37.027  27.681   1.211  0.00  0.00    +0.098 C 
ENDBRANCH   7  28
TORSDOF 4
ENDMDL
MODEL 9
REMARK VINA RESULT:      -5.9      4.051      6.395
REMARK  Name = 191231
REMARK  4 active torsions:
REMARK  status: ('A' for Active; 'I' for Inactive)
REMARK    1  A    between atoms: N_1  and  C_18
REMARK    2  A    between atoms: C_7  and  C_28
REMARK    3  A    between atoms: P_10  and  O_22
REMARK    4  A    between atoms: C_17  and  O_20
REMARK                            x       y       z     vdW  Elec       q    Type
REMARK                         _______ _______ _______ _____ _____    ______ ____
ROOT
ATOM      1  N   UNL     1     -37.565  23.342   2.638  0.00  0.00    -0.249 N 
ATOM      2  N   UNL     1     -36.290  22.964   4.651  0.00  0.00    -0.233 NA
ATOM      3  N   UNL     1     -35.233  24.985   5.502  0.00  0.00    -0.234 NA
ATOM      4  C   UNL     1     -36.765  23.755   3.673  0.00  0.00    +0.122 C 
ATOM      5  C   UNL     1     -37.856  24.415   1.834  0.00  0.00    +0.075 C 
ATOM      6  C   UNL     1     -36.541  25.118   3.527  0.00  0.00    +0.141 C 
ATOM      7  C   UNL     1     -37.235  25.529   2.359  0.00  0.00    +0.075 C 
ATOM      8  C   UNL     1     -35.742  25.728   4.493  0.00  0.00    +0.111 C 
ATOM      9  C   UNL     1     -35.535  23.666   5.519  0.00  0.00    +0.252 C 
ATOM     10  N   UNL     1     -35.453  27.103   4.436  0.00  0.00    -0.346 N 
ATOM     11  H   UNL     1     -34.886  27.516   5.128  0.00  0.00    +0.143 HD
ATOM     12  H   UNL     1     -35.817  27.654   3.706  0.00  0.00    +0.143 HD
ENDROOT
BRANCH   1  21
ATOM     13  P   UNL     1     -36.787  21.891  -1.662  0.00  0.00    +0.476 P 
ATOM     14  O   UNL     1     -36.957  21.151   1.941  0.00  0.00    -0.333 OA
ATOM     15  O   UNL     1     -37.956  22.253  -0.610  0.00  0.00    -0.271 OA
ATOM     16  O   UNL     1     -35.769  20.999  -0.776  0.00  0.00    -0.271 OA
ATOM     17  O   UNL     1     -36.151  23.072  -2.334  0.00  0.00    -0.227 OA
ATOM     18  C   UNL     1     -38.521  21.222   0.191  0.00  0.00    +0.186 C 
ATOM     19  C   UNL     1     -37.457  20.354   0.853  0.00  0.00    +0.177 C 
ATOM     20  C   UNL     1     -39.175  21.879   1.392  0.00  0.00    +0.188 C 
ATOM     21  C   UNL     1     -38.041  21.974   2.416  0.00  0.00    +0.227 C 
ATOM     22  C   UNL     1     -36.306  19.911  -0.037  0.00  0.00    +0.186 C 
BRANCH  20  23
ATOM     23  O   UNL     1     -40.185  21.022   1.920  0.00  0.00    -0.378 OA
ATOM     24  H   UNL     1     -41.057  21.334   1.631  0.00  0.00    +0.211 HD
ENDBRANCH  20  23
BRANCH  13  25
ATOM     25  O   UNL     1     -37.472  20.829  -2.673  0.00  0.00    -0.302 OA
ATOM     26  H   UNL     1     -38.022  21.304  -3.316  0.00  0.00    +0.222 HD
ENDBRANCH  13  25
ENDBRANCH   1  21
BRANCH   7  28
ATOM     27  N   UNL     1     -37.375  27.899   1.323  0.00  0.00    -0.191 NA
ATOM     28  C   UNL     1     -37.312  26.832   1.790  0.00  0.00    +0.098 C 
ENDBRANCH   7  28
TORSDOF 4
ENDMDL
