MODEL 1
REMARK VINA RESULT:      -6.0      0.000      0.000
REMARK  Name = 5477554
REMARK  13 active torsions:
REMARK  status: ('A' for Active; 'I' for Inactive)
REMARK    1  A    between atoms: C_1  and  O_2
REMARK    2  A    between atoms: C_1  and  C_6
REMARK    3  A    between atoms: C_1  and  C_17
REMARK    4  A    between atoms: O_2  and  C_4
REMARK    5  A    between atoms: C_6  and  C_7
REMARK    6  A    between atoms: C_6  and  O_13
REMARK    7  A    between atoms: C_7  and  O_9
REMARK    8  A    between atoms: O_9  and  C_11
REMARK    9  A    between atoms: O_13  and  C_15
REMARK   10  A    between atoms: C_17  and  C_18
REMARK   11  A    between atoms: C_17  and  O_27
REMARK   12  A    between atoms: C_19  and  C_22
REMARK   13  A    between atoms: O_27  and  C_29
REMARK                            x       y       z     vdW  Elec       q    Type
REMARK                         _______ _______ _______ _____ _____    ______ ____
ROOT
ATOM      1  C   UNL     1     -36.763  23.896   2.529  0.00  0.00    +0.256 C 
ENDROOT
BRANCH   1   2
ATOM      2  O   UNL     1     -37.919  24.026   3.362  0.00  0.00    -0.444 OA
BRANCH   2   4
ATOM      3  O   UNL     1     -38.232  26.261   2.868  0.00  0.00    -0.250 OA
ATOM      4  C   UNL     1     -38.660  25.154   3.165  0.00  0.00    +0.318 C 
ATOM      5  C   UNL     1     -40.112  24.843   3.369  0.00  0.00    +0.121 C 
ENDBRANCH   2   4
ENDBRANCH   1   2
BRANCH   1   6
ATOM      6  C   UNL     1     -35.541  23.572   3.416  0.00  0.00    +0.252 C 
BRANCH   6   7
ATOM      7  C   UNL     1     -34.531  24.728   3.552  0.00  0.00    +0.212 C 
ATOM      8  C   UNL     1     -33.785  24.988   2.247  0.00  0.00    +0.051 C 
BRANCH   7   9
ATOM      9  O   UNL     1     -35.197  25.930   3.930  0.00  0.00    -0.448 OA
BRANCH   9  11
ATOM     10  O   UNL     1     -36.312  26.278   5.923  0.00  0.00    -0.250 OA
ATOM     11  C   UNL     1     -35.281  26.162   5.274  0.00  0.00    +0.318 C 
ATOM     12  C   UNL     1     -33.905  26.256   5.860  0.00  0.00    +0.121 C 
ENDBRANCH   9  11
ENDBRANCH   7   9
ENDBRANCH   6   7
BRANCH   6  13
ATOM     13  O   UNL     1     -35.992  23.173   4.711  0.00  0.00    -0.445 OA
BRANCH  13  15
ATOM     14  O   UNL     1     -35.184  21.018   4.512  0.00  0.00    -0.250 OA
ATOM     15  C   UNL     1     -35.472  22.001   5.181  0.00  0.00    +0.318 C 
ATOM     16  C   UNL     1     -35.298  22.087   6.666  0.00  0.00    +0.121 C 
ENDBRANCH  13  15
ENDBRANCH   6  13
ENDBRANCH   1   6
BRANCH   1  17
ATOM     17  C   UNL     1     -37.076  22.823   1.469  0.00  0.00    +0.234 C 
BRANCH  17  18
ATOM     18  C   UNL     1     -35.850  22.133   0.942  0.00  0.00    +0.020 C 
ATOM     19  C   UNL     1     -35.617  20.820   1.091  0.00  0.00    +0.016 C 
BRANCH  19  22
ATOM     20  O   UNL     1     -33.429  21.135   0.215  0.00  0.00    -0.444 OA
ATOM     21  O   UNL     1     -31.390  21.521  -0.699  0.00  0.00    -0.245 OA
ATOM     22  C   UNL     1     -34.401  20.127   0.568  0.00  0.00    +0.195 C 
ATOM     23  C   UNL     1     -33.821  19.161   1.594  0.00  0.00    +0.075 C 
ATOM     24  C   UNL     1     -32.491  18.685   1.115  0.00  0.00    -0.015 C 
ATOM     25  C   UNL     1     -32.164  20.766  -0.120  0.00  0.00    +0.341 C 
ATOM     26  C   UNL     1     -31.738  19.414   0.285  0.00  0.00    +0.077 C 
ENDBRANCH  19  22
ENDBRANCH  17  18
BRANCH  17  27
ATOM     27  O   UNL     1     -37.904  21.833   2.090  0.00  0.00    -0.444 OA
BRANCH  27  29
ATOM     28  O   UNL     1     -40.111  21.152   2.117  0.00  0.00    -0.250 OA
ATOM     29  C   UNL     1     -39.172  21.739   1.598  0.00  0.00    +0.318 C 
ATOM     30  C   UNL     1     -39.259  22.479   0.296  0.00  0.00    +0.121 C 
ENDBRANCH  27  29
ENDBRANCH  17  27
ENDBRANCH   1  17
TORSDOF 13
ENDMDL
MODEL 2
REMARK VINA RESULT:      -5.9      1.657      2.027
REMARK  Name = 5477554
REMARK  13 active torsions:
REMARK  status: ('A' for Active; 'I' for Inactive)
REMARK    1  A    between atoms: C_1  and  O_2
REMARK    2  A    between atoms: C_1  and  C_6
REMARK    3  A    between atoms: C_1  and  C_17
REMARK    4  A    between atoms: O_2  and  C_4
REMARK    5  A    between atoms: C_6  and  C_7
REMARK    6  A    between atoms: C_6  and  O_13
REMARK    7  A    between atoms: C_7  and  O_9
REMARK    8  A    between atoms: O_9  and  C_11
REMARK    9  A    between atoms: O_13  and  C_15
REMARK   10  A    between atoms: C_17  and  C_18
REMARK   11  A    between atoms: C_17  and  O_27
REMARK   12  A    between atoms: C_19  and  C_22
REMARK   13  A    between atoms: O_27  and  C_29
REMARK                            x       y       z     vdW  Elec       q    Type
REMARK                         _______ _______ _______ _____ _____    ______ ____
ROOT
ATOM      1  C   UNL     1     -36.582  22.917   2.002  0.00  0.00    +0.256 C 
ENDROOT
BRANCH   1   2
ATOM      2  O   UNL     1     -37.861  22.741   2.620  0.00  0.00    -0.444 OA
BRANCH   2   4
ATOM      3  O   UNL     1     -38.859  24.505   3.729  0.00  0.00    -0.250 OA
ATOM      4  C   UNL     1     -38.627  23.865   2.712  0.00  0.00    +0.318 C 
ATOM      5  C   UNL     1     -39.163  24.218   1.358  0.00  0.00    +0.121 C 
ENDBRANCH   2   4
ENDBRANCH   1   2
BRANCH   1   6
ATOM      6  C   UNL     1     -35.499  22.984   3.101  0.00  0.00    +0.252 C 
BRANCH   6   7
ATOM      7  C   UNL     1     -34.753  24.330   3.174  0.00  0.00    +0.212 C 
ATOM      8  C   UNL     1     -34.293  24.802   1.798  0.00  0.00    +0.051 C 
BRANCH   7   9
ATOM      9  O   UNL     1     -35.593  25.337   3.732  0.00  0.00    -0.448 OA
BRANCH   9  11
ATOM     10  O   UNL     1     -34.818  27.469   4.166  0.00  0.00    -0.250 OA
ATOM     11  C   UNL     1     -34.958  26.293   4.473  0.00  0.00    +0.318 C 
ATOM     12  C   UNL     1     -34.446  25.691   5.746  0.00  0.00    +0.121 C 
ENDBRANCH   9  11
ENDBRANCH   7   9
ENDBRANCH   6   7
BRANCH   6  13
ATOM     13  O   UNL     1     -36.095  22.695   4.366  0.00  0.00    -0.445 OA
BRANCH  13  15
ATOM     14  O   UNL     1     -35.073  20.643   4.659  0.00  0.00    -0.250 OA
ATOM     15  C   UNL     1     -35.487  21.711   5.091  0.00  0.00    +0.318 C 
ATOM     16  C   UNL     1     -35.395  22.128   6.528  0.00  0.00    +0.121 C 
ENDBRANCH  13  15
ENDBRANCH   6  13
ENDBRANCH   1   6
BRANCH   1  17
ATOM     17  C   UNL     1     -36.392  21.764   0.997  0.00  0.00    +0.234 C 
BRANCH  17  18
ATOM     18  C   UNL     1     -35.013  21.169   1.030  0.00  0.00    +0.020 C 
ATOM     19  C   UNL     1     -34.772  19.867   1.242  0.00  0.00    +0.016 C 
BRANCH  19  22
ATOM     20  O   UNL     1     -33.499  17.911   0.792  0.00  0.00    -0.444 OA
ATOM     21  O   UNL     1     -32.369  15.978   0.426  0.00  0.00    -0.245 OA
ATOM     22  C   UNL     1     -33.404  19.269   1.274  0.00  0.00    +0.195 C 
ATOM     23  C   UNL     1     -32.422  20.069   0.426  0.00  0.00    +0.075 C 
ATOM     24  C   UNL     1     -31.149  19.300   0.301  0.00  0.00    -0.015 C 
ATOM     25  C   UNL     1     -32.366  17.198   0.551  0.00  0.00    +0.341 C 
ATOM     26  C   UNL     1     -31.118  17.968   0.400  0.00  0.00    +0.077 C 
ENDBRANCH  19  22
ENDBRANCH  17  18
BRANCH  17  27
ATOM     27  O   UNL     1     -37.323  20.732   1.345  0.00  0.00    -0.444 OA
BRANCH  27  29
ATOM     28  O   UNL     1     -39.265  21.056   0.137  0.00  0.00    -0.250 OA
ATOM     29  C   UNL     1     -38.245  20.430   0.387  0.00  0.00    +0.318 C 
ATOM     30  C   UNL     1     -37.822  19.188  -0.339  0.00  0.00    +0.121 C 
ENDBRANCH  27  29
ENDBRANCH  17  27
ENDBRANCH   1  17
TORSDOF 13
ENDMDL
MODEL 3
REMARK VINA RESULT:      -5.9      2.240      6.601
REMARK  Name = 5477554
REMARK  13 active torsions:
REMARK  status: ('A' for Active; 'I' for Inactive)
REMARK    1  A    between atoms: C_1  and  O_2
REMARK    2  A    between atoms: C_1  and  C_6
REMARK    3  A    between atoms: C_1  and  C_17
REMARK    4  A    between atoms: O_2  and  C_4
REMARK    5  A    between atoms: C_6  and  C_7
REMARK    6  A    between atoms: C_6  and  O_13
REMARK    7  A    between atoms: C_7  and  O_9
REMARK    8  A    between atoms: O_9  and  C_11
REMARK    9  A    between atoms: O_13  and  C_15
REMARK   10  A    between atoms: C_17  and  C_18
REMARK   11  A    between atoms: C_17  and  O_27
REMARK   12  A    between atoms: C_19  and  C_22
REMARK   13  A    between atoms: O_27  and  C_29
REMARK                            x       y       z     vdW  Elec       q    Type
REMARK                         _______ _______ _______ _____ _____    ______ ____
ROOT
ATOM      1  C   UNL     1     -36.414  23.395   3.139  0.00  0.00    +0.256 C 
ENDROOT
BRANCH   1   2
ATOM      2  O   UNL     1     -36.678  22.736   4.382  0.00  0.00    -0.444 OA
BRANCH   2   4
ATOM      3  O   UNL     1     -35.190  20.969   4.334  0.00  0.00    -0.250 OA
ATOM      4  C   UNL     1     -35.661  21.966   4.864  0.00  0.00    +0.318 C 
ATOM      5  C   UNL     1     -35.186  22.524   6.172  0.00  0.00    +0.121 C 
ENDBRANCH   2   4
ENDBRANCH   1   2
BRANCH   1   6
ATOM      6  C   UNL     1     -37.256  22.728   2.030  0.00  0.00    +0.252 C 
BRANCH   6   7
ATOM      7  C   UNL     1     -36.447  21.838   1.068  0.00  0.00    +0.212 C 
ATOM      8  C   UNL     1     -34.972  22.223   1.041  0.00  0.00    +0.051 C 
BRANCH   7   9
ATOM      9  O   UNL     1     -36.542  20.470   1.454  0.00  0.00    -0.448 OA
BRANCH   9  11
ATOM     10  O   UNL     1     -35.733  18.720   0.183  0.00  0.00    -0.250 OA
ATOM     11  C   UNL     1     -36.580  19.567   0.430  0.00  0.00    +0.318 C 
ATOM     12  C   UNL     1     -37.834  19.758  -0.368  0.00  0.00    +0.121 C 
ENDBRANCH   9  11
ENDBRANCH   7   9
ENDBRANCH   6   7
BRANCH   6  13
ATOM     13  O   UNL     1     -38.302  21.963   2.629  0.00  0.00    -0.445 OA
BRANCH  13  15
ATOM     14  O   UNL     1     -40.274  21.152   1.740  0.00  0.00    -0.250 OA
ATOM     15  C   UNL     1     -39.527  22.074   2.038  0.00  0.00    +0.318 C 
ATOM     16  C   UNL     1     -39.841  23.520   1.798  0.00  0.00    +0.121 C 
ENDBRANCH  13  15
ENDBRANCH   6  13
ENDBRANCH   1   6
BRANCH   1  17
ATOM     17  C   UNL     1     -36.708  24.894   3.341  0.00  0.00    +0.234 C 
BRANCH  17  18
ATOM     18  C   UNL     1     -35.673  25.596   4.174  0.00  0.00    +0.020 C 
ATOM     19  C   UNL     1     -34.365  25.607   3.876  0.00  0.00    +0.016 C 
BRANCH  19  22
ATOM     20  O   UNL     1     -33.218  27.661   4.217  0.00  0.00    -0.444 OA
ATOM     21  O   UNL     1     -32.101  29.625   4.419  0.00  0.00    -0.245 OA
ATOM     22  C   UNL     1     -33.331  26.304   4.698  0.00  0.00    +0.195 C 
ATOM     23  C   UNL     1     -33.689  26.291   6.179  0.00  0.00    +0.075 C 
ATOM     24  C   UNL     1     -32.758  27.197   6.912  0.00  0.00    -0.015 C 
ATOM     25  C   UNL     1     -32.473  28.564   4.909  0.00  0.00    +0.341 C 
ATOM     26  C   UNL     1     -32.161  28.230   6.311  0.00  0.00    +0.077 C 
ENDBRANCH  19  22
ENDBRANCH  17  18
BRANCH  17  27
ATOM     27  O   UNL     1     -36.720  25.509   2.047  0.00  0.00    -0.444 OA
BRANCH  27  29
ATOM     28  O   UNL     1     -38.659  26.737   2.303  0.00  0.00    -0.250 OA
ATOM     29  C   UNL     1     -37.498  26.622   1.936  0.00  0.00    +0.318 C 
ATOM     30  C   UNL     1     -36.711  27.719   1.283  0.00  0.00    +0.121 C 
ENDBRANCH  27  29
ENDBRANCH  17  27
ENDBRANCH   1  17
TORSDOF 13
ENDMDL
MODEL 4
REMARK VINA RESULT:      -5.8      2.922      6.626
REMARK  Name = 5477554
REMARK  13 active torsions:
REMARK  status: ('A' for Active; 'I' for Inactive)
REMARK    1  A    between atoms: C_1  and  O_2
REMARK    2  A    between atoms: C_1  and  C_6
REMARK    3  A    between atoms: C_1  and  C_17
REMARK    4  A    between atoms: O_2  and  C_4
REMARK    5  A    between atoms: C_6  and  C_7
REMARK    6  A    between atoms: C_6  and  O_13
REMARK    7  A    between atoms: C_7  and  O_9
REMARK    8  A    between atoms: O_9  and  C_11
REMARK    9  A    between atoms: O_13  and  C_15
REMARK   10  A    between atoms: C_17  and  C_18
REMARK   11  A    between atoms: C_17  and  O_27
REMARK   12  A    between atoms: C_19  and  C_22
REMARK   13  A    between atoms: O_27  and  C_29
REMARK                            x       y       z     vdW  Elec       q    Type
REMARK                         _______ _______ _______ _____ _____    ______ ____
ROOT
ATOM      1  C   UNL     1     -37.210  24.820   2.574  0.00  0.00    +0.256 C 
ENDROOT
BRANCH   1   2
ATOM      2  O   UNL     1     -37.478  26.225   2.611  0.00  0.00    -0.444 OA
BRANCH   2   4
ATOM      3  O   UNL     1     -38.023  27.891   1.107  0.00  0.00    -0.250 OA
ATOM      4  C   UNL     1     -37.432  26.863   1.407  0.00  0.00    +0.318 C 
ATOM      5  C   UNL     1     -36.534  26.108   0.474  0.00  0.00    +0.121 C 
ENDBRANCH   2   4
ENDBRANCH   1   2
BRANCH   1   6
ATOM      6  C   UNL     1     -36.081  24.498   3.577  0.00  0.00    +0.252 C 
BRANCH   6   7
ATOM      7  C   UNL     1     -35.502  25.731   4.297  0.00  0.00    +0.212 C 
ATOM      8  C   UNL     1     -36.031  25.859   5.722  0.00  0.00    +0.051 C 
BRANCH   7   9
ATOM      9  O   UNL     1     -34.081  25.654   4.355  0.00  0.00    -0.448 OA
BRANCH   9  11
ATOM     10  O   UNL     1     -32.678  27.164   5.397  0.00  0.00    -0.250 OA
ATOM     11  C   UNL     1     -33.428  26.847   4.484  0.00  0.00    +0.318 C 
ATOM     12  C   UNL     1     -33.763  27.737   3.326  0.00  0.00    +0.121 C 
ENDBRANCH   9  11
ENDBRANCH   7   9
ENDBRANCH   6   7
BRANCH   6  13
ATOM     13  O   UNL     1     -36.561  23.560   4.540  0.00  0.00    -0.445 OA
BRANCH  13  15
ATOM     14  O   UNL     1     -35.436  21.673   3.827  0.00  0.00    -0.250 OA
ATOM     15  C   UNL     1     -35.795  22.443   4.708  0.00  0.00    +0.318 C 
ATOM     16  C   UNL     1     -35.444  22.285   6.156  0.00  0.00    +0.121 C 
ENDBRANCH  13  15
ENDBRANCH   6  13
ENDBRANCH   1   6
BRANCH   1  17
ATOM     17  C   UNL     1     -38.536  24.089   2.860  0.00  0.00    +0.234 C 
BRANCH  17  18
ATOM     18  C   UNL     1     -39.675  25.021   3.163  0.00  0.00    +0.020 C 
ATOM     19  C   UNL     1     -40.704  25.230   2.328  0.00  0.00    +0.016 C 
BRANCH  19  22
ATOM     20  O   UNL     1     -41.386  27.126   3.590  0.00  0.00    -0.444 OA
ATOM     21  O   UNL     1     -41.988  28.880   4.895  0.00  0.00    -0.245 OA
ATOM     22  C   UNL     1     -41.840  26.153   2.624  0.00  0.00    +0.195 C 
ATOM     23  C   UNL     1     -42.342  26.847   1.363  0.00  0.00    +0.075 C 
ATOM     24  C   UNL     1     -43.302  27.921   1.749  0.00  0.00    -0.015 C 
ATOM     25  C   UNL     1     -42.173  28.192   3.898  0.00  0.00    +0.341 C 
ATOM     26  C   UNL     1     -43.248  28.519   2.944  0.00  0.00    +0.077 C 
ENDBRANCH  19  22
ENDBRANCH  17  18
BRANCH  17  27
ATOM     27  O   UNL     1     -38.880  23.343   1.686  0.00  0.00    -0.444 OA
BRANCH  27  29
ATOM     28  O   UNL     1     -40.146  21.511   2.300  0.00  0.00    -0.250 OA
ATOM     29  C   UNL     1     -39.111  22.015   1.885  0.00  0.00    +0.318 C 
ATOM     30  C   UNL     1     -37.888  21.233   1.511  0.00  0.00    +0.121 C 
ENDBRANCH  27  29
ENDBRANCH  17  27
ENDBRANCH   1  17
TORSDOF 13
ENDMDL
MODEL 5
REMARK VINA RESULT:      -5.8      1.116      3.050
REMARK  Name = 5477554
REMARK  13 active torsions:
REMARK  status: ('A' for Active; 'I' for Inactive)
REMARK    1  A    between atoms: C_1  and  O_2
REMARK    2  A    between atoms: C_1  and  C_6
REMARK    3  A    between atoms: C_1  and  C_17
REMARK    4  A    between atoms: O_2  and  C_4
REMARK    5  A    between atoms: C_6  and  C_7
REMARK    6  A    between atoms: C_6  and  O_13
REMARK    7  A    between atoms: C_7  and  O_9
REMARK    8  A    between atoms: O_9  and  C_11
REMARK    9  A    between atoms: O_13  and  C_15
REMARK   10  A    between atoms: C_17  and  C_18
REMARK   11  A    between atoms: C_17  and  O_27
REMARK   12  A    between atoms: C_19  and  C_22
REMARK   13  A    between atoms: O_27  and  C_29
REMARK                            x       y       z     vdW  Elec       q    Type
REMARK                         _______ _______ _______ _____ _____    ______ ____
ROOT
ATOM      1  C   UNL     1     -36.693  23.004   3.200  0.00  0.00    +0.256 C 
ENDROOT
BRANCH   1   2
ATOM      2  O   UNL     1     -35.373  22.733   3.681  0.00  0.00    -0.444 OA
BRANCH   2   4
ATOM      3  O   UNL     1     -35.160  20.676   4.709  0.00  0.00    -0.250 OA
ATOM      4  C   UNL     1     -35.300  21.890   4.750  0.00  0.00    +0.318 C 
ATOM      5  C   UNL     1     -35.421  22.678   6.020  0.00  0.00    +0.121 C 
ENDBRANCH   2   4
ENDBRANCH   1   2
BRANCH   1   6
ATOM      6  C   UNL     1     -36.913  24.532   3.173  0.00  0.00    +0.252 C 
BRANCH   6   7
ATOM      7  C   UNL     1     -35.649  25.349   2.843  0.00  0.00    +0.212 C 
ATOM      8  C   UNL     1     -35.842  26.223   1.608  0.00  0.00    +0.051 C 
BRANCH   7   9
ATOM      9  O   UNL     1     -35.300  26.193   3.936  0.00  0.00    -0.448 OA
BRANCH   9  11
ATOM     10  O   UNL     1     -33.368  25.228   4.755  0.00  0.00    -0.250 OA
ATOM     11  C   UNL     1     -33.983  26.181   4.297  0.00  0.00    +0.318 C 
ATOM     12  C   UNL     1     -33.377  27.530   4.049  0.00  0.00    +0.121 C 
ENDBRANCH   9  11
ENDBRANCH   7   9
ENDBRANCH   6   7
BRANCH   6  13
ATOM     13  O   UNL     1     -37.944  24.842   2.235  0.00  0.00    -0.445 OA
BRANCH  13  15
ATOM     14  O   UNL     1     -39.608  24.613   3.821  0.00  0.00    -0.250 OA
ATOM     15  C   UNL     1     -39.179  25.071   2.771  0.00  0.00    +0.318 C 
ATOM     16  C   UNL     1     -39.956  25.986   1.874  0.00  0.00    +0.121 C 
ENDBRANCH  13  15
ENDBRANCH   6  13
ENDBRANCH   1   6
BRANCH   1  17
ATOM     17  C   UNL     1     -36.832  22.321   1.825  0.00  0.00    +0.234 C 
BRANCH  17  18
ATOM     18  C   UNL     1     -35.538  21.759   1.307  0.00  0.00    +0.020 C 
ATOM     19  C   UNL     1     -35.365  20.467   0.992  0.00  0.00    +0.016 C 
BRANCH  19  22
ATOM     20  O   UNL     1     -33.178  21.000   0.228  0.00  0.00    -0.444 OA
ATOM     21  O   UNL     1     -31.142  21.595  -0.576  0.00  0.00    -0.245 OA
ATOM     22  C   UNL     1     -34.083  19.902   0.475  0.00  0.00    +0.195 C 
ATOM     23  C   UNL     1     -33.468  18.914   1.459  0.00  0.00    +0.075 C 
ATOM     24  C   UNL     1     -32.089  18.570   1.005  0.00  0.00    -0.015 C 
ATOM     25  C   UNL     1     -31.877  20.748  -0.079  0.00  0.00    +0.341 C 
ATOM     26  C   UNL     1     -31.365  19.407   0.255  0.00  0.00    +0.077 C 
ENDBRANCH  19  22
ENDBRANCH  17  18
BRANCH  17  27
ATOM     27  O   UNL     1     -37.754  21.235   1.974  0.00  0.00    -0.444 OA
BRANCH  27  29
ATOM     28  O   UNL     1     -40.056  21.215   2.151  0.00  0.00    -0.250 OA
ATOM     29  C   UNL     1     -39.026  21.486   1.552  0.00  0.00    +0.318 C 
ATOM     30  C   UNL     1     -38.984  22.162   0.214  0.00  0.00    +0.121 C 
ENDBRANCH  27  29
ENDBRANCH  17  27
ENDBRANCH   1  17
TORSDOF 13
ENDMDL
MODEL 6
REMARK VINA RESULT:      -5.8      1.489      3.367
REMARK  Name = 5477554
REMARK  13 active torsions:
REMARK  status: ('A' for Active; 'I' for Inactive)
REMARK    1  A    between atoms: C_1  and  O_2
REMARK    2  A    between atoms: C_1  and  C_6
REMARK    3  A    between atoms: C_1  and  C_17
REMARK    4  A    between atoms: O_2  and  C_4
REMARK    5  A    between atoms: C_6  and  C_7
REMARK    6  A    between atoms: C_6  and  O_13
REMARK    7  A    between atoms: C_7  and  O_9
REMARK    8  A    between atoms: O_9  and  C_11
REMARK    9  A    between atoms: O_13  and  C_15
REMARK   10  A    between atoms: C_17  and  C_18
REMARK   11  A    between atoms: C_17  and  O_27
REMARK   12  A    between atoms: C_19  and  C_22
REMARK   13  A    between atoms: O_27  and  C_29
REMARK                            x       y       z     vdW  Elec       q    Type
REMARK                         _______ _______ _______ _____ _____    ______ ____
ROOT
ATOM      1  C   UNL     1     -36.529  22.851   3.378  0.00  0.00    +0.256 C 
ENDROOT
BRANCH   1   2
ATOM      2  O   UNL     1     -35.247  22.624   3.973  0.00  0.00    -0.444 OA
BRANCH   2   4
ATOM      3  O   UNL     1     -35.112  20.648   5.162  0.00  0.00    -0.250 OA
ATOM      4  C   UNL     1     -35.253  21.862   5.103  0.00  0.00    +0.318 C 
ATOM      5  C   UNL     1     -35.463  22.741   6.299  0.00  0.00    +0.121 C 
ENDBRANCH   2   4
ENDBRANCH   1   2
BRANCH   1   6
ATOM      6  C   UNL     1     -36.758  24.373   3.247  0.00  0.00    +0.252 C 
BRANCH   6   7
ATOM      7  C   UNL     1     -35.470  25.191   3.037  0.00  0.00    +0.212 C 
ATOM      8  C   UNL     1     -35.160  25.397   1.558  0.00  0.00    +0.051 C 
BRANCH   7   9
ATOM      9  O   UNL     1     -35.587  26.473   3.649  0.00  0.00    -0.448 OA
BRANCH   9  11
ATOM     10  O   UNL     1     -33.910  28.001   4.078  0.00  0.00    -0.250 OA
ATOM     11  C   UNL     1     -34.467  26.932   4.282  0.00  0.00    +0.318 C 
ATOM     12  C   UNL     1     -34.002  25.921   5.286  0.00  0.00    +0.121 C 
ENDBRANCH   9  11
ENDBRANCH   7   9
ENDBRANCH   6   7
BRANCH   6  13
ATOM     13  O   UNL     1     -37.666  24.621   2.173  0.00  0.00    -0.445 OA
BRANCH  13  15
ATOM     14  O   UNL     1     -38.722  26.673   2.283  0.00  0.00    -0.250 OA
ATOM     15  C   UNL     1     -38.702  25.462   2.460  0.00  0.00    +0.318 C 
ATOM     16  C   UNL     1     -39.842  24.679   3.036  0.00  0.00    +0.121 C 
ENDBRANCH  13  15
ENDBRANCH   6  13
ENDBRANCH   1   6
BRANCH   1  17
ATOM     17  C   UNL     1     -36.557  22.091   2.038  0.00  0.00    +0.234 C 
BRANCH  17  18
ATOM     18  C   UNL     1     -35.255  21.418   1.709  0.00  0.00    +0.020 C 
ATOM     19  C   UNL     1     -35.063  20.093   1.792  0.00  0.00    +0.016 C 
BRANCH  19  22
ATOM     20  O   UNL     1     -34.075  18.141   0.861  0.00  0.00    -0.444 OA
ATOM     21  O   UNL     1     -33.209  16.210   0.045  0.00  0.00    -0.245 OA
ATOM     22  C   UNL     1     -33.772  19.418   1.464  0.00  0.00    +0.195 C 
ATOM     23  C   UNL     1     -32.919  20.262   0.525  0.00  0.00    +0.075 C 
ATOM     24  C   UNL     1     -31.766  19.445   0.047  0.00  0.00    -0.015 C 
ATOM     25  C   UNL     1     -33.078  17.401   0.306  0.00  0.00    +0.341 C 
ATOM     26  C   UNL     1     -31.827  18.111  -0.016  0.00  0.00    +0.077 C 
ENDBRANCH  19  22
ENDBRANCH  17  18
BRANCH  17  27
ATOM     27  O   UNL     1     -37.562  21.075   2.140  0.00  0.00    -0.444 OA
BRANCH  27  29
ATOM     28  O   UNL     1     -39.866  21.223   2.063  0.00  0.00    -0.250 OA
ATOM     29  C   UNL     1     -38.760  21.377   1.564  0.00  0.00    +0.318 C 
ATOM     30  C   UNL     1     -38.527  21.943   0.195  0.00  0.00    +0.121 C 
ENDBRANCH  27  29
ENDBRANCH  17  27
ENDBRANCH   1  17
TORSDOF 13
ENDMDL
MODEL 7
REMARK VINA RESULT:      -5.7      2.423      7.572
REMARK  Name = 5477554
REMARK  13 active torsions:
REMARK  status: ('A' for Active; 'I' for Inactive)
REMARK    1  A    between atoms: C_1  and  O_2
REMARK    2  A    between atoms: C_1  and  C_6
REMARK    3  A    between atoms: C_1  and  C_17
REMARK    4  A    between atoms: O_2  and  C_4
REMARK    5  A    between atoms: C_6  and  C_7
REMARK    6  A    between atoms: C_6  and  O_13
REMARK    7  A    between atoms: C_7  and  O_9
REMARK    8  A    between atoms: O_9  and  C_11
REMARK    9  A    between atoms: O_13  and  C_15
REMARK   10  A    between atoms: C_17  and  C_18
REMARK   11  A    between atoms: C_17  and  O_27
REMARK   12  A    between atoms: C_19  and  C_22
REMARK   13  A    between atoms: O_27  and  C_29
REMARK                            x       y       z     vdW  Elec       q    Type
REMARK                         _______ _______ _______ _____ _____    ______ ____
ROOT
ATOM      1  C   UNL     1     -36.746  24.341   2.959  0.00  0.00    +0.256 C 
ENDROOT
BRANCH   1   2
ATOM      2  O   UNL     1     -37.100  24.339   4.346  0.00  0.00    -0.444 OA
BRANCH   2   4
ATOM      3  O   UNL     1     -36.162  26.078   5.541  0.00  0.00    -0.250 OA
ATOM      4  C   UNL     1     -36.189  24.909   5.184  0.00  0.00    +0.318 C 
ATOM      5  C   UNL     1     -35.194  23.876   5.620  0.00  0.00    +0.121 C 
ENDBRANCH   2   4
ENDBRANCH   1   2
BRANCH   1   6
ATOM      6  C   UNL     1     -36.830  22.897   2.418  0.00  0.00    +0.252 C 
BRANCH   6   7
ATOM      7  C   UNL     1     -37.563  22.768   1.069  0.00  0.00    +0.212 C 
ATOM      8  C   UNL     1     -36.590  22.710  -0.104  0.00  0.00    +0.051 C 
BRANCH   7   9
ATOM      9  O   UNL     1     -38.359  21.586   1.044  0.00  0.00    -0.448 OA
BRANCH   9  11
ATOM     10  O   UNL     1     -40.315  21.127   2.182  0.00  0.00    -0.250 OA
ATOM     11  C   UNL     1     -39.680  21.756   1.347  0.00  0.00    +0.318 C 
ATOM     12  C   UNL     1     -40.259  22.846   0.498  0.00  0.00    +0.121 C 
ENDBRANCH   9  11
ENDBRANCH   7   9
ENDBRANCH   6   7
BRANCH   6  13
ATOM     13  O   UNL     1     -35.512  22.361   2.303  0.00  0.00    -0.445 OA
BRANCH  13  15
ATOM     14  O   UNL     1     -35.474  20.893   4.087  0.00  0.00    -0.250 OA
ATOM     15  C   UNL     1     -35.315  21.150   2.901  0.00  0.00    +0.318 C 
ATOM     16  C   UNL     1     -34.865  20.150   1.879  0.00  0.00    +0.121 C 
ENDBRANCH  13  15
ENDBRANCH   6  13
ENDBRANCH   1   6
BRANCH   1  17
ATOM     17  C   UNL     1     -37.680  25.338   2.246  0.00  0.00    +0.234 C 
BRANCH  17  18
ATOM     18  C   UNL     1     -38.952  25.605   3.000  0.00  0.00    +0.020 C 
ATOM     19  C   UNL     1     -40.104  25.957   2.410  0.00  0.00    +0.016 C 
BRANCH  19  22
ATOM     20  O   UNL     1     -41.309  27.564   3.681  0.00  0.00    -0.444 OA
ATOM     21  O   UNL     1     -42.354  29.116   4.962  0.00  0.00    -0.245 OA
ATOM     22  C   UNL     1     -41.372  26.222   3.153  0.00  0.00    +0.195 C 
ATOM     23  C   UNL     1     -42.593  26.057   2.257  0.00  0.00    +0.075 C 
ATOM     24  C   UNL     1     -43.797  26.562   2.978  0.00  0.00    -0.015 C 
ATOM     25  C   UNL     1     -42.412  28.120   4.250  0.00  0.00    +0.341 C 
ATOM     26  C   UNL     1     -43.708  27.493   3.934  0.00  0.00    +0.077 C 
ENDBRANCH  19  22
ENDBRANCH  17  18
BRANCH  17  27
ATOM     27  O   UNL     1     -36.974  26.579   2.123  0.00  0.00    -0.444 OA
BRANCH  27  29
ATOM     28  O   UNL     1     -35.128  27.102   0.837  0.00  0.00    -0.250 OA
ATOM     29  C   UNL     1     -36.294  26.751   0.955  0.00  0.00    +0.318 C 
ATOM     30  C   UNL     1     -37.198  26.440  -0.201  0.00  0.00    +0.121 C 
ENDBRANCH  27  29
ENDBRANCH  17  27
ENDBRANCH   1  17
TORSDOF 13
ENDMDL
MODEL 8
REMARK VINA RESULT:      -5.6      2.360      7.682
REMARK  Name = 5477554
REMARK  13 active torsions:
REMARK  status: ('A' for Active; 'I' for Inactive)
REMARK    1  A    between atoms: C_1  and  O_2
REMARK    2  A    between atoms: C_1  and  C_6
REMARK    3  A    between atoms: C_1  and  C_17
REMARK    4  A    between atoms: O_2  and  C_4
REMARK    5  A    between atoms: C_6  and  C_7
REMARK    6  A    between atoms: C_6  and  O_13
REMARK    7  A    between atoms: C_7  and  O_9
REMARK    8  A    between atoms: O_9  and  C_11
REMARK    9  A    between atoms: O_13  and  C_15
REMARK   10  A    between atoms: C_17  and  C_18
REMARK   11  A    between atoms: C_17  and  O_27
REMARK   12  A    between atoms: C_19  and  C_22
REMARK   13  A    between atoms: O_27  and  C_29
REMARK                            x       y       z     vdW  Elec       q    Type
REMARK                         _______ _______ _______ _____ _____    ______ ____
ROOT
ATOM      1  C   UNL     1     -36.749  24.376   2.723  0.00  0.00    +0.256 C 
ENDROOT
BRANCH   1   2
ATOM      2  O   UNL     1     -37.165  24.126   4.070  0.00  0.00    -0.444 OA
BRANCH   2   4
ATOM      3  O   UNL     1     -35.949  25.395   5.569  0.00  0.00    -0.250 OA
ATOM      4  C   UNL     1     -36.213  24.332   5.024  0.00  0.00    +0.318 C 
ATOM      5  C   UNL     1     -35.514  23.040   5.321  0.00  0.00    +0.121 C 
ENDBRANCH   2   4
ENDBRANCH   1   2
BRANCH   1   6
ATOM      6  C   UNL     1     -37.077  23.138   1.860  0.00  0.00    +0.252 C 
BRANCH   6   7
ATOM      7  C   UNL     1     -35.845  22.316   1.438  0.00  0.00    +0.212 C 
ATOM      8  C   UNL     1     -34.573  23.157   1.434  0.00  0.00    +0.051 C 
BRANCH   7   9
ATOM      9  O   UNL     1     -35.649  21.218   2.325  0.00  0.00    -0.448 OA
BRANCH   9  11
ATOM     10  O   UNL     1     -34.171  19.498   1.890  0.00  0.00    -0.250 OA
ATOM     11  C   UNL     1     -35.253  20.048   1.741  0.00  0.00    +0.318 C 
ATOM     12  C   UNL     1     -36.352  19.517   0.873  0.00  0.00    +0.121 C 
ENDBRANCH   9  11
ENDBRANCH   7   9
ENDBRANCH   6   7
BRANCH   6  13
ATOM     13  O   UNL     1     -37.995  22.302   2.566  0.00  0.00    -0.445 OA
BRANCH  13  15
ATOM     14  O   UNL     1     -40.119  21.416   2.375  0.00  0.00    -0.250 OA
ATOM     15  C   UNL     1     -39.176  22.053   1.928  0.00  0.00    +0.318 C 
ATOM     16  C   UNL     1     -39.157  22.684   0.569  0.00  0.00    +0.121 C 
ENDBRANCH  13  15
ENDBRANCH   6  13
ENDBRANCH   1   6
BRANCH   1  17
ATOM     17  C   UNL     1     -37.443  25.671   2.259  0.00  0.00    +0.234 C 
BRANCH  17  18
ATOM     18  C   UNL     1     -38.748  25.930   2.958  0.00  0.00    +0.020 C 
ATOM     19  C   UNL     1     -39.941  25.863   2.349  0.00  0.00    +0.016 C 
BRANCH  19  22
ATOM     20  O   UNL     1     -41.207  27.456   3.578  0.00  0.00    -0.444 OA
ATOM     21  O   UNL     1     -42.315  28.994   4.823  0.00  0.00    -0.245 OA
ATOM     22  C   UNL     1     -41.241  26.117   3.038  0.00  0.00    +0.195 C 
ATOM     23  C   UNL     1     -42.422  25.954   2.088  0.00  0.00    +0.075 C 
ATOM     24  C   UNL     1     -43.658  26.448   2.760  0.00  0.00    -0.015 C 
ATOM     25  C   UNL     1     -42.337  28.003   4.102  0.00  0.00    +0.341 C 
ATOM     26  C   UNL     1     -43.615  27.372   3.725  0.00  0.00    +0.077 C 
ENDBRANCH  19  22
ENDBRANCH  17  18
BRANCH  17  27
ATOM     27  O   UNL     1     -36.563  26.762   2.554  0.00  0.00    -0.444 OA
BRANCH  27  29
ATOM     28  O   UNL     1     -37.341  28.391   1.113  0.00  0.00    -0.250 OA
ATOM     29  C   UNL     1     -36.442  27.699   1.572  0.00  0.00    +0.318 C 
ATOM     30  C   UNL     1     -35.015  27.768   1.119  0.00  0.00    +0.121 C 
ENDBRANCH  27  29
ENDBRANCH  17  27
ENDBRANCH   1  17
TORSDOF 13
ENDMDL
MODEL 9
REMARK VINA RESULT:      -5.5      1.868      7.165
REMARK  Name = 5477554
REMARK  13 active torsions:
REMARK  status: ('A' for Active; 'I' for Inactive)
REMARK    1  A    between atoms: C_1  and  O_2
REMARK    2  A    between atoms: C_1  and  C_6
REMARK    3  A    between atoms: C_1  and  C_17
REMARK    4  A    between atoms: O_2  and  C_4
REMARK    5  A    between atoms: C_6  and  C_7
REMARK    6  A    between atoms: C_6  and  O_13
REMARK    7  A    between atoms: C_7  and  O_9
REMARK    8  A    between atoms: O_9  and  C_11
REMARK    9  A    between atoms: O_13  and  C_15
REMARK   10  A    between atoms: C_17  and  C_18
REMARK   11  A    between atoms: C_17  and  O_27
REMARK   12  A    between atoms: C_19  and  C_22
REMARK   13  A    between atoms: O_27  and  C_29
REMARK                            x       y       z     vdW  Elec       q    Type
REMARK                         _______ _______ _______ _____ _____    ______ ____
ROOT
ATOM      1  C   UNL     1     -36.177  23.814   2.240  0.00  0.00    +0.256 C 
ENDROOT
BRANCH   1   2
ATOM      2  O   UNL     1     -34.762  24.026   2.250  0.00  0.00    -0.444 OA
BRANCH   2   4
ATOM      3  O   UNL     1     -33.650  25.927   2.946  0.00  0.00    -0.250 OA
ATOM      4  C   UNL     1     -34.364  25.327   2.155  0.00  0.00    +0.318 C 
ATOM      5  C   UNL     1     -34.940  25.938   0.913  0.00  0.00    +0.121 C 
ENDBRANCH   2   4
ENDBRANCH   1   2
BRANCH   1   6
ATOM      6  C   UNL     1     -36.462  22.348   1.844  0.00  0.00    +0.252 C 
BRANCH   6   7
ATOM      7  C   UNL     1     -37.438  22.189   0.663  0.00  0.00    +0.212 C 
ATOM      8  C   UNL     1     -36.704  21.990  -0.659  0.00  0.00    +0.051 C 
BRANCH   7   9
ATOM      9  O   UNL     1     -38.293  21.068   0.870  0.00  0.00    -0.448 OA
BRANCH   9  11
ATOM     10  O   UNL     1     -40.064  21.625   2.244  0.00  0.00    -0.250 OA
ATOM     11  C   UNL     1     -39.599  21.362   1.143  0.00  0.00    +0.318 C 
ATOM     12  C   UNL     1     -40.403  21.318  -0.120  0.00  0.00    +0.121 C 
ENDBRANCH   9  11
ENDBRANCH   7   9
ENDBRANCH   6   7
BRANCH   6  13
ATOM     13  O   UNL     1     -35.228  21.696   1.541  0.00  0.00    -0.445 OA
BRANCH  13  15
ATOM     14  O   UNL     1     -35.200  20.355   3.422  0.00  0.00    -0.250 OA
ATOM     15  C   UNL     1     -34.985  20.544   2.233  0.00  0.00    +0.318 C 
ATOM     16  C   UNL     1     -34.404  19.516   1.311  0.00  0.00    +0.121 C 
ENDBRANCH  13  15
ENDBRANCH   6  13
ENDBRANCH   1   6
BRANCH   1  17
ATOM     17  C   UNL     1     -36.713  24.208   3.630  0.00  0.00    +0.234 C 
BRANCH  17  18
ATOM     18  C   UNL     1     -38.200  24.416   3.657  0.00  0.00    +0.020 C 
ATOM     19  C   UNL     1     -38.876  25.059   2.693  0.00  0.00    +0.016 C 
BRANCH  19  22
ATOM     20  O   UNL     1     -40.607  26.640   3.086  0.00  0.00    -0.444 OA
ATOM     21  O   UNL     1     -42.202  28.179   3.569  0.00  0.00    -0.245 OA
ATOM     22  C   UNL     1     -40.354  25.269   2.711  0.00  0.00    +0.195 C 
ATOM     23  C   UNL     1     -40.982  24.961   1.357  0.00  0.00    +0.075 C 
ATOM     24  C   UNL     1     -42.404  25.413   1.367  0.00  0.00    -0.015 C 
ATOM     25  C   UNL     1     -41.868  27.142   3.006  0.00  0.00    +0.341 C 
ATOM     26  C   UNL     1     -42.824  26.401   2.163  0.00  0.00    +0.077 C 
ENDBRANCH  19  22
ENDBRANCH  17  18
BRANCH  17  27
ATOM     27  O   UNL     1     -36.404  23.137   4.530  0.00  0.00    -0.444 OA
BRANCH  27  29
ATOM     28  O   UNL     1     -34.954  24.515   5.685  0.00  0.00    -0.250 OA
ATOM     29  C   UNL     1     -35.514  23.441   5.517  0.00  0.00    +0.318 C 
ATOM     30  C   UNL     1     -35.311  22.241   6.394  0.00  0.00    +0.121 C 
ENDBRANCH  27  29
ENDBRANCH  17  27
ENDBRANCH   1  17
TORSDOF 13
ENDMDL
