MODEL 1
REMARK VINA RESULT:      -6.0      0.000      0.000
REMARK  Name = 21121840
REMARK  5 active torsions:
REMARK  status: ('A' for Active; 'I' for Inactive)
REMARK    1  A    between atoms: C_2  and  C_17
REMARK    2  A    between atoms: C_3  and  O_18
REMARK    3  A    between atoms: C_4  and  N_7
REMARK    4  A    between atoms: C_5  and  C_20
REMARK    5  A    between atoms: C_20  and  O_21
REMARK                            x       y       z     vdW  Elec       q    Type
REMARK                         _______ _______ _______ _____ _____    ______ ____
ROOT
ATOM      1  O   UNL     1     -35.380  25.141   3.002  0.00  0.00    -0.334 OA
ATOM      2  C   UNL     1     -36.158  24.420   5.118  0.00  0.00    +0.112 C 
ATOM      3  C   UNL     1     -35.562  25.813   5.290  0.00  0.00    +0.147 C 
ATOM      4  C   UNL     1     -36.439  24.400   3.616  0.00  0.00    +0.211 C 
ATOM      5  C   UNL     1     -34.914  26.131   3.940  0.00  0.00    +0.173 C 
ENDROOT
BRANCH   4   7
ATOM      6  O   UNL     1     -38.816  23.103   2.851  0.00  0.00    -0.193 OA
ATOM      7  N   UNL     1     -36.515  23.095   3.032  0.00  0.00    -0.180 N 
ATOM      8  N   UNL     1     -37.751  21.240   2.110  0.00  0.00    -0.306 NA
ATOM      9  N   UNL     1     -36.654  19.335   1.355  0.00  0.00    -0.332 N 
ATOM     10  C   UNL     1     -35.340  22.394   2.818  0.00  0.00    +0.083 C 
ATOM     11  C   UNL     1     -37.753  22.506   2.671  0.00  0.00    +0.275 C 
ATOM     12  C   UNL     1     -35.317  21.176   2.281  0.00  0.00    +0.065 C 
ATOM     13  C   UNL     1     -36.633  20.592   1.914  0.00  0.00    +0.193 C 
ATOM     14  H   UNL     1     -37.511  18.922   1.103  0.00  0.00    +0.145 HD
ATOM     15  H   UNL     1     -35.811  18.848   1.209  0.00  0.00    +0.145 HD
ENDBRANCH   4   7
BRANCH   2  17
ATOM     16  F   UNL     1     -35.829  22.502   6.421  0.00  0.00    -0.234 F 
ATOM     17  C   UNL     1     -35.178  23.337   5.575  0.00  0.00    +0.200 C 
ENDBRANCH   2  17
BRANCH   3  18
ATOM     18  O   UNL     1     -36.614  26.748   5.537  0.00  0.00    -0.382 OA
ATOM     19  H   UNL     1     -36.489  27.531   4.977  0.00  0.00    +0.210 HD
ENDBRANCH   3  18
BRANCH   5  20
ATOM     20  C   UNL     1     -33.395  26.082   3.970  0.00  0.00    +0.169 C 
BRANCH  20  21
ATOM     21  O   UNL     1     -32.943  26.631   5.197  0.00  0.00    -0.379 OA
ATOM     22  H   UNL     1     -31.975  26.689   5.188  0.00  0.00    +0.211 HD
ENDBRANCH  20  21
ENDBRANCH   5  20
TORSDOF 5
ENDMDL
MODEL 2
REMARK VINA RESULT:      -5.5      3.120      5.771
REMARK  Name = 21121840
REMARK  5 active torsions:
REMARK  status: ('A' for Active; 'I' for Inactive)
REMARK    1  A    between atoms: C_2  and  C_17
REMARK    2  A    between atoms: C_3  and  O_18
REMARK    3  A    between atoms: C_4  and  N_7
REMARK    4  A    between atoms: C_5  and  C_20
REMARK    5  A    between atoms: C_20  and  O_21
REMARK                            x       y       z     vdW  Elec       q    Type
REMARK                         _______ _______ _______ _____ _____    ______ ____
ROOT
ATOM      1  O   UNL     1     -34.485  23.945   3.064  0.00  0.00    -0.334 OA
ATOM      2  C   UNL     1     -35.264  24.421   5.247  0.00  0.00    +0.112 C 
ATOM      3  C   UNL     1     -35.624  22.974   4.929  0.00  0.00    +0.147 C 
ATOM      4  C   UNL     1     -34.140  24.676   4.244  0.00  0.00    +0.211 C 
ATOM      5  C   UNL     1     -35.267  22.798   3.451  0.00  0.00    +0.173 C 
ENDROOT
BRANCH   4   7
ATOM      6  O   UNL     1     -32.965  26.587   5.943  0.00  0.00    -0.193 OA
ATOM      7  N   UNL     1     -33.923  26.052   3.913  0.00  0.00    -0.180 N 
ATOM      8  N   UNL     1     -33.146  28.274   4.435  0.00  0.00    -0.306 NA
ATOM      9  N   UNL     1     -33.336  29.998   2.887  0.00  0.00    -0.332 N 
ATOM     10  C   UNL     1     -34.317  26.503   2.665  0.00  0.00    +0.083 C 
ATOM     11  C   UNL     1     -33.324  26.957   4.824  0.00  0.00    +0.275 C 
ATOM     12  C   UNL     1     -34.156  27.765   2.273  0.00  0.00    +0.065 C 
ATOM     13  C   UNL     1     -33.522  28.685   3.253  0.00  0.00    +0.193 C 
ATOM     14  H   UNL     1     -32.919  30.630   3.516  0.00  0.00    +0.145 HD
ATOM     15  H   UNL     1     -33.621  30.305   1.996  0.00  0.00    +0.145 HD
ENDBRANCH   4   7
BRANCH   2  17
ATOM     16  F   UNL     1     -36.395  26.332   5.995  0.00  0.00    -0.234 F 
ATOM     17  C   UNL     1     -36.470  25.346   5.067  0.00  0.00    +0.200 C 
ENDBRANCH   2  17
BRANCH   3  18
ATOM     18  O   UNL     1     -34.809  22.102   5.715  0.00  0.00    -0.382 OA
ATOM     19  H   UNL     1     -35.237  21.234   5.784  0.00  0.00    +0.210 HD
ENDBRANCH   3  18
BRANCH   5  20
ATOM     20  C   UNL     1     -36.481  22.719   2.539  0.00  0.00    +0.169 C 
BRANCH  20  21
ATOM     21  O   UNL     1     -37.628  22.442   3.326  0.00  0.00    -0.379 OA
ATOM     22  H   UNL     1     -38.216  23.213   3.323  0.00  0.00    +0.211 HD
ENDBRANCH  20  21
ENDBRANCH   5  20
TORSDOF 5
ENDMDL
MODEL 3
REMARK VINA RESULT:      -5.3      1.544      1.700
REMARK  Name = 21121840
REMARK  5 active torsions:
REMARK  status: ('A' for Active; 'I' for Inactive)
REMARK    1  A    between atoms: C_2  and  C_17
REMARK    2  A    between atoms: C_3  and  O_18
REMARK    3  A    between atoms: C_4  and  N_7
REMARK    4  A    between atoms: C_5  and  C_20
REMARK    5  A    between atoms: C_20  and  O_21
REMARK                            x       y       z     vdW  Elec       q    Type
REMARK                         _______ _______ _______ _____ _____    ______ ____
ROOT
ATOM      1  O   UNL     1     -34.452  25.596   1.808  0.00  0.00    -0.334 OA
ATOM      2  C   UNL     1     -35.102  25.735   4.079  0.00  0.00    +0.112 C 
ATOM      3  C   UNL     1     -34.289  26.982   3.750  0.00  0.00    +0.147 C 
ATOM      4  C   UNL     1     -35.540  25.288   2.685  0.00  0.00    +0.211 C 
ATOM      5  C   UNL     1     -33.746  26.733   2.341  0.00  0.00    +0.173 C 
ENDROOT
BRANCH   4   7
ATOM      6  O   UNL     1     -37.939  24.118   3.577  0.00  0.00    -0.193 OA
ATOM      7  N   UNL     1     -35.873  23.900   2.571  0.00  0.00    -0.180 N 
ATOM      8  N   UNL     1     -37.360  22.030   2.901  0.00  0.00    -0.306 NA
ATOM      9  N   UNL     1     -36.760  19.894   2.207  0.00  0.00    -0.332 N 
ATOM     10  C   UNL     1     -34.958  23.045   1.981  0.00  0.00    +0.083 C 
ATOM     11  C   UNL     1     -37.104  23.384   3.045  0.00  0.00    +0.275 C 
ATOM     12  C   UNL     1     -35.184  21.741   1.834  0.00  0.00    +0.065 C 
ATOM     13  C   UNL     1     -36.487  21.236   2.340  0.00  0.00    +0.193 C 
ATOM     14  H   UNL     1     -37.614  19.531   2.534  0.00  0.00    +0.145 HD
ATOM     15  H   UNL     1     -36.100  19.297   1.786  0.00  0.00    +0.145 HD
ENDBRANCH   4   7
BRANCH   2  17
ATOM     16  F   UNL     1     -34.947  24.279   5.908  0.00  0.00    -0.234 F 
ATOM     17  C   UNL     1     -34.255  24.699   4.820  0.00  0.00    +0.200 C 
ENDBRANCH   2  17
BRANCH   3  18
ATOM     18  O   UNL     1     -35.156  28.117   3.725  0.00  0.00    -0.382 OA
ATOM     19  H   UNL     1     -36.077  27.820   3.655  0.00  0.00    +0.210 HD
ENDBRANCH   3  18
BRANCH   5  20
ATOM     20  C   UNL     1     -32.257  26.429   2.309  0.00  0.00    +0.169 C 
BRANCH  20  21
ATOM     21  O   UNL     1     -31.653  26.977   3.469  0.00  0.00    -0.379 OA
ATOM     22  H   UNL     1     -30.801  27.376   3.232  0.00  0.00    +0.211 HD
ENDBRANCH  20  21
ENDBRANCH   5  20
TORSDOF 5
ENDMDL
MODEL 4
REMARK VINA RESULT:      -5.3      2.208      3.076
REMARK  Name = 21121840
REMARK  5 active torsions:
REMARK  status: ('A' for Active; 'I' for Inactive)
REMARK    1  A    between atoms: C_2  and  C_17
REMARK    2  A    between atoms: C_3  and  O_18
REMARK    3  A    between atoms: C_4  and  N_7
REMARK    4  A    between atoms: C_5  and  C_20
REMARK    5  A    between atoms: C_20  and  O_21
REMARK                            x       y       z     vdW  Elec       q    Type
REMARK                         _______ _______ _______ _____ _____    ______ ____
ROOT
ATOM      1  O   UNL     1     -38.043  24.154   3.020  0.00  0.00    -0.334 OA
ATOM      2  C   UNL     1     -35.812  24.744   3.545  0.00  0.00    +0.112 C 
ATOM      3  C   UNL     1     -36.686  25.969   3.783  0.00  0.00    +0.147 C 
ATOM      4  C   UNL     1     -36.849  23.623   3.602  0.00  0.00    +0.211 C 
ATOM      5  C   UNL     1     -38.065  25.577   3.246  0.00  0.00    +0.173 C 
ENDROOT
BRANCH   4   7
ATOM      6  O   UNL     1     -35.189  21.612   4.659  0.00  0.00    -0.193 OA
ATOM      7  N   UNL     1     -36.477  22.418   2.923  0.00  0.00    -0.180 N 
ATOM      8  N   UNL     1     -35.316  20.308   2.805  0.00  0.00    -0.306 NA
ATOM      9  N   UNL     1     -35.449  18.978   0.903  0.00  0.00    -0.332 N 
ATOM     10  C   UNL     1     -36.957  22.204   1.642  0.00  0.00    +0.083 C 
ATOM     11  C   UNL     1     -35.634  21.450   3.522  0.00  0.00    +0.275 C 
ATOM     12  C   UNL     1     -36.662  21.114   0.936  0.00  0.00    +0.065 C 
ATOM     13  C   UNL     1     -35.778  20.120   1.598  0.00  0.00    +0.193 C 
ATOM     14  H   UNL     1     -34.866  18.302   1.316  0.00  0.00    +0.145 HD
ATOM     15  H   UNL     1     -35.798  18.839  -0.007  0.00  0.00    +0.145 HD
ENDBRANCH   4   7
BRANCH   2  17
ATOM     16  F   UNL     1     -33.857  24.266   2.345  0.00  0.00    -0.234 F 
ATOM     17  C   UNL     1     -35.079  24.837   2.205  0.00  0.00    +0.200 C 
ENDBRANCH   2  17
BRANCH   3  18
ATOM     18  O   UNL     1     -36.783  26.214   5.188  0.00  0.00    -0.382 OA
ATOM     19  H   UNL     1     -37.473  26.875   5.355  0.00  0.00    +0.210 HD
ENDBRANCH   3  18
BRANCH   5  20
ATOM     20  C   UNL     1     -38.424  26.263   1.937  0.00  0.00    +0.169 C 
BRANCH  20  21
ATOM     21  O   UNL     1     -37.638  27.435   1.804  0.00  0.00    -0.379 OA
ATOM     22  H   UNL     1     -37.316  27.710   2.677  0.00  0.00    +0.211 HD
ENDBRANCH  20  21
ENDBRANCH   5  20
TORSDOF 5
ENDMDL
MODEL 5
REMARK VINA RESULT:      -5.3      2.708      5.212
REMARK  Name = 21121840
REMARK  5 active torsions:
REMARK  status: ('A' for Active; 'I' for Inactive)
REMARK    1  A    between atoms: C_2  and  C_17
REMARK    2  A    between atoms: C_3  and  O_18
REMARK    3  A    between atoms: C_4  and  N_7
REMARK    4  A    between atoms: C_5  and  C_20
REMARK    5  A    between atoms: C_20  and  O_21
REMARK                            x       y       z     vdW  Elec       q    Type
REMARK                         _______ _______ _______ _____ _____    ______ ____
ROOT
ATOM      1  O   UNL     1     -35.046  22.408   1.889  0.00  0.00    -0.334 OA
ATOM      2  C   UNL     1     -37.156  22.615   2.941  0.00  0.00    +0.112 C 
ATOM      3  C   UNL     1     -37.306  21.634   1.784  0.00  0.00    +0.147 C 
ATOM      4  C   UNL     1     -35.647  22.568   3.178  0.00  0.00    +0.211 C 
ATOM      5  C   UNL     1     -35.969  21.697   1.042  0.00  0.00    +0.173 C 
ENDROOT
BRANCH   4   7
ATOM      6  O   UNL     1     -35.904  23.165   5.916  0.00  0.00    -0.193 OA
ATOM      7  N   UNL     1     -35.099  23.721   3.826  0.00  0.00    -0.180 N 
ATOM      8  N   UNL     1     -34.713  25.092   5.772  0.00  0.00    -0.306 NA
ATOM      9  N   UNL     1     -33.492  27.065   5.617  0.00  0.00    -0.332 N 
ATOM     10  C   UNL     1     -34.384  24.631   3.066  0.00  0.00    +0.083 C 
ATOM     11  C   UNL     1     -35.271  23.955   5.212  0.00  0.00    +0.275 C 
ATOM     12  C   UNL     1     -33.840  25.731   3.584  0.00  0.00    +0.065 C 
ATOM     13  C   UNL     1     -34.039  25.941   5.041  0.00  0.00    +0.193 C 
ATOM     14  H   UNL     1     -33.608  27.230   6.580  0.00  0.00    +0.145 HD
ATOM     15  H   UNL     1     -32.986  27.703   5.065  0.00  0.00    +0.145 HD
ENDBRANCH   4   7
BRANCH   2  17
ATOM     16  F   UNL     1     -38.189  24.587   3.673  0.00  0.00    -0.234 F 
ATOM     17  C   UNL     1     -37.676  24.004   2.562  0.00  0.00    +0.200 C 
ENDBRANCH   2  17
BRANCH   3  18
ATOM     18  O   UNL     1     -37.492  20.316   2.305  0.00  0.00    -0.382 OA
ATOM     19  H   UNL     1     -37.642  19.697   1.573  0.00  0.00    +0.210 HD
ENDBRANCH   3  18
BRANCH   5  20
ATOM     20  C   UNL     1     -36.048  22.422  -0.292  0.00  0.00    +0.169 C 
BRANCH  20  21
ATOM     21  O   UNL     1     -35.283  23.614  -0.211  0.00  0.00    -0.379 OA
ATOM     22  H   UNL     1     -35.080  23.929  -1.105  0.00  0.00    +0.211 HD
ENDBRANCH  20  21
ENDBRANCH   5  20
TORSDOF 5
ENDMDL
MODEL 6
REMARK VINA RESULT:      -5.2      2.870      4.286
REMARK  Name = 21121840
REMARK  5 active torsions:
REMARK  status: ('A' for Active; 'I' for Inactive)
REMARK    1  A    between atoms: C_2  and  C_17
REMARK    2  A    between atoms: C_3  and  O_18
REMARK    3  A    between atoms: C_4  and  N_7
REMARK    4  A    between atoms: C_5  and  C_20
REMARK    5  A    between atoms: C_20  and  O_21
REMARK                            x       y       z     vdW  Elec       q    Type
REMARK                         _______ _______ _______ _____ _____    ______ ____
ROOT
ATOM      1  O   UNL     1     -35.910  23.712   3.315  0.00  0.00    -0.334 OA
ATOM      2  C   UNL     1     -35.436  25.917   4.031  0.00  0.00    +0.112 C 
ATOM      3  C   UNL     1     -34.237  25.045   4.384  0.00  0.00    +0.147 C 
ATOM      4  C   UNL     1     -36.104  25.080   2.942  0.00  0.00    +0.211 C 
ATOM      5  C   UNL     1     -34.688  23.616   4.071  0.00  0.00    +0.173 C 
ENDROOT
BRANCH   4   7
ATOM      6  O   UNL     1     -37.183  27.375   1.722  0.00  0.00    -0.193 OA
ATOM      7  N   UNL     1     -37.501  25.335   2.752  0.00  0.00    -0.180 N 
ATOM      8  N   UNL     1     -39.334  26.697   1.978  0.00  0.00    -0.306 NA
ATOM      9  N   UNL     1     -41.535  25.997   2.245  0.00  0.00    -0.332 N 
ATOM     10  C   UNL     1     -38.412  24.393   3.199  0.00  0.00    +0.083 C 
ATOM     11  C   UNL     1     -37.969  26.517   2.128  0.00  0.00    +0.275 C 
ATOM     12  C   UNL     1     -39.729  24.548   3.065  0.00  0.00    +0.065 C 
ATOM     13  C   UNL     1     -40.182  25.798   2.403  0.00  0.00    +0.193 C 
ATOM     14  H   UNL     1     -41.864  26.816   1.811  0.00  0.00    +0.145 HD
ATOM     15  H   UNL     1     -42.172  25.319   2.567  0.00  0.00    +0.145 HD
ENDBRANCH   4   7
BRANCH   2  17
ATOM     16  F   UNL     1     -35.607  25.875   6.368  0.00  0.00    -0.234 F 
ATOM     17  C   UNL     1     -36.325  26.159   5.254  0.00  0.00    +0.200 C 
ENDBRANCH   2  17
BRANCH   3  18
ATOM     18  O   UNL     1     -33.140  25.387   3.535  0.00  0.00    -0.382 OA
ATOM     19  H   UNL     1     -32.882  26.309   3.694  0.00  0.00    +0.210 HD
ENDBRANCH   3  18
BRANCH   5  20
ATOM     20  C   UNL     1     -34.958  22.779   5.311  0.00  0.00    +0.169 C 
BRANCH  20  21
ATOM     21  O   UNL     1     -36.343  22.478   5.367  0.00  0.00    -0.379 OA
ATOM     22  H   UNL     1     -36.806  23.174   5.858  0.00  0.00    +0.211 HD
ENDBRANCH  20  21
ENDBRANCH   5  20
TORSDOF 5
ENDMDL
MODEL 7
REMARK VINA RESULT:      -5.2      2.807      5.389
REMARK  Name = 21121840
REMARK  5 active torsions:
REMARK  status: ('A' for Active; 'I' for Inactive)
REMARK    1  A    between atoms: C_2  and  C_17
REMARK    2  A    between atoms: C_3  and  O_18
REMARK    3  A    between atoms: C_4  and  N_7
REMARK    4  A    between atoms: C_5  and  C_20
REMARK    5  A    between atoms: C_20  and  O_21
REMARK                            x       y       z     vdW  Elec       q    Type
REMARK                         _______ _______ _______ _____ _____    ______ ____
ROOT
ATOM      1  O   UNL     1     -37.031  22.579   3.146  0.00  0.00    -0.334 OA
ATOM      2  C   UNL     1     -36.136  23.700   1.264  0.00  0.00    +0.112 C 
ATOM      3  C   UNL     1     -36.880  22.469   0.762  0.00  0.00    +0.147 C 
ATOM      4  C   UNL     1     -36.771  23.892   2.641  0.00  0.00    +0.211 C 
ATOM      5  C   UNL     1     -37.262  21.699   2.029  0.00  0.00    +0.173 C 
ENDROOT
BRANCH   4   7
ATOM      6  O   UNL     1     -36.500  26.692   2.710  0.00  0.00    -0.193 OA
ATOM      7  N   UNL     1     -35.972  24.621   3.580  0.00  0.00    -0.180 N 
ATOM      8  N   UNL     1     -35.094  26.673   4.492  0.00  0.00    -0.306 NA
ATOM      9  N   UNL     1     -33.653  26.646   6.316  0.00  0.00    -0.332 N 
ATOM     10  C   UNL     1     -35.266  23.914   4.538  0.00  0.00    +0.083 C 
ATOM     11  C   UNL     1     -35.886  26.034   3.552  0.00  0.00    +0.275 C 
ATOM     12  C   UNL     1     -34.498  24.509   5.450  0.00  0.00    +0.065 C 
ATOM     13  C   UNL     1     -34.434  25.992   5.391  0.00  0.00    +0.193 C 
ATOM     14  H   UNL     1     -33.590  27.628   6.301  0.00  0.00    +0.145 HD
ATOM     15  H   UNL     1     -33.155  26.131   6.992  0.00  0.00    +0.145 HD
ENDBRANCH   4   7
BRANCH   2  17
ATOM     16  F   UNL     1     -34.342  22.380   0.536  0.00  0.00    -0.234 F 
ATOM     17  C   UNL     1     -34.626  23.455   1.312  0.00  0.00    +0.200 C 
ENDBRANCH   2  17
BRANCH   3  18
ATOM     18  O   UNL     1     -38.071  22.880   0.087  0.00  0.00    -0.382 OA
ATOM     19  H   UNL     1     -37.911  23.722  -0.367  0.00  0.00    +0.210 HD
ENDBRANCH   3  18
BRANCH   5  20
ATOM     20  C   UNL     1     -36.445  20.434   2.241  0.00  0.00    +0.169 C 
BRANCH  20  21
ATOM     21  O   UNL     1     -35.726  20.552   3.458  0.00  0.00    -0.379 OA
ATOM     22  H   UNL     1     -35.330  19.696   3.683  0.00  0.00    +0.211 HD
ENDBRANCH  20  21
ENDBRANCH   5  20
TORSDOF 5
ENDMDL
MODEL 8
REMARK VINA RESULT:      -5.0      2.668      5.563
REMARK  Name = 21121840
REMARK  5 active torsions:
REMARK  status: ('A' for Active; 'I' for Inactive)
REMARK    1  A    between atoms: C_2  and  C_17
REMARK    2  A    between atoms: C_3  and  O_18
REMARK    3  A    between atoms: C_4  and  N_7
REMARK    4  A    between atoms: C_5  and  C_20
REMARK    5  A    between atoms: C_20  and  O_21
REMARK                            x       y       z     vdW  Elec       q    Type
REMARK                         _______ _______ _______ _____ _____    ______ ____
ROOT
ATOM      1  O   UNL     1     -37.436  24.169   2.291  0.00  0.00    -0.334 OA
ATOM      2  C   UNL     1     -35.677  22.617   1.976  0.00  0.00    +0.112 C 
ATOM      3  C   UNL     1     -36.883  22.122   1.186  0.00  0.00    +0.147 C 
ATOM      4  C   UNL     1     -36.015  24.099   2.138  0.00  0.00    +0.211 C 
ATOM      5  C   UNL     1     -38.025  23.059   1.587  0.00  0.00    +0.173 C 
ENDROOT
BRANCH   4   7
ATOM      6  O   UNL     1     -33.385  25.099   2.135  0.00  0.00    -0.193 OA
ATOM      7  N   UNL     1     -35.378  24.748   3.244  0.00  0.00    -0.180 N 
ATOM      8  N   UNL     1     -33.495  25.844   4.276  0.00  0.00    -0.306 NA
ATOM      9  N   UNL     1     -33.613  26.605   6.470  0.00  0.00    -0.332 N 
ATOM     10  C   UNL     1     -36.091  24.906   4.420  0.00  0.00    +0.083 C 
ATOM     11  C   UNL     1     -34.047  25.226   3.167  0.00  0.00    +0.275 C 
ATOM     12  C   UNL     1     -35.578  25.496   5.498  0.00  0.00    +0.065 C 
ATOM     13  C   UNL     1     -34.181  25.987   5.379  0.00  0.00    +0.193 C 
ATOM     14  H   UNL     1     -32.690  26.939   6.421  0.00  0.00    +0.145 HD
ATOM     15  H   UNL     1     -34.132  26.710   7.301  0.00  0.00    +0.145 HD
ENDBRANCH   4   7
BRANCH   2  17
ATOM     16  F   UNL     1     -35.536  20.538   3.047  0.00  0.00    -0.234 F 
ATOM     17  C   UNL     1     -35.538  21.869   3.304  0.00  0.00    +0.200 C 
ENDBRANCH   2  17
BRANCH   3  18
ATOM     18  O   UNL     1     -36.624  22.270  -0.212  0.00  0.00    -0.382 OA
ATOM     19  H   UNL     1     -35.688  22.488  -0.346  0.00  0.00    +0.210 HD
ENDBRANCH   3  18
BRANCH   5  20
ATOM     20  C   UNL     1     -39.053  22.408   2.498  0.00  0.00    +0.169 C 
BRANCH  20  21
ATOM     21  O   UNL     1     -39.071  21.012   2.244  0.00  0.00    -0.379 OA
ATOM     22  H   UNL     1     -39.988  20.714   2.139  0.00  0.00    +0.211 HD
ENDBRANCH  20  21
ENDBRANCH   5  20
TORSDOF 5
ENDMDL
MODEL 9
REMARK VINA RESULT:      -5.0     11.504     13.134
REMARK  Name = 21121840
REMARK  5 active torsions:
REMARK  status: ('A' for Active; 'I' for Inactive)
REMARK    1  A    between atoms: C_2  and  C_17
REMARK    2  A    between atoms: C_3  and  O_18
REMARK    3  A    between atoms: C_4  and  N_7
REMARK    4  A    between atoms: C_5  and  C_20
REMARK    5  A    between atoms: C_20  and  O_21
REMARK                            x       y       z     vdW  Elec       q    Type
REMARK                         _______ _______ _______ _____ _____    ______ ____
ROOT
ATOM      1  O   UNL     1     -47.039  28.985   6.705  0.00  0.00    -0.334 OA
ATOM      2  C   UNL     1     -45.174  29.038   8.160  0.00  0.00    +0.112 C 
ATOM      3  C   UNL     1     -46.107  27.933   8.640  0.00  0.00    +0.147 C 
ATOM      4  C   UNL     1     -45.625  29.200   6.709  0.00  0.00    +0.211 C 
ATOM      5  C   UNL     1     -47.365  28.083   7.780  0.00  0.00    +0.173 C 
ENDROOT
BRANCH   4   7
ATOM      6  O   UNL     1     -43.077  30.043   5.863  0.00  0.00    -0.193 OA
ATOM      7  N   UNL     1     -45.329  30.472   6.121  0.00  0.00    -0.180 N 
ATOM      8  N   UNL     1     -43.805  32.073   5.158  0.00  0.00    -0.306 NA
ATOM      9  N   UNL     1     -44.558  34.152   4.437  0.00  0.00    -0.332 N 
ATOM     10  C   UNL     1     -46.362  31.377   5.946  0.00  0.00    +0.083 C 
ATOM     11  C   UNL     1     -44.018  30.825   5.719  0.00  0.00    +0.275 C 
ATOM     12  C   UNL     1     -46.179  32.582   5.409  0.00  0.00    +0.065 C 
ATOM     13  C   UNL     1     -44.791  32.916   4.998  0.00  0.00    +0.193 C 
ATOM     14  H   UNL     1     -43.649  34.401   4.156  0.00  0.00    +0.145 HD
ATOM     15  H   UNL     1     -45.302  34.786   4.319  0.00  0.00    +0.145 HD
ENDBRANCH   4   7
BRANCH   2  17
ATOM     16  F   UNL     1     -44.157  30.975   8.997  0.00  0.00    -0.234 F 
ATOM     17  C   UNL     1     -45.336  30.307   9.000  0.00  0.00    +0.200 C 
ENDBRANCH   2  17
BRANCH   3  18
ATOM     18  O   UNL     1     -45.509  26.662   8.377  0.00  0.00    -0.382 OA
ATOM     19  H   UNL     1     -45.168  26.647   7.468  0.00  0.00    +0.210 HD
ENDBRANCH   3  18
BRANCH   5  20
ATOM     20  C   UNL     1     -48.554  28.654   8.538  0.00  0.00    +0.169 C 
BRANCH  20  21
ATOM     21  O   UNL     1     -48.661  30.038   8.245  0.00  0.00    -0.379 OA
ATOM     22  H   UNL     1     -49.185  30.158   7.438  0.00  0.00    +0.211 HD
ENDBRANCH  20  21
ENDBRANCH   5  20
TORSDOF 5
ENDMDL
