MODEL 1
REMARK VINA RESULT:      -7.5      0.000      0.000
REMARK  Name = 54676069
REMARK  5 active torsions:
REMARK  status: ('A' for Active; 'I' for Inactive)
REMARK    1  A    between atoms: C_5  and  O_26
REMARK    2  A    between atoms: C_11  and  O_28
REMARK    3  A    between atoms: C_12  and  O_30
REMARK    4  A    between atoms: C_15  and  C_23
REMARK    5  A    between atoms: C_18  and  O_32
REMARK                            x       y       z     vdW  Elec       q    Type
REMARK                         _______ _______ _______ _____ _____    ______ ____
ROOT
ATOM      1  O   UNL     1     -33.452  25.130   5.320  0.00  0.00    -0.289 OA
ATOM      2  O   UNL     1     -35.642  23.789   0.764  0.00  0.00    -0.291 OA
ATOM      3  C   UNL     1     -35.590  26.698   2.899  0.00  0.00    +0.047 C 
ATOM      4  C   UNL     1     -33.547  28.196   3.373  0.00  0.00    +0.033 C 
ATOM      5  C   UNL     1     -35.450  26.025   4.275  0.00  0.00    +0.193 C 
ATOM      6  C   UNL     1     -35.008  28.117   2.893  0.00  0.00    +0.009 C 
ATOM      7  C   UNL     1     -33.283  27.397   4.627  0.00  0.00    +0.049 C 
ATOM      8  C   UNL     1     -34.972  25.832   1.801  0.00  0.00    +0.073 C 
ATOM      9  C   UNL     1     -34.007  26.090   4.787  0.00  0.00    +0.203 C 
ATOM     10  C   UNL     1     -33.173  29.685   3.544  0.00  0.00    +0.031 C 
ATOM     11  C   UNL     1     -35.915  24.581   4.229  0.00  0.00    +0.149 C 
ATOM     12  C   UNL     1     -32.391  27.776   5.563  0.00  0.00    +0.135 C 
ATOM     13  C   UNL     1     -31.907  29.890   4.334  0.00  0.00    -0.016 C 
ATOM     14  C   UNL     1     -35.566  24.443   1.803  0.00  0.00    +0.180 C 
ATOM     15  C   UNL     1     -35.996  23.850   3.102  0.00  0.00    +0.120 C 
ATOM     16  C   UNL     1     -31.547  28.974   5.341  0.00  0.00    +0.063 C 
ATOM     17  C   UNL     1     -31.126  31.033   4.105  0.00  0.00    -0.004 C 
ATOM     18  C   UNL     1     -30.371  29.211   6.071  0.00  0.00    +0.136 C 
ATOM     19  C   UNL     1     -29.970  31.257   4.849  0.00  0.00    +0.003 C 
ATOM     20  C   UNL     1     -29.591  30.345   5.827  0.00  0.00    +0.037 C 
ENDROOT
BRANCH  15  23
ATOM     21  O   UNL     1     -35.740  21.531   3.432  0.00  0.00    -0.270 OA
ATOM     22  N   UNL     1     -37.836  22.359   2.929  0.00  0.00    -0.325 N 
ATOM     23  C   UNL     1     -36.490  22.466   3.175  0.00  0.00    +0.248 C 
ATOM     24  H   UNL     1     -38.272  21.477   2.953  0.00  0.00    +0.145 HD
ATOM     25  H   UNL     1     -38.366  23.165   2.730  0.00  0.00    +0.145 HD
ENDBRANCH  15  23
BRANCH   5  26
ATOM     26  O   UNL     1     -36.254  26.713   5.233  0.00  0.00    -0.373 OA
ATOM     27  H   UNL     1     -36.121  27.670   5.139  0.00  0.00    +0.211 HD
ENDBRANCH   5  26
BRANCH  11  28
ATOM     28  O   UNL     1     -36.286  24.040   5.452  0.00  0.00    -0.507 OA
ATOM     29  H   UNL     1     -35.938  23.214   5.724  0.00  0.00    +0.292 HD
ENDBRANCH  11  28
BRANCH  12  30
ATOM     30  O   UNL     1     -32.209  27.062   6.731  0.00  0.00    -0.506 OA
ATOM     31  H   UNL     1     -32.866  27.079   7.398  0.00  0.00    +0.292 HD
ENDBRANCH  12  30
BRANCH  18  32
ATOM     32  O   UNL     1     -29.918  28.353   7.032  0.00  0.00    -0.505 OA
ATOM     33  H   UNL     1     -29.011  28.349   7.268  0.00  0.00    +0.292 HD
ENDBRANCH  18  32
TORSDOF 5
ENDMDL
MODEL 2
REMARK VINA RESULT:      -7.4      1.581      1.939
REMARK  Name = 54676069
REMARK  5 active torsions:
REMARK  status: ('A' for Active; 'I' for Inactive)
REMARK    1  A    between atoms: C_5  and  O_26
REMARK    2  A    between atoms: C_11  and  O_28
REMARK    3  A    between atoms: C_12  and  O_30
REMARK    4  A    between atoms: C_15  and  C_23
REMARK    5  A    between atoms: C_18  and  O_32
REMARK                            x       y       z     vdW  Elec       q    Type
REMARK                         _______ _______ _______ _____ _____    ______ ____
ROOT
ATOM      1  O   UNL     1     -33.744  26.641   5.999  0.00  0.00    -0.289 OA
ATOM      2  O   UNL     1     -34.793  23.267   2.144  0.00  0.00    -0.291 OA
ATOM      3  C   UNL     1     -33.952  26.766   2.417  0.00  0.00    +0.047 C 
ATOM      4  C   UNL     1     -31.693  27.726   3.203  0.00  0.00    +0.033 C 
ATOM      5  C   UNL     1     -34.596  27.097   3.774  0.00  0.00    +0.193 C 
ATOM      6  C   UNL     1     -32.769  27.691   2.103  0.00  0.00    +0.009 C 
ATOM      7  C   UNL     1     -32.262  27.859   4.596  0.00  0.00    +0.049 C 
ATOM      8  C   UNL     1     -33.547  25.293   2.348  0.00  0.00    +0.073 C 
ATOM      9  C   UNL     1     -33.550  27.147   4.894  0.00  0.00    +0.203 C 
ATOM     10  C   UNL     1     -30.698  28.860   2.872  0.00  0.00    +0.031 C 
ATOM     11  C   UNL     1     -35.680  26.095   4.125  0.00  0.00    +0.149 C 
ATOM     12  C   UNL     1     -31.636  28.531   5.582  0.00  0.00    +0.135 C 
ATOM     13  C   UNL     1     -29.812  29.228   4.034  0.00  0.00    -0.016 C 
ATOM     14  C   UNL     1     -34.723  24.391   2.640  0.00  0.00    +0.180 C 
ATOM     15  C   UNL     1     -35.765  24.860   3.598  0.00  0.00    +0.120 C 
ATOM     16  C   UNL     1     -30.286  29.097   5.353  0.00  0.00    +0.063 C 
ATOM     17  C   UNL     1     -28.538  29.763   3.789  0.00  0.00    -0.004 C 
ATOM     18  C   UNL     1     -29.438  29.471   6.408  0.00  0.00    +0.136 C 
ATOM     19  C   UNL     1     -27.717  30.140   4.849  0.00  0.00    +0.003 C 
ATOM     20  C   UNL     1     -28.165  29.990   6.156  0.00  0.00    +0.037 C 
ENDROOT
BRANCH  15  23
ATOM     21  O   UNL     1     -38.047  24.314   3.816  0.00  0.00    -0.270 OA
ATOM     22  N   UNL     1     -36.466  22.804   4.558  0.00  0.00    -0.325 N 
ATOM     23  C   UNL     1     -36.880  23.984   3.992  0.00  0.00    +0.248 C 
ATOM     24  H   UNL     1     -37.130  22.143   4.859  0.00  0.00    +0.145 HD
ATOM     25  H   UNL     1     -35.504  22.619   4.664  0.00  0.00    +0.145 HD
ENDBRANCH  15  23
BRANCH   5  26
ATOM     26  O   UNL     1     -35.197  28.391   3.720  0.00  0.00    -0.373 OA
ATOM     27  H   UNL     1     -36.144  28.316   3.915  0.00  0.00    +0.211 HD
ENDBRANCH   5  26
BRANCH  11  28
ATOM     28  O   UNL     1     -36.625  26.542   5.038  0.00  0.00    -0.507 OA
ATOM     29  H   UNL     1     -36.351  26.970   5.825  0.00  0.00    +0.292 HD
ENDBRANCH  11  28
BRANCH  12  30
ATOM     30  O   UNL     1     -32.203  28.692   6.831  0.00  0.00    -0.506 OA
ATOM     31  H   UNL     1     -32.524  29.531   7.096  0.00  0.00    +0.292 HD
ENDBRANCH  12  30
BRANCH  18  32
ATOM     32  O   UNL     1     -29.795  29.334   7.719  0.00  0.00    -0.505 OA
ATOM     33  H   UNL     1     -30.701  29.319   7.959  0.00  0.00    +0.292 HD
ENDBRANCH  18  32
TORSDOF 5
ENDMDL
MODEL 3
REMARK VINA RESULT:      -6.9      3.856      9.251
REMARK  Name = 54676069
REMARK  5 active torsions:
REMARK  status: ('A' for Active; 'I' for Inactive)
REMARK    1  A    between atoms: C_5  and  O_26
REMARK    2  A    between atoms: C_11  and  O_28
REMARK    3  A    between atoms: C_12  and  O_30
REMARK    4  A    between atoms: C_15  and  C_23
REMARK    5  A    between atoms: C_18  and  O_32
REMARK                            x       y       z     vdW  Elec       q    Type
REMARK                         _______ _______ _______ _____ _____    ______ ____
ROOT
ATOM      1  O   UNL     1     -38.316  23.136   3.143  0.00  0.00    -0.289 OA
ATOM      2  O   UNL     1     -34.061  26.126   2.588  0.00  0.00    -0.291 OA
ATOM      3  C   UNL     1     -34.929  22.665   2.047  0.00  0.00    +0.047 C 
ATOM      4  C   UNL     1     -36.564  21.772   0.266  0.00  0.00    +0.033 C 
ATOM      5  C   UNL     1     -35.983  22.471   3.151  0.00  0.00    +0.193 C 
ATOM      6  C   UNL     1     -35.150  21.707   0.870  0.00  0.00    +0.009 C 
ATOM      7  C   UNL     1     -37.661  21.779   1.306  0.00  0.00    +0.049 C 
ATOM      8  C   UNL     1     -34.882  24.123   1.585  0.00  0.00    +0.073 C 
ATOM      9  C   UNL     1     -37.406  22.525   2.584  0.00  0.00    +0.203 C 
ATOM     10  C   UNL     1     -36.720  20.605  -0.733  0.00  0.00    +0.031 C 
ATOM     11  C   UNL     1     -35.826  23.510   4.247  0.00  0.00    +0.149 C 
ATOM     12  C   UNL     1     -38.862  21.202   1.106  0.00  0.00    +0.135 C 
ATOM     13  C   UNL     1     -38.151  20.347  -1.124  0.00  0.00    -0.016 C 
ATOM     14  C   UNL     1     -34.645  25.056   2.748  0.00  0.00    +0.180 C 
ATOM     15  C   UNL     1     -35.197  24.688   4.085  0.00  0.00    +0.120 C 
ATOM     16  C   UNL     1     -39.191  20.608  -0.211  0.00  0.00    +0.063 C 
ATOM     17  C   UNL     1     -38.435  19.782  -2.377  0.00  0.00    -0.004 C 
ATOM     18  C   UNL     1     -40.511  20.333  -0.605  0.00  0.00    +0.136 C 
ATOM     19  C   UNL     1     -39.750  19.505  -2.743  0.00  0.00    +0.003 C 
ATOM     20  C   UNL     1     -40.786  19.785  -1.860  0.00  0.00    +0.037 C 
ENDROOT
BRANCH  15  23
ATOM     21  O   UNL     1     -34.034  25.712   5.860  0.00  0.00    -0.270 OA
ATOM     22  N   UNL     1     -36.237  26.295   5.490  0.00  0.00    -0.325 N 
ATOM     23  C   UNL     1     -35.080  25.605   5.230  0.00  0.00    +0.248 C 
ATOM     24  H   UNL     1     -36.270  26.938   6.235  0.00  0.00    +0.145 HD
ATOM     25  H   UNL     1     -37.035  26.148   4.932  0.00  0.00    +0.145 HD
ENDBRANCH  15  23
BRANCH   5  26
ATOM     26  O   UNL     1     -35.829  21.182   3.744  0.00  0.00    -0.373 OA
ATOM     27  H   UNL     1     -36.668  20.699   3.688  0.00  0.00    +0.211 HD
ENDBRANCH   5  26
BRANCH  11  28
ATOM     28  O   UNL     1     -36.368  23.159   5.475  0.00  0.00    -0.507 OA
ATOM     29  H   UNL     1     -37.288  23.001   5.553  0.00  0.00    +0.292 HD
ENDBRANCH  11  28
BRANCH  12  30
ATOM     30  O   UNL     1     -39.829  21.167   2.092  0.00  0.00    -0.506 OA
ATOM     31  H   UNL     1     -40.494  21.825   2.119  0.00  0.00    +0.292 HD
ENDBRANCH  12  30
BRANCH  18  32
ATOM     32  O   UNL     1     -41.585  20.599   0.196  0.00  0.00    -0.505 OA
ATOM     33  H   UNL     1     -41.569  21.341   0.769  0.00  0.00    +0.292 HD
ENDBRANCH  18  32
TORSDOF 5
ENDMDL
MODEL 4
REMARK VINA RESULT:      -6.9      2.569      3.439
REMARK  Name = 54676069
REMARK  5 active torsions:
REMARK  status: ('A' for Active; 'I' for Inactive)
REMARK    1  A    between atoms: C_5  and  O_26
REMARK    2  A    between atoms: C_11  and  O_28
REMARK    3  A    between atoms: C_12  and  O_30
REMARK    4  A    between atoms: C_15  and  C_23
REMARK    5  A    between atoms: C_18  and  O_32
REMARK                            x       y       z     vdW  Elec       q    Type
REMARK                         _______ _______ _______ _____ _____    ______ ____
ROOT
ATOM      1  O   UNL     1     -34.547  24.823   3.752  0.00  0.00    -0.289 OA
ATOM      2  O   UNL     1     -36.224  21.610  -0.019  0.00  0.00    -0.291 OA
ATOM      3  C   UNL     1     -37.420  24.602   1.609  0.00  0.00    +0.047 C 
ATOM      4  C   UNL     1     -36.367  26.948   1.434  0.00  0.00    +0.033 C 
ATOM      5  C   UNL     1     -36.820  24.407   3.012  0.00  0.00    +0.193 C 
ATOM      6  C   UNL     1     -37.632  26.084   1.276  0.00  0.00    +0.009 C 
ATOM      7  C   UNL     1     -35.610  26.676   2.713  0.00  0.00    +0.049 C 
ATOM      8  C   UNL     1     -36.567  23.903   0.548  0.00  0.00    +0.073 C 
ATOM      9  C   UNL     1     -35.560  25.259   3.207  0.00  0.00    +0.203 C 
ATOM     10  C   UNL     1     -36.775  28.432   1.305  0.00  0.00    +0.031 C 
ATOM     11  C   UNL     1     -36.500  22.947   3.274  0.00  0.00    +0.149 C 
ATOM     12  C   UNL     1     -34.938  27.633   3.382  0.00  0.00    +0.135 C 
ATOM     13  C   UNL     1     -35.709  29.382   1.783  0.00  0.00    -0.016 C 
ATOM     14  C   UNL     1     -36.380  22.441   0.875  0.00  0.00    +0.180 C 
ATOM     15  C   UNL     1     -36.318  22.030   2.307  0.00  0.00    +0.120 C 
ATOM     16  C   UNL     1     -34.836  29.000   2.821  0.00  0.00    +0.063 C 
ATOM     17  C   UNL     1     -35.635  30.672   1.235  0.00  0.00    -0.004 C 
ATOM     18  C   UNL     1     -33.870  29.923   3.255  0.00  0.00    +0.136 C 
ATOM     19  C   UNL     1     -34.678  31.577   1.689  0.00  0.00    +0.003 C 
ATOM     20  C   UNL     1     -33.794  31.200   2.694  0.00  0.00    +0.037 C 
ENDROOT
BRANCH  15  23
ATOM     21  O   UNL     1     -35.082  20.338   3.385  0.00  0.00    -0.270 OA
ATOM     22  N   UNL     1     -36.952  19.745   2.167  0.00  0.00    -0.325 N 
ATOM     23  C   UNL     1     -36.041  20.634   2.682  0.00  0.00    +0.248 C 
ATOM     24  H   UNL     1     -36.861  18.783   2.357  0.00  0.00    +0.145 HD
ATOM     25  H   UNL     1     -37.696  20.069   1.610  0.00  0.00    +0.145 HD
ENDBRANCH  15  23
BRANCH   5  26
ATOM     26  O   UNL     1     -37.757  24.835   4.000  0.00  0.00    -0.373 OA
ATOM     27  H   UNL     1     -37.292  25.004   4.835  0.00  0.00    +0.211 HD
ENDBRANCH   5  26
BRANCH  11  28
ATOM     28  O   UNL     1     -36.421  22.591   4.613  0.00  0.00    -0.507 OA
ATOM     29  H   UNL     1     -36.901  21.851   4.930  0.00  0.00    +0.292 HD
ENDBRANCH  11  28
BRANCH  12  30
ATOM     30  O   UNL     1     -34.303  27.377   4.582  0.00  0.00    -0.506 OA
ATOM     31  H   UNL     1     -33.935  28.081   5.077  0.00  0.00    +0.292 HD
ENDBRANCH  12  30
BRANCH  18  32
ATOM     32  O   UNL     1     -32.952  29.623   4.221  0.00  0.00    -0.505 OA
ATOM     33  H   UNL     1     -32.286  28.985   4.052  0.00  0.00    +0.292 HD
ENDBRANCH  18  32
TORSDOF 5
ENDMDL
MODEL 5
REMARK VINA RESULT:      -6.9      5.371      8.027
REMARK  Name = 54676069
REMARK  5 active torsions:
REMARK  status: ('A' for Active; 'I' for Inactive)
REMARK    1  A    between atoms: C_5  and  O_26
REMARK    2  A    between atoms: C_11  and  O_28
REMARK    3  A    between atoms: C_12  and  O_30
REMARK    4  A    between atoms: C_15  and  C_23
REMARK    5  A    between atoms: C_18  and  O_32
REMARK                            x       y       z     vdW  Elec       q    Type
REMARK                         _______ _______ _______ _____ _____    ______ ____
ROOT
ATOM      1  O   UNL     1     -34.285  23.989   0.444  0.00  0.00    -0.289 OA
ATOM      2  O   UNL     1     -37.219  24.473   4.747  0.00  0.00    -0.291 OA
ATOM      3  C   UNL     1     -36.652  21.957   2.222  0.00  0.00    +0.047 C 
ATOM      4  C   UNL     1     -34.465  20.644   1.853  0.00  0.00    +0.033 C 
ATOM      5  C   UNL     1     -36.353  22.851   1.007  0.00  0.00    +0.193 C 
ATOM      6  C   UNL     1     -35.983  20.582   2.100  0.00  0.00    +0.009 C 
ATOM      7  C   UNL     1     -34.070  21.648   0.795  0.00  0.00    +0.049 C 
ATOM      8  C   UNL     1     -36.265  22.658   3.525  0.00  0.00    +0.073 C 
ATOM      9  C   UNL     1     -34.848  22.931   0.727  0.00  0.00    +0.203 C 
ATOM     10  C   UNL     1     -33.970  19.221   1.514  0.00  0.00    +0.031 C 
ATOM     11  C   UNL     1     -36.915  24.247   1.201  0.00  0.00    +0.149 C 
ATOM     12  C   UNL     1     -33.024  21.465  -0.034  0.00  0.00    +0.135 C 
ATOM     13  C   UNL     1     -32.589  19.201   0.913  0.00  0.00    -0.016 C 
ATOM     14  C   UNL     1     -36.944  24.001   3.644  0.00  0.00    +0.180 C 
ATOM     15  C   UNL     1     -37.212  24.780   2.400  0.00  0.00    +0.120 C 
ATOM     16  C   UNL     1     -32.145  20.284   0.130  0.00  0.00    +0.063 C 
ATOM     17  C   UNL     1     -31.777  18.070   1.083  0.00  0.00    -0.004 C 
ATOM     18  C   UNL     1     -30.859  20.219  -0.431  0.00  0.00    +0.136 C 
ATOM     19  C   UNL     1     -30.510  18.019   0.507  0.00  0.00    +0.003 C 
ATOM     20  C   UNL     1     -30.050  19.095  -0.245  0.00  0.00    +0.037 C 
ENDROOT
BRANCH  15  23
ATOM     21  O   UNL     1     -37.258  27.079   1.885  0.00  0.00    -0.270 OA
ATOM     22  N   UNL     1     -38.923  26.207   3.225  0.00  0.00    -0.325 N 
ATOM     23  C   UNL     1     -37.782  26.136   2.465  0.00  0.00    +0.248 C 
ATOM     24  H   UNL     1     -39.388  27.068   3.335  0.00  0.00    +0.145 HD
ATOM     25  H   UNL     1     -39.278  25.397   3.659  0.00  0.00    +0.145 HD
ENDBRANCH  15  23
BRANCH   5  26
ATOM     26  O   UNL     1     -36.955  22.296  -0.162  0.00  0.00    -0.373 OA
ATOM     27  H   UNL     1     -37.361  23.005  -0.685  0.00  0.00    +0.211 HD
ENDBRANCH   5  26
BRANCH  11  28
ATOM     28  O   UNL     1     -37.134  24.965   0.034  0.00  0.00    -0.507 OA
ATOM     29  H   UNL     1     -36.968  25.887   0.012  0.00  0.00    +0.292 HD
ENDBRANCH  11  28
BRANCH  12  30
ATOM     30  O   UNL     1     -32.717  22.367  -1.034  0.00  0.00    -0.506 OA
ATOM     31  H   UNL     1     -33.399  22.726  -1.567  0.00  0.00    +0.292 HD
ENDBRANCH  12  30
BRANCH  18  32
ATOM     32  O   UNL     1     -30.326  21.241  -1.164  0.00  0.00    -0.505 OA
ATOM     33  H   UNL     1     -29.437  21.193  -1.457  0.00  0.00    +0.292 HD
ENDBRANCH  18  32
TORSDOF 5
ENDMDL
MODEL 6
REMARK VINA RESULT:      -6.8      1.723      2.445
REMARK  Name = 54676069
REMARK  5 active torsions:
REMARK  status: ('A' for Active; 'I' for Inactive)
REMARK    1  A    between atoms: C_5  and  O_26
REMARK    2  A    between atoms: C_11  and  O_28
REMARK    3  A    between atoms: C_12  and  O_30
REMARK    4  A    between atoms: C_15  and  C_23
REMARK    5  A    between atoms: C_18  and  O_32
REMARK                            x       y       z     vdW  Elec       q    Type
REMARK                         _______ _______ _______ _____ _____    ______ ____
ROOT
ATOM      1  O   UNL     1     -35.385  24.051   4.747  0.00  0.00    -0.289 OA
ATOM      2  O   UNL     1     -34.879  21.273   0.345  0.00  0.00    -0.291 OA
ATOM      3  C   UNL     1     -35.138  24.761   1.237  0.00  0.00    +0.047 C 
ATOM      4  C   UNL     1     -33.384  26.128   2.538  0.00  0.00    +0.033 C 
ATOM      5  C   UNL     1     -36.027  24.658   2.488  0.00  0.00    +0.193 C 
ATOM      6  C   UNL     1     -34.245  26.007   1.268  0.00  0.00    +0.009 C 
ATOM      7  C   UNL     1     -34.148  25.851   3.811  0.00  0.00    +0.049 C 
ATOM      8  C   UNL     1     -34.317  23.485   1.043  0.00  0.00    +0.073 C 
ATOM      9  C   UNL     1     -35.201  24.780   3.774  0.00  0.00    +0.203 C 
ATOM     10  C   UNL     1     -32.728  27.526   2.548  0.00  0.00    +0.031 C 
ATOM     11  C   UNL     1     -36.809  23.357   2.500  0.00  0.00    +0.149 C 
ATOM     12  C   UNL     1     -33.883  26.476   4.975  0.00  0.00    +0.135 C 
ATOM     13  C   UNL     1     -32.150  27.900   3.888  0.00  0.00    -0.016 C 
ATOM     14  C   UNL     1     -35.207  22.266   0.993  0.00  0.00    +0.180 C 
ATOM     15  C   UNL     1     -36.459  22.260   1.804  0.00  0.00    +0.120 C 
ATOM     16  C   UNL     1     -32.739  27.412   5.071  0.00  0.00    +0.063 C 
ATOM     17  C   UNL     1     -31.067  28.789   3.951  0.00  0.00    -0.004 C 
ATOM     18  C   UNL     1     -32.185  27.801   6.302  0.00  0.00    +0.136 C 
ATOM     19  C   UNL     1     -30.542  29.174   5.182  0.00  0.00    +0.003 C 
ATOM     20  C   UNL     1     -31.097  28.676   6.355  0.00  0.00    +0.037 C 
ENDROOT
BRANCH  15  23
ATOM     21  O   UNL     1     -38.486  21.093   1.518  0.00  0.00    -0.270 OA
ATOM     22  N   UNL     1     -36.657  19.959   2.353  0.00  0.00    -0.325 N 
ATOM     23  C   UNL     1     -37.312  21.063   1.869  0.00  0.00    +0.248 C 
ATOM     24  H   UNL     1     -37.135  19.102   2.439  0.00  0.00    +0.145 HD
ATOM     25  H   UNL     1     -35.710  20.022   2.615  0.00  0.00    +0.145 HD
ENDBRANCH  15  23
BRANCH   5  26
ATOM     26  O   UNL     1     -36.965  25.733   2.503  0.00  0.00    -0.373 OA
ATOM     27  H   UNL     1     -36.762  26.329   3.242  0.00  0.00    +0.211 HD
ENDBRANCH   5  26
BRANCH  11  28
ATOM     28  O   UNL     1     -37.956  23.365   3.280  0.00  0.00    -0.507 OA
ATOM     29  H   UNL     1     -38.392  22.560   3.481  0.00  0.00    +0.292 HD
ENDBRANCH  11  28
BRANCH  12  30
ATOM     30  O   UNL     1     -34.634  26.252   6.112  0.00  0.00    -0.506 OA
ATOM     31  H   UNL     1     -34.737  26.933   6.747  0.00  0.00    +0.292 HD
ENDBRANCH  12  30
BRANCH  18  32
ATOM     32  O   UNL     1     -32.659  27.340   7.497  0.00  0.00    -0.505 OA
ATOM     33  H   UNL     1     -32.158  26.720   7.992  0.00  0.00    +0.292 HD
ENDBRANCH  18  32
TORSDOF 5
ENDMDL
MODEL 7
REMARK VINA RESULT:      -6.8     11.497     13.376
REMARK  Name = 54676069
REMARK  5 active torsions:
REMARK  status: ('A' for Active; 'I' for Inactive)
REMARK    1  A    between atoms: C_5  and  O_26
REMARK    2  A    between atoms: C_11  and  O_28
REMARK    3  A    between atoms: C_12  and  O_30
REMARK    4  A    between atoms: C_15  and  C_23
REMARK    5  A    between atoms: C_18  and  O_32
REMARK                            x       y       z     vdW  Elec       q    Type
REMARK                         _______ _______ _______ _____ _____    ______ ____
ROOT
ATOM      1  O   UNL     1     -45.165  30.928   3.875  0.00  0.00    -0.289 OA
ATOM      2  O   UNL     1     -45.730  25.762   4.461  0.00  0.00    -0.291 OA
ATOM      3  C   UNL     1     -44.898  28.570   6.570  0.00  0.00    +0.047 C 
ATOM      4  C   UNL     1     -46.483  30.491   7.233  0.00  0.00    +0.033 C 
ATOM      5  C   UNL     1     -44.183  29.475   5.551  0.00  0.00    +0.193 C 
ATOM      6  C   UNL     1     -45.531  29.379   7.709  0.00  0.00    +0.009 C 
ATOM      7  C   UNL     1     -45.925  31.312   6.093  0.00  0.00    +0.049 C 
ATOM      8  C   UNL     1     -45.925  27.672   5.878  0.00  0.00    +0.073 C 
ATOM      9  C   UNL     1     -45.101  30.600   5.059  0.00  0.00    +0.203 C 
ATOM     10  C   UNL     1     -46.853  31.366   8.450  0.00  0.00    +0.031 C 
ATOM     11  C   UNL     1     -43.673  28.672   4.368  0.00  0.00    +0.149 C 
ATOM     12  C   UNL     1     -46.186  32.625   5.941  0.00  0.00    +0.135 C 
ATOM     13  C   UNL     1     -47.486  32.678   8.066  0.00  0.00    -0.016 C 
ATOM     14  C   UNL     1     -45.287  26.867   4.771  0.00  0.00    +0.180 C 
ATOM     15  C   UNL     1     -44.152  27.467   4.011  0.00  0.00    +0.120 C 
ATOM     16  C   UNL     1     -47.131  33.305   6.856  0.00  0.00    +0.063 C 
ATOM     17  C   UNL     1     -48.377  33.302   8.952  0.00  0.00    -0.004 C 
ATOM     18  C   UNL     1     -47.726  34.538   6.544  0.00  0.00    +0.136 C 
ATOM     19  C   UNL     1     -48.946  34.532   8.630  0.00  0.00    +0.003 C 
ATOM     20  C   UNL     1     -48.624  35.146   7.425  0.00  0.00    +0.037 C 
ENDROOT
BRANCH  15  23
ATOM     21  O   UNL     1     -42.375  26.449   2.846  0.00  0.00    -0.270 OA
ATOM     22  N   UNL     1     -44.457  26.526   1.852  0.00  0.00    -0.325 N 
ATOM     23  C   UNL     1     -43.558  26.767   2.861  0.00  0.00    +0.248 C 
ATOM     24  H   UNL     1     -44.166  26.062   1.034  0.00  0.00    +0.145 HD
ATOM     25  H   UNL     1     -45.393  26.816   1.946  0.00  0.00    +0.145 HD
ENDBRANCH  15  23
BRANCH   5  26
ATOM     26  O   UNL     1     -43.062  30.105   6.169  0.00  0.00    -0.373 OA
ATOM     27  H   UNL     1     -42.814  30.894   5.661  0.00  0.00    +0.211 HD
ENDBRANCH   5  26
BRANCH  11  28
ATOM     28  O   UNL     1     -42.634  29.259   3.659  0.00  0.00    -0.507 OA
ATOM     29  H   UNL     1     -42.813  29.723   2.865  0.00  0.00    +0.292 HD
ENDBRANCH  11  28
BRANCH  12  30
ATOM     30  O   UNL     1     -45.617  33.370   4.926  0.00  0.00    -0.506 OA
ATOM     31  H   UNL     1     -44.984  34.030   5.128  0.00  0.00    +0.292 HD
ENDBRANCH  12  30
BRANCH  18  32
ATOM     32  O   UNL     1     -47.480  35.195   5.371  0.00  0.00    -0.505 OA
ATOM     33  H   UNL     1     -48.173  35.330   4.755  0.00  0.00    +0.292 HD
ENDBRANCH  18  32
TORSDOF 5
ENDMDL
MODEL 8
REMARK VINA RESULT:      -6.6      6.646      8.148
REMARK  Name = 54676069
REMARK  5 active torsions:
REMARK  status: ('A' for Active; 'I' for Inactive)
REMARK    1  A    between atoms: C_5  and  O_26
REMARK    2  A    between atoms: C_11  and  O_28
REMARK    3  A    between atoms: C_12  and  O_30
REMARK    4  A    between atoms: C_15  and  C_23
REMARK    5  A    between atoms: C_18  and  O_32
REMARK                            x       y       z     vdW  Elec       q    Type
REMARK                         _______ _______ _______ _____ _____    ______ ____
ROOT
ATOM      1  O   UNL     1     -35.519  22.530   2.467  0.00  0.00    -0.289 OA
ATOM      2  O   UNL     1     -34.056  19.839  -1.772  0.00  0.00    -0.291 OA
ATOM      3  C   UNL     1     -37.002  20.082   0.299  0.00  0.00    +0.047 C 
ATOM      4  C   UNL     1     -38.549  22.133   0.501  0.00  0.00    +0.033 C 
ATOM      5  C   UNL     1     -36.355  20.401   1.658  0.00  0.00    +0.193 C 
ATOM      6  C   UNL     1     -38.432  20.628   0.202  0.00  0.00    +0.009 C 
ATOM      7  C   UNL     1     -37.776  22.564   1.726  0.00  0.00    +0.049 C 
ATOM      8  C   UNL     1     -36.129  20.583  -0.853  0.00  0.00    +0.073 C 
ATOM      9  C   UNL     1     -36.459  21.894   1.991  0.00  0.00    +0.203 C 
ATOM     10  C   UNL     1     -40.047  22.493   0.604  0.00  0.00    +0.031 C 
ATOM     11  C   UNL     1     -34.901  19.966   1.689  0.00  0.00    +0.149 C 
ATOM     12  C   UNL     1     -38.190  23.553   2.542  0.00  0.00    +0.135 C 
ATOM     13  C   UNL     1     -40.291  23.840   1.233  0.00  0.00    -0.016 C 
ATOM     14  C   UNL     1     -34.729  20.024  -0.759  0.00  0.00    +0.180 C 
ATOM     15  C   UNL     1     -34.150  19.767   0.591  0.00  0.00    +0.120 C 
ATOM     16  C   UNL     1     -39.400  24.338   2.203  0.00  0.00    +0.063 C 
ATOM     17  C   UNL     1     -41.446  24.562   0.895  0.00  0.00    -0.004 C 
ATOM     18  C   UNL     1     -39.674  25.588   2.782  0.00  0.00    +0.136 C 
ATOM     19  C   UNL     1     -41.707  25.793   1.491  0.00  0.00    +0.003 C 
ATOM     20  C   UNL     1     -40.819  26.307   2.429  0.00  0.00    +0.037 C 
ENDROOT
BRANCH  15  23
ATOM     21  O   UNL     1     -32.483  18.270   1.319  0.00  0.00    -0.270 OA
ATOM     22  N   UNL     1     -31.846  20.177   0.184  0.00  0.00    -0.325 N 
ATOM     23  C   UNL     1     -32.757  19.316   0.743  0.00  0.00    +0.248 C 
ATOM     24  H   UNL     1     -30.884  19.972   0.228  0.00  0.00    +0.145 HD
ATOM     25  H   UNL     1     -32.154  21.000  -0.261  0.00  0.00    +0.145 HD
ENDBRANCH  15  23
BRANCH   5  26
ATOM     26  O   UNL     1     -37.043  19.704   2.695  0.00  0.00    -0.373 OA
ATOM     27  H   UNL     1     -36.943  18.748   2.564  0.00  0.00    +0.211 HD
ENDBRANCH   5  26
BRANCH  11  28
ATOM     28  O   UNL     1     -34.374  19.757   2.956  0.00  0.00    -0.507 OA
ATOM     29  H   UNL     1     -34.847  20.042   3.713  0.00  0.00    +0.292 HD
ENDBRANCH  11  28
BRANCH  12  30
ATOM     30  O   UNL     1     -37.500  23.891   3.690  0.00  0.00    -0.506 OA
ATOM     31  H   UNL     1     -36.729  23.416   3.930  0.00  0.00    +0.292 HD
ENDBRANCH  12  30
BRANCH  18  32
ATOM     32  O   UNL     1     -38.842  26.171   3.694  0.00  0.00    -0.505 OA
ATOM     33  H   UNL     1     -38.415  25.646   4.342  0.00  0.00    +0.292 HD
ENDBRANCH  18  32
TORSDOF 5
ENDMDL
MODEL 9
REMARK VINA RESULT:      -6.6      3.792      6.431
REMARK  Name = 54676069
REMARK  5 active torsions:
REMARK  status: ('A' for Active; 'I' for Inactive)
REMARK    1  A    between atoms: C_5  and  O_26
REMARK    2  A    between atoms: C_11  and  O_28
REMARK    3  A    between atoms: C_12  and  O_30
REMARK    4  A    between atoms: C_15  and  C_23
REMARK    5  A    between atoms: C_18  and  O_32
REMARK                            x       y       z     vdW  Elec       q    Type
REMARK                         _______ _______ _______ _____ _____    ______ ____
ROOT
ATOM      1  O   UNL     1     -35.695  20.046   2.818  0.00  0.00    -0.289 OA
ATOM      2  O   UNL     1     -33.071  18.389  -1.391  0.00  0.00    -0.291 OA
ATOM      3  C   UNL     1     -35.030  21.282  -0.486  0.00  0.00    +0.047 C 
ATOM      4  C   UNL     1     -34.390  23.060   1.265  0.00  0.00    +0.033 C 
ATOM      5  C   UNL     1     -36.031  20.640   0.491  0.00  0.00    +0.193 C 
ATOM      6  C   UNL     1     -34.810  22.770  -0.187  0.00  0.00    +0.009 C 
ATOM      7  C   UNL     1     -35.210  22.311   2.289  0.00  0.00    +0.049 C 
ATOM      8  C   UNL     1     -33.710  20.510  -0.503  0.00  0.00    +0.073 C 
ATOM      9  C   UNL     1     -35.645  20.915   1.948  0.00  0.00    +0.203 C 
ATOM     10  C   UNL     1     -34.438  24.588   1.488  0.00  0.00    +0.031 C 
ATOM     11  C   UNL     1     -36.140  19.144   0.260  0.00  0.00    +0.149 C 
ATOM     12  C   UNL     1     -35.508  22.818   3.501  0.00  0.00    +0.135 C 
ATOM     13  C   UNL     1     -34.392  24.976   2.943  0.00  0.00    -0.016 C 
ATOM     14  C   UNL     1     -33.935  19.051  -0.818  0.00  0.00    +0.180 C 
ATOM     15  C   UNL     1     -35.200  18.406  -0.358  0.00  0.00    +0.120 C 
ATOM     16  C   UNL     1     -34.946  24.124   3.919  0.00  0.00    +0.063 C 
ATOM     17  C   UNL     1     -33.856  26.219   3.311  0.00  0.00    -0.004 C 
ATOM     18  C   UNL     1     -34.903  24.531   5.262  0.00  0.00    +0.136 C 
ATOM     19  C   UNL     1     -33.835  26.610   4.647  0.00  0.00    +0.003 C 
ATOM     20  C   UNL     1     -34.354  25.765   5.622  0.00  0.00    +0.037 C 
ENDROOT
BRANCH  15  23
ATOM     21  O   UNL     1     -36.291  16.551  -1.317  0.00  0.00    -0.270 OA
ATOM     22  N   UNL     1     -34.590  16.179   0.198  0.00  0.00    -0.325 N 
ATOM     23  C   UNL     1     -35.428  16.965  -0.552  0.00  0.00    +0.248 C 
ATOM     24  H   UNL     1     -34.656  15.198   0.145  0.00  0.00    +0.145 HD
ATOM     25  H   UNL     1     -33.922  16.595   0.790  0.00  0.00    +0.145 HD
ENDBRANCH  15  23
BRANCH   5  26
ATOM     26  O   UNL     1     -37.326  21.209   0.298  0.00  0.00    -0.373 OA
ATOM     27  H   UNL     1     -37.289  21.860  -0.421  0.00  0.00    +0.211 HD
ENDBRANCH   5  26
BRANCH  11  28
ATOM     28  O   UNL     1     -37.312  18.559   0.718  0.00  0.00    -0.507 OA
ATOM     29  H   UNL     1     -37.922  18.193   0.108  0.00  0.00    +0.292 HD
ENDBRANCH  11  28
BRANCH  12  30
ATOM     30  O   UNL     1     -36.310  22.142   4.400  0.00  0.00    -0.506 OA
ATOM     31  H   UNL     1     -37.141  22.498   4.647  0.00  0.00    +0.292 HD
ENDBRANCH  12  30
BRANCH  18  32
ATOM     32  O   UNL     1     -35.372  23.750   6.280  0.00  0.00    -0.505 OA
ATOM     33  H   UNL     1     -35.835  22.958   6.087  0.00  0.00    +0.292 HD
ENDBRANCH  18  32
TORSDOF 5
ENDMDL
