MODEL 1
REMARK VINA RESULT:      -6.2      0.000      0.000
REMARK  Name = 192532
REMARK  7 active torsions:
REMARK  status: ('A' for Active; 'I' for Inactive)
REMARK    1  A    between atoms: C_2  and  N_8
REMARK    2  A    between atoms: C_2  and  C_20
REMARK    3  A    between atoms: C_3  and  O_16
REMARK    4  A    between atoms: C_4  and  O_18
REMARK    5  A    between atoms: C_5  and  C_23
REMARK    6  A    between atoms: C_20  and  O_21
REMARK    7  A    between atoms: C_23  and  O_24
REMARK                            x       y       z     vdW  Elec       q    Type
REMARK                         _______ _______ _______ _____ _____    ______ ____
ROOT
ATOM      1  O   UNL     1     -35.185  25.946   2.816  0.00  0.00    -0.334 OA
ATOM      2  C   UNL     1     -36.058  25.141   3.639  0.00  0.00    +0.214 C 
ATOM      3  C   UNL     1     -35.715  25.489   5.094  0.00  0.00    +0.185 C 
ATOM      4  C   UNL     1     -34.244  25.851   4.984  0.00  0.00    +0.171 C 
ATOM      5  C   UNL     1     -34.194  26.574   3.648  0.00  0.00    +0.175 C 
ENDROOT
BRANCH   2   8
ATOM      6  O   UNL     1     -36.332  22.986   5.487  0.00  0.00    -0.252 OA
ATOM      7  O   UNL     1     -34.866  19.913   2.396  0.00  0.00    -0.270 OA
ATOM      8  N   UNL     1     -35.757  23.750   3.358  0.00  0.00    -0.218 N 
ATOM      9  N   UNL     1     -35.598  21.465   3.936  0.00  0.00    -0.236 N 
ATOM     10  C   UNL     1     -35.298  23.423   2.093  0.00  0.00    +0.071 C 
ATOM     11  C   UNL     1     -35.926  22.762   4.344  0.00  0.00    +0.315 C 
ATOM     12  C   UNL     1     -34.984  22.181   1.706  0.00  0.00    +0.047 C 
ATOM     13  C   UNL     1     -35.135  21.075   2.688  0.00  0.00    +0.250 C 
ATOM     14  C   UNL     1     -34.488  21.842   0.336  0.00  0.00    +0.037 C 
ATOM     15  H   UNL     1     -35.708  20.751   4.606  0.00  0.00    +0.159 HD
ENDBRANCH   2   8
BRANCH   3  16
ATOM     16  O   UNL     1     -36.473  26.599   5.567  0.00  0.00    -0.378 OA
ATOM     17  H   UNL     1     -35.878  27.243   5.982  0.00  0.00    +0.211 HD
ENDBRANCH   3  16
BRANCH   4  18
ATOM     18  O   UNL     1     -33.785  26.664   6.043  0.00  0.00    -0.379 OA
ATOM     19  H   UNL     1     -32.942  27.075   5.793  0.00  0.00    +0.211 HD
ENDBRANCH   4  18
BRANCH   2  20
ATOM     20  C   UNL     1     -37.501  25.437   3.241  0.00  0.00    +0.187 C 
BRANCH  20  21
ATOM     21  O   UNL     1     -38.360  24.799   4.166  0.00  0.00    -0.378 OA
ATOM     22  H   UNL     1     -38.510  23.881   3.888  0.00  0.00    +0.211 HD
ENDBRANCH  20  21
ENDBRANCH   2  20
BRANCH   5  23
ATOM     23  C   UNL     1     -32.836  26.491   2.972  0.00  0.00    +0.169 C 
BRANCH  23  24
ATOM     24  O   UNL     1     -31.884  27.156   3.783  0.00  0.00    -0.379 OA
ATOM     25  H   UNL     1     -31.466  27.867   3.273  0.00  0.00    +0.211 HD
ENDBRANCH  23  24
ENDBRANCH   5  23
TORSDOF 7
ENDMDL
MODEL 2
REMARK VINA RESULT:      -5.9      2.428      4.094
REMARK  Name = 192532
REMARK  7 active torsions:
REMARK  status: ('A' for Active; 'I' for Inactive)
REMARK    1  A    between atoms: C_2  and  N_8
REMARK    2  A    between atoms: C_2  and  C_20
REMARK    3  A    between atoms: C_3  and  O_16
REMARK    4  A    between atoms: C_4  and  O_18
REMARK    5  A    between atoms: C_5  and  C_23
REMARK    6  A    between atoms: C_20  and  O_21
REMARK    7  A    between atoms: C_23  and  O_24
REMARK                            x       y       z     vdW  Elec       q    Type
REMARK                         _______ _______ _______ _____ _____    ______ ____
ROOT
ATOM      1  O   UNL     1     -34.998  22.547   3.871  0.00  0.00    -0.334 OA
ATOM      2  C   UNL     1     -35.640  23.364   2.867  0.00  0.00    +0.214 C 
ATOM      3  C   UNL     1     -35.882  24.732   3.518  0.00  0.00    +0.185 C 
ATOM      4  C   UNL     1     -36.056  24.350   4.978  0.00  0.00    +0.171 C 
ATOM      5  C   UNL     1     -35.040  23.230   5.137  0.00  0.00    +0.175 C 
ENDROOT
BRANCH   2   8
ATOM      6  O   UNL     1     -36.053  20.552   2.625  0.00  0.00    -0.252 OA
ATOM      7  O   UNL     1     -40.494  21.113   1.574  0.00  0.00    -0.270 OA
ATOM      8  N   UNL     1     -36.898  22.725   2.529  0.00  0.00    -0.218 N 
ATOM      9  N   UNL     1     -38.266  20.847   2.101  0.00  0.00    -0.236 N 
ATOM     10  C   UNL     1     -38.001  23.532   2.302  0.00  0.00    +0.071 C 
ATOM     11  C   UNL     1     -36.994  21.325   2.434  0.00  0.00    +0.315 C 
ATOM     12  C   UNL     1     -39.216  23.071   1.983  0.00  0.00    +0.047 C 
ATOM     13  C   UNL     1     -39.405  21.601   1.863  0.00  0.00    +0.250 C 
ATOM     14  C   UNL     1     -40.398  23.954   1.740  0.00  0.00    +0.037 C 
ATOM     15  H   UNL     1     -38.363  19.869   2.028  0.00  0.00    +0.159 HD
ENDBRANCH   2   8
BRANCH   3  16
ATOM     16  O   UNL     1     -34.765  25.602   3.354  0.00  0.00    -0.378 OA
ATOM     17  H   UNL     1     -33.979  25.198   3.756  0.00  0.00    +0.211 HD
ENDBRANCH   3  16
BRANCH   4  18
ATOM     18  O   UNL     1     -35.810  25.416   5.870  0.00  0.00    -0.379 OA
ATOM     19  H   UNL     1     -35.832  26.256   5.384  0.00  0.00    +0.211 HD
ENDBRANCH   4  18
BRANCH   2  20
ATOM     20  C   UNL     1     -34.744  23.400   1.632  0.00  0.00    +0.187 C 
BRANCH  20  21
ATOM     21  O   UNL     1     -35.105  24.523   0.851  0.00  0.00    -0.378 OA
ATOM     22  H   UNL     1     -35.539  24.224   0.036  0.00  0.00    +0.211 HD
ENDBRANCH  20  21
ENDBRANCH   2  20
BRANCH   5  23
ATOM     23  C   UNL     1     -35.402  22.244   6.233  0.00  0.00    +0.169 C 
BRANCH  23  24
ATOM     24  O   UNL     1     -35.383  20.935   5.691  0.00  0.00    -0.379 OA
ATOM     25  H   UNL     1     -35.380  20.987   4.723  0.00  0.00    +0.211 HD
ENDBRANCH  23  24
ENDBRANCH   5  23
TORSDOF 7
ENDMDL
MODEL 3
REMARK VINA RESULT:      -5.9      1.703      4.764
REMARK  Name = 192532
REMARK  7 active torsions:
REMARK  status: ('A' for Active; 'I' for Inactive)
REMARK    1  A    between atoms: C_2  and  N_8
REMARK    2  A    between atoms: C_2  and  C_20
REMARK    3  A    between atoms: C_3  and  O_16
REMARK    4  A    between atoms: C_4  and  O_18
REMARK    5  A    between atoms: C_5  and  C_23
REMARK    6  A    between atoms: C_20  and  O_21
REMARK    7  A    between atoms: C_23  and  O_24
REMARK                            x       y       z     vdW  Elec       q    Type
REMARK                         _______ _______ _______ _____ _____    ______ ____
ROOT
ATOM      1  O   UNL     1     -36.465  23.889   4.849  0.00  0.00    -0.334 OA
ATOM      2  C   UNL     1     -36.261  24.582   3.598  0.00  0.00    +0.214 C 
ATOM      3  C   UNL     1     -36.007  23.496   2.543  0.00  0.00    +0.185 C 
ATOM      4  C   UNL     1     -35.355  22.407   3.376  0.00  0.00    +0.171 C 
ATOM      5  C   UNL     1     -36.128  22.500   4.683  0.00  0.00    +0.175 C 
ENDROOT
BRANCH   2   8
ATOM      6  O   UNL     1     -35.796  26.360   5.779  0.00  0.00    -0.252 OA
ATOM      7  O   UNL     1     -31.766  27.728   4.036  0.00  0.00    -0.270 OA
ATOM      8  N   UNL     1     -35.095  25.429   3.757  0.00  0.00    -0.218 N 
ATOM      9  N   UNL     1     -33.789  27.034   4.897  0.00  0.00    -0.236 N 
ATOM     10  C   UNL     1     -34.116  25.384   2.778  0.00  0.00    +0.071 C 
ATOM     11  C   UNL     1     -34.963  26.274   4.874  0.00  0.00    +0.315 C 
ATOM     12  C   UNL     1     -32.994  26.113   2.804  0.00  0.00    +0.047 C 
ATOM     13  C   UNL     1     -32.775  27.033   3.951  0.00  0.00    +0.250 C 
ATOM     14  C   UNL     1     -31.945  26.055   1.739  0.00  0.00    +0.037 C 
ATOM     15  H   UNL     1     -33.669  27.634   5.669  0.00  0.00    +0.159 HD
ENDBRANCH   2   8
BRANCH   3  16
ATOM     16  O   UNL     1     -37.220  23.028   1.960  0.00  0.00    -0.378 OA
ATOM     17  H   UNL     1     -37.975  23.411   2.436  0.00  0.00    +0.211 HD
ENDBRANCH   3  16
BRANCH   4  18
ATOM     18  O   UNL     1     -35.450  21.123   2.796  0.00  0.00    -0.379 OA
ATOM     19  H   UNL     1     -36.045  21.159   2.030  0.00  0.00    +0.211 HD
ENDBRANCH   4  18
BRANCH   2  20
ATOM     20  C   UNL     1     -37.485  25.453   3.327  0.00  0.00    +0.187 C 
BRANCH  20  21
ATOM     21  O   UNL     1     -38.599  24.876   3.981  0.00  0.00    -0.378 OA
ATOM     22  H   UNL     1     -38.812  25.394   4.773  0.00  0.00    +0.211 HD
ENDBRANCH  20  21
ENDBRANCH   2  20
BRANCH   5  23
ATOM     23  C   UNL     1     -35.333  22.022   5.885  0.00  0.00    +0.169 C 
BRANCH  23  24
ATOM     24  O   UNL     1     -35.245  20.609   5.838  0.00  0.00    -0.379 OA
ATOM     25  H   UNL     1     -35.299  20.312   4.916  0.00  0.00    +0.211 HD
ENDBRANCH  23  24
ENDBRANCH   5  23
TORSDOF 7
ENDMDL
MODEL 4
REMARK VINA RESULT:      -5.6      1.701      2.131
REMARK  Name = 192532
REMARK  7 active torsions:
REMARK  status: ('A' for Active; 'I' for Inactive)
REMARK    1  A    between atoms: C_2  and  N_8
REMARK    2  A    between atoms: C_2  and  C_20
REMARK    3  A    between atoms: C_3  and  O_16
REMARK    4  A    between atoms: C_4  and  O_18
REMARK    5  A    between atoms: C_5  and  C_23
REMARK    6  A    between atoms: C_20  and  O_21
REMARK    7  A    between atoms: C_23  and  O_24
REMARK                            x       y       z     vdW  Elec       q    Type
REMARK                         _______ _______ _______ _____ _____    ______ ____
ROOT
ATOM      1  O   UNL     1     -34.883  25.607   1.839  0.00  0.00    -0.334 OA
ATOM      2  C   UNL     1     -35.696  25.782   3.020  0.00  0.00    +0.214 C 
ATOM      3  C   UNL     1     -35.052  26.925   3.817  0.00  0.00    +0.185 C 
ATOM      4  C   UNL     1     -33.589  26.779   3.435  0.00  0.00    +0.171 C 
ATOM      5  C   UNL     1     -33.681  26.387   1.969  0.00  0.00    +0.175 C 
ENDROOT
BRANCH   2   8
ATOM      6  O   UNL     1     -35.907  25.554   5.855  0.00  0.00    -0.252 OA
ATOM      7  O   UNL     1     -35.481  20.979   5.698  0.00  0.00    -0.270 OA
ATOM      8  N   UNL     1     -35.645  24.541   3.769  0.00  0.00    -0.218 N 
ATOM      9  N   UNL     1     -35.692  23.273   5.762  0.00  0.00    -0.236 N 
ATOM     10  C   UNL     1     -35.481  23.360   3.066  0.00  0.00    +0.071 C 
ATOM     11  C   UNL     1     -35.758  24.540   5.171  0.00  0.00    +0.315 C 
ATOM     12  C   UNL     1     -35.417  22.150   3.634  0.00  0.00    +0.047 C 
ATOM     13  C   UNL     1     -35.529  22.057   5.114  0.00  0.00    +0.250 C 
ATOM     14  C   UNL     1     -35.239  20.881   2.863  0.00  0.00    +0.037 C 
ATOM     15  H   UNL     1     -35.769  23.241   6.743  0.00  0.00    +0.159 HD
ENDBRANCH   2   8
BRANCH   3  16
ATOM     16  O   UNL     1     -35.553  28.198   3.417  0.00  0.00    -0.378 OA
ATOM     17  H   UNL     1     -35.740  28.186   2.464  0.00  0.00    +0.211 HD
ENDBRANCH   3  16
BRANCH   4  18
ATOM     18  O   UNL     1     -32.840  27.961   3.620  0.00  0.00    -0.379 OA
ATOM     19  H   UNL     1     -33.443  28.718   3.692  0.00  0.00    +0.211 HD
ENDBRANCH   4  18
BRANCH   2  20
ATOM     20  C   UNL     1     -37.133  26.049   2.579  0.00  0.00    +0.187 C 
BRANCH  20  21
ATOM     21  O   UNL     1     -37.904  26.349   3.726  0.00  0.00    -0.378 OA
ATOM     22  H   UNL     1     -38.362  25.547   4.026  0.00  0.00    +0.211 HD
ENDBRANCH  20  21
ENDBRANCH   2  20
BRANCH   5  23
ATOM     23  C   UNL     1     -32.492  25.572   1.491  0.00  0.00    +0.169 C 
BRANCH  23  24
ATOM     24  O   UNL     1     -31.396  25.820   2.354  0.00  0.00    -0.379 OA
ATOM     25  H   UNL     1     -31.709  25.856   3.272  0.00  0.00    +0.211 HD
ENDBRANCH  23  24
ENDBRANCH   5  23
TORSDOF 7
ENDMDL
MODEL 5
REMARK VINA RESULT:      -5.4      1.891      4.801
REMARK  Name = 192532
REMARK  7 active torsions:
REMARK  status: ('A' for Active; 'I' for Inactive)
REMARK    1  A    between atoms: C_2  and  N_8
REMARK    2  A    between atoms: C_2  and  C_20
REMARK    3  A    between atoms: C_3  and  O_16
REMARK    4  A    between atoms: C_4  and  O_18
REMARK    5  A    between atoms: C_5  and  C_23
REMARK    6  A    between atoms: C_20  and  O_21
REMARK    7  A    between atoms: C_23  and  O_24
REMARK                            x       y       z     vdW  Elec       q    Type
REMARK                         _______ _______ _______ _____ _____    ______ ____
ROOT
ATOM      1  O   UNL     1     -37.173  22.968   3.451  0.00  0.00    -0.334 OA
ATOM      2  C   UNL     1     -37.181  24.386   3.171  0.00  0.00    +0.214 C 
ATOM      3  C   UNL     1     -36.967  24.524   1.658  0.00  0.00    +0.185 C 
ATOM      4  C   UNL     1     -36.130  23.294   1.353  0.00  0.00    +0.171 C 
ATOM      5  C   UNL     1     -36.744  22.255   2.278  0.00  0.00    +0.175 C 
ENDROOT
BRANCH   2   8
ATOM      6  O   UNL     1     -36.169  23.457   5.671  0.00  0.00    -0.252 OA
ATOM      7  O   UNL     1     -32.981  26.768   5.813  0.00  0.00    -0.270 OA
ATOM      8  N   UNL     1     -36.079  24.979   3.903  0.00  0.00    -0.218 N 
ATOM      9  N   UNL     1     -34.585  25.114   5.729  0.00  0.00    -0.236 N 
ATOM     10  C   UNL     1     -35.455  26.089   3.359  0.00  0.00    +0.071 C 
ATOM     11  C   UNL     1     -35.658  24.442   5.133  0.00  0.00    +0.315 C 
ATOM     12  C   UNL     1     -34.429  26.730   3.932  0.00  0.00    +0.047 C 
ATOM     13  C   UNL     1     -33.920  26.227   5.235  0.00  0.00    +0.250 C 
ATOM     14  C   UNL     1     -33.764  27.929   3.334  0.00  0.00    +0.037 C 
ATOM     15  H   UNL     1     -34.268  24.760   6.592  0.00  0.00    +0.159 HD
ENDBRANCH   2   8
BRANCH   3  16
ATOM     16  O   UNL     1     -38.199  24.486   0.942  0.00  0.00    -0.378 OA
ATOM     17  H   UNL     1     -38.915  24.802   1.516  0.00  0.00    +0.211 HD
ENDBRANCH   3  16
BRANCH   4  18
ATOM     18  O   UNL     1     -36.188  22.896  -0.000  0.00  0.00    -0.379 OA
ATOM     19  H   UNL     1     -36.069  21.935  -0.060  0.00  0.00    +0.211 HD
ENDBRANCH   4  18
BRANCH   2  20
ATOM     20  C   UNL     1     -38.498  24.968   3.680  0.00  0.00    +0.187 C 
BRANCH  20  21
ATOM     21  O   UNL     1     -38.576  26.320   3.273  0.00  0.00    -0.378 OA
ATOM     22  H   UNL     1     -38.466  26.897   4.045  0.00  0.00    +0.211 HD
ENDBRANCH  20  21
ENDBRANCH   2  20
BRANCH   5  23
ATOM     23  C   UNL     1     -35.771  21.159   2.677  0.00  0.00    +0.169 C 
BRANCH  23  24
ATOM     24  O   UNL     1     -35.785  21.032   4.088  0.00  0.00    -0.379 OA
ATOM     25  H   UNL     1     -35.587  21.892   4.492  0.00  0.00    +0.211 HD
ENDBRANCH  23  24
ENDBRANCH   5  23
TORSDOF 7
ENDMDL
MODEL 6
REMARK VINA RESULT:      -5.3      2.566      5.475
REMARK  Name = 192532
REMARK  7 active torsions:
REMARK  status: ('A' for Active; 'I' for Inactive)
REMARK    1  A    between atoms: C_2  and  N_8
REMARK    2  A    between atoms: C_2  and  C_20
REMARK    3  A    between atoms: C_3  and  O_16
REMARK    4  A    between atoms: C_4  and  O_18
REMARK    5  A    between atoms: C_5  and  C_23
REMARK    6  A    between atoms: C_20  and  O_21
REMARK    7  A    between atoms: C_23  and  O_24
REMARK                            x       y       z     vdW  Elec       q    Type
REMARK                         _______ _______ _______ _____ _____    ______ ____
ROOT
ATOM      1  O   UNL     1     -38.054  22.140   2.303  0.00  0.00    -0.334 OA
ATOM      2  C   UNL     1     -38.333  23.542   2.093  0.00  0.00    +0.214 C 
ATOM      3  C   UNL     1     -37.833  23.870   0.680  0.00  0.00    +0.185 C 
ATOM      4  C   UNL     1     -36.686  22.887   0.524  0.00  0.00    +0.171 C 
ATOM      5  C   UNL     1     -37.226  21.654   1.232  0.00  0.00    +0.175 C 
ENDROOT
BRANCH   2   8
ATOM      6  O   UNL     1     -38.454  26.365   2.478  0.00  0.00    -0.252 OA
ATOM      7  O   UNL     1     -35.422  26.204   5.931  0.00  0.00    -0.270 OA
ATOM      8  N   UNL     1     -37.587  24.286   3.089  0.00  0.00    -0.218 N 
ATOM      9  N   UNL     1     -36.940  26.270   4.197  0.00  0.00    -0.236 N 
ATOM     10  C   UNL     1     -36.740  23.585   3.931  0.00  0.00    +0.071 C 
ATOM     11  C   UNL     1     -37.718  25.682   3.194  0.00  0.00    +0.315 C 
ATOM     12  C   UNL     1     -35.996  24.150   4.889  0.00  0.00    +0.047 C 
ATOM     13  C   UNL     1     -36.077  25.623   5.070  0.00  0.00    +0.250 C 
ATOM     14  C   UNL     1     -35.085  23.380   5.792  0.00  0.00    +0.037 C 
ATOM     15  H   UNL     1     -37.013  27.247   4.295  0.00  0.00    +0.159 HD
ENDBRANCH   2   8
BRANCH   3  16
ATOM     16  O   UNL     1     -38.836  23.635  -0.306  0.00  0.00    -0.378 OA
ATOM     17  H   UNL     1     -39.066  24.474  -0.737  0.00  0.00    +0.211 HD
ENDBRANCH   3  16
BRANCH   4  18
ATOM     18  O   UNL     1     -36.353  22.620  -0.822  0.00  0.00    -0.379 OA
ATOM     19  H   UNL     1     -37.163  22.437  -1.324  0.00  0.00    +0.211 HD
ENDBRANCH   4  18
BRANCH   2  20
ATOM     20  C   UNL     1     -39.827  23.771   2.305  0.00  0.00    +0.187 C 
BRANCH  20  21
ATOM     21  O   UNL     1     -40.528  22.653   1.796  0.00  0.00    -0.378 OA
ATOM     22  H   UNL     1     -39.929  21.891   1.745  0.00  0.00    +0.211 HD
ENDBRANCH  20  21
ENDBRANCH   2  20
BRANCH   5  23
ATOM     23  C   UNL     1     -36.135  20.762   1.798  0.00  0.00    +0.169 C 
BRANCH  23  24
ATOM     24  O   UNL     1     -36.729  19.815   2.667  0.00  0.00    -0.379 OA
ATOM     25  H   UNL     1     -37.405  20.252   3.209  0.00  0.00    +0.211 HD
ENDBRANCH  23  24
ENDBRANCH   5  23
TORSDOF 7
ENDMDL
MODEL 7
REMARK VINA RESULT:      -5.2      1.792      4.756
REMARK  Name = 192532
REMARK  7 active torsions:
REMARK  status: ('A' for Active; 'I' for Inactive)
REMARK    1  A    between atoms: C_2  and  N_8
REMARK    2  A    between atoms: C_2  and  C_20
REMARK    3  A    between atoms: C_3  and  O_16
REMARK    4  A    between atoms: C_4  and  O_18
REMARK    5  A    between atoms: C_5  and  C_23
REMARK    6  A    between atoms: C_20  and  O_21
REMARK    7  A    between atoms: C_23  and  O_24
REMARK                            x       y       z     vdW  Elec       q    Type
REMARK                         _______ _______ _______ _____ _____    ______ ____
ROOT
ATOM      1  O   UNL     1     -36.262  24.419   1.598  0.00  0.00    -0.334 OA
ATOM      2  C   UNL     1     -36.078  23.601   2.775  0.00  0.00    +0.214 C 
ATOM      3  C   UNL     1     -37.484  23.216   3.253  0.00  0.00    +0.185 C 
ATOM      4  C   UNL     1     -38.301  24.412   2.797  0.00  0.00    +0.171 C 
ATOM      5  C   UNL     1     -37.656  24.748   1.462  0.00  0.00    +0.175 C 
ENDROOT
BRANCH   2   8
ATOM      6  O   UNL     1     -36.085  23.123   5.586  0.00  0.00    -0.252 OA
ATOM      7  O   UNL     1     -33.453  26.804   6.400  0.00  0.00    -0.270 OA
ATOM      8  N   UNL     1     -35.402  24.415   3.767  0.00  0.00    -0.218 N 
ATOM      9  N   UNL     1     -34.773  24.963   5.978  0.00  0.00    -0.236 N 
ATOM     10  C   UNL     1     -34.690  25.520   3.332  0.00  0.00    +0.071 C 
ATOM     11  C   UNL     1     -35.470  24.091   5.134  0.00  0.00    +0.315 C 
ATOM     12  C   UNL     1     -34.024  26.352   4.142  0.00  0.00    +0.047 C 
ATOM     13  C   UNL     1     -34.044  26.081   5.603  0.00  0.00    +0.250 C 
ATOM     14  C   UNL     1     -33.259  27.543   3.658  0.00  0.00    +0.037 C 
ATOM     15  H   UNL     1     -34.802  24.760   6.941  0.00  0.00    +0.159 HD
ENDBRANCH   2   8
BRANCH   3  16
ATOM     16  O   UNL     1     -37.948  22.021   2.629  0.00  0.00    -0.378 OA
ATOM     17  H   UNL     1     -38.099  22.188   1.685  0.00  0.00    +0.211 HD
ENDBRANCH   3  16
BRANCH   4  18
ATOM     18  O   UNL     1     -39.679  24.134   2.663  0.00  0.00    -0.379 OA
ATOM     19  H   UNL     1     -39.873  23.901   1.742  0.00  0.00    +0.211 HD
ENDBRANCH   4  18
BRANCH   2  20
ATOM     20  C   UNL     1     -35.190  22.417   2.402  0.00  0.00    +0.187 C 
BRANCH  20  21
ATOM     21  O   UNL     1     -35.420  21.375   3.332  0.00  0.00    -0.378 OA
ATOM     22  H   UNL     1     -35.824  21.742   4.134  0.00  0.00    +0.211 HD
ENDBRANCH  20  21
ENDBRANCH   2  20
BRANCH   5  23
ATOM     23  C   UNL     1     -37.798  26.210   1.078  0.00  0.00    +0.169 C 
BRANCH  23  24
ATOM     24  O   UNL     1     -38.315  26.922   2.189  0.00  0.00    -0.379 OA
ATOM     25  H   UNL     1     -38.903  27.627   1.875  0.00  0.00    +0.211 HD
ENDBRANCH  23  24
ENDBRANCH   5  23
TORSDOF 7
ENDMDL
MODEL 8
REMARK VINA RESULT:      -5.1      2.712      5.785
REMARK  Name = 192532
REMARK  7 active torsions:
REMARK  status: ('A' for Active; 'I' for Inactive)
REMARK    1  A    between atoms: C_2  and  N_8
REMARK    2  A    between atoms: C_2  and  C_20
REMARK    3  A    between atoms: C_3  and  O_16
REMARK    4  A    between atoms: C_4  and  O_18
REMARK    5  A    between atoms: C_5  and  C_23
REMARK    6  A    between atoms: C_20  and  O_21
REMARK    7  A    between atoms: C_23  and  O_24
REMARK                            x       y       z     vdW  Elec       q    Type
REMARK                         _______ _______ _______ _____ _____    ______ ____
ROOT
ATOM      1  O   UNL     1     -37.595  23.258   0.801  0.00  0.00    -0.334 OA
ATOM      2  C   UNL     1     -36.751  22.357   1.551  0.00  0.00    +0.214 C 
ATOM      3  C   UNL     1     -37.661  21.219   2.032  0.00  0.00    +0.185 C 
ATOM      4  C   UNL     1     -38.996  21.929   2.168  0.00  0.00    +0.171 C 
ATOM      5  C   UNL     1     -38.972  22.881   0.982  0.00  0.00    +0.175 C 
ENDROOT
BRANCH   2   8
ATOM      6  O   UNL     1     -36.172  25.150   1.562  0.00  0.00    -0.252 OA
ATOM      7  O   UNL     1     -34.727  25.015   5.925  0.00  0.00    -0.270 OA
ATOM      8  N   UNL     1     -36.218  23.100   2.677  0.00  0.00    -0.218 N 
ATOM      9  N   UNL     1     -35.453  25.068   3.738  0.00  0.00    -0.236 N 
ATOM     10  C   UNL     1     -35.963  22.413   3.852  0.00  0.00    +0.071 C 
ATOM     11  C   UNL     1     -35.966  24.480   2.577  0.00  0.00    +0.315 C 
ATOM     12  C   UNL     1     -35.471  22.978   4.961  0.00  0.00    +0.047 C 
ATOM     13  C   UNL     1     -35.177  24.435   4.942  0.00  0.00    +0.250 C 
ATOM     14  C   UNL     1     -35.199  22.223   6.224  0.00  0.00    +0.037 C 
ATOM     15  H   UNL     1     -35.268  26.034   3.698  0.00  0.00    +0.159 HD
ENDBRANCH   2   8
BRANCH   3  16
ATOM     16  O   UNL     1     -37.745  20.167   1.074  0.00  0.00    -0.378 OA
ATOM     17  H   UNL     1     -36.864  19.781   0.941  0.00  0.00    +0.211 HD
ENDBRANCH   3  16
BRANCH   4  18
ATOM     18  O   UNL     1     -40.104  21.056   2.122  0.00  0.00    -0.379 OA
ATOM     19  H   UNL     1     -39.882  20.280   1.583  0.00  0.00    +0.211 HD
ENDBRANCH   4  18
BRANCH   2  20
ATOM     20  C   UNL     1     -35.602  21.912   0.650  0.00  0.00    +0.187 C 
BRANCH  20  21
ATOM     21  O   UNL     1     -36.092  21.792  -0.672  0.00  0.00    -0.378 OA
ATOM     22  H   UNL     1     -36.897  22.326  -0.768  0.00  0.00    +0.211 HD
ENDBRANCH  20  21
ENDBRANCH   2  20
BRANCH   5  23
ATOM     23  C   UNL     1     -39.816  24.125   1.195  0.00  0.00    +0.169 C 
BRANCH  23  24
ATOM     24  O   UNL     1     -41.180  23.745   1.242  0.00  0.00    -0.379 OA
ATOM     25  H   UNL     1     -41.734  24.495   0.974  0.00  0.00    +0.211 HD
ENDBRANCH  23  24
ENDBRANCH   5  23
TORSDOF 7
ENDMDL
MODEL 9
REMARK VINA RESULT:      -5.1      2.611      4.854
REMARK  Name = 192532
REMARK  7 active torsions:
REMARK  status: ('A' for Active; 'I' for Inactive)
REMARK    1  A    between atoms: C_2  and  N_8
REMARK    2  A    between atoms: C_2  and  C_20
REMARK    3  A    between atoms: C_3  and  O_16
REMARK    4  A    between atoms: C_4  and  O_18
REMARK    5  A    between atoms: C_5  and  C_23
REMARK    6  A    between atoms: C_20  and  O_21
REMARK    7  A    between atoms: C_23  and  O_24
REMARK                            x       y       z     vdW  Elec       q    Type
REMARK                         _______ _______ _______ _____ _____    ______ ____
ROOT
ATOM      1  O   UNL     1     -35.539  22.570   1.677  0.00  0.00    -0.334 OA
ATOM      2  C   UNL     1     -36.099  23.626   2.487  0.00  0.00    +0.214 C 
ATOM      3  C   UNL     1     -35.887  23.205   3.948  0.00  0.00    +0.185 C 
ATOM      4  C   UNL     1     -35.928  21.691   3.839  0.00  0.00    +0.171 C 
ATOM      5  C   UNL     1     -35.215  21.448   2.517  0.00  0.00    +0.175 C 
ENDROOT
BRANCH   2   8
ATOM      6  O   UNL     1     -38.092  24.806   4.152  0.00  0.00    -0.252 OA
ATOM      7  O   UNL     1     -41.432  23.843   1.142  0.00  0.00    -0.270 OA
ATOM      8  N   UNL     1     -37.513  23.707   2.176  0.00  0.00    -0.218 N 
ATOM      9  N   UNL     1     -39.748  24.318   2.642  0.00  0.00    -0.236 N 
ATOM     10  C   UNL     1     -37.950  23.173   0.975  0.00  0.00    +0.071 C 
ATOM     11  C   UNL     1     -38.416  24.311   3.070  0.00  0.00    +0.315 C 
ATOM     12  C   UNL     1     -39.225  23.181   0.569  0.00  0.00    +0.047 C 
ATOM     13  C   UNL     1     -40.245  23.801   1.455  0.00  0.00    +0.250 C 
ATOM     14  C   UNL     1     -39.684  22.599  -0.730  0.00  0.00    +0.037 C 
ATOM     15  H   UNL     1     -40.402  24.736   3.248  0.00  0.00    +0.159 HD
ENDBRANCH   2   8
BRANCH   3  16
ATOM     16  O   UNL     1     -34.625  23.641   4.447  0.00  0.00    -0.378 OA
ATOM     17  H   UNL     1     -34.051  22.871   4.590  0.00  0.00    +0.211 HD
ENDBRANCH   3  16
BRANCH   4  18
ATOM     18  O   UNL     1     -35.289  21.033   4.912  0.00  0.00    -0.379 OA
ATOM     19  H   UNL     1     -34.519  21.551   5.197  0.00  0.00    +0.211 HD
ENDBRANCH   4  18
BRANCH   2  20
ATOM     20  C   UNL     1     -35.421  24.939   2.102  0.00  0.00    +0.187 C 
BRANCH  20  21
ATOM     21  O   UNL     1     -35.551  25.843   3.182  0.00  0.00    -0.378 OA
ATOM     22  H   UNL     1     -36.386  26.330   3.097  0.00  0.00    +0.211 HD
ENDBRANCH  20  21
ENDBRANCH   2  20
BRANCH   5  23
ATOM     23  C   UNL     1     -35.643  20.161   1.834  0.00  0.00    +0.169 C 
BRANCH  23  24
ATOM     24  O   UNL     1     -36.776  19.644   2.509  0.00  0.00    -0.379 OA
ATOM     25  H   UNL     1     -36.641  18.701   2.693  0.00  0.00    +0.211 HD
ENDBRANCH  23  24
ENDBRANCH   5  23
TORSDOF 7
ENDMDL
