MODEL 1
REMARK VINA RESULT:      -6.2      0.000      0.000
REMARK  Name = 5281603
REMARK  7 active torsions:
REMARK  status: ('A' for Active; 'I' for Inactive)
REMARK    1  A    between atoms: C_5  and  C_12
REMARK    2  A    between atoms: C_6  and  O_22
REMARK    3  A    between atoms: C_8  and  O_26
REMARK    4  A    between atoms: C_10  and  O_24
REMARK    5  A    between atoms: C_11  and  O_28
REMARK    6  A    between atoms: C_15  and  O_18
REMARK    7  A    between atoms: C_17  and  O_20
REMARK                            x       y       z     vdW  Elec       q    Type
REMARK                         _______ _______ _______ _____ _____    ______ ____
ROOT
ATOM      1  O   UNL     1     -32.967  26.579   4.996  0.00  0.00    -0.450 OA
ATOM      2  O   UNL     1     -35.429  28.518   2.392  0.00  0.00    -0.283 OA
ATOM      3  C   UNL     1     -35.088  26.672   3.819  0.00  0.00    +0.113 A 
ATOM      4  C   UNL     1     -34.200  26.057   4.698  0.00  0.00    +0.155 A 
ATOM      5  C   UNL     1     -32.595  27.776   4.404  0.00  0.00    +0.182 A 
ATOM      6  C   UNL     1     -33.355  28.464   3.533  0.00  0.00    +0.212 A 
ATOM      7  C   UNL     1     -34.694  27.936   3.177  0.00  0.00    +0.238 A 
ATOM      8  C   UNL     1     -36.332  26.094   3.553  0.00  0.00    +0.177 C 
ATOM      9  C   UNL     1     -34.550  24.857   5.317  0.00  0.00    +0.078 C 
ATOM     10  C   UNL     1     -36.680  24.894   4.174  0.00  0.00    +0.206 C 
ATOM     11  C   UNL     1     -35.791  24.276   5.055  0.00  0.00    +0.174 C 
ENDROOT
BRANCH   5  12
ATOM     12  C   UNL     1     -31.251  28.223   4.808  0.00  0.00    +0.041 C 
ATOM     13  C   UNL     1     -31.007  28.597   6.130  0.00  0.00    +0.043 C 
ATOM     14  C   UNL     1     -30.220  28.271   3.869  0.00  0.00    +0.006 C 
ATOM     15  C   UNL     1     -29.734  29.021   6.512  0.00  0.00    +0.168 C 
ATOM     16  C   UNL     1     -28.947  28.694   4.251  0.00  0.00    +0.040 C 
ATOM     17  C   UNL     1     -28.704  29.069   5.573  0.00  0.00    +0.167 C 
BRANCH  15  18
ATOM     18  O   UNL     1     -29.510  29.386   7.805  0.00  0.00    -0.503 OA
ATOM     19  H   UNL     1     -29.613  30.280   8.065  0.00  0.00    +0.292 HD
ENDBRANCH  15  18
BRANCH  17  20
ATOM     20  O   UNL     1     -27.457  29.479   5.935  0.00  0.00    -0.503 OA
ATOM     21  H   UNL     1     -27.271  30.392   6.027  0.00  0.00    +0.292 HD
ENDBRANCH  17  20
ENDBRANCH   5  12
BRANCH   6  22
ATOM     22  O   UNL     1     -32.941  29.636   2.936  0.00  0.00    -0.465 OA
ATOM     23  C   UNL     1     -33.341  30.758   3.699  0.00  0.00    +0.253 C 
ENDBRANCH   6  22
BRANCH  10  24
ATOM     24  O   UNL     1     -37.892  24.319   3.922  0.00  0.00    -0.465 OA
ATOM     25  C   UNL     1     -37.959  23.408   2.829  0.00  0.00    +0.253 C 
ENDBRANCH  10  24
BRANCH   8  26
ATOM     26  O   UNL     1     -37.228  26.665   2.699  0.00  0.00    -0.503 OA
ATOM     27  H   UNL     1     -37.046  26.696   1.780  0.00  0.00    +0.292 HD
ENDBRANCH   8  26
BRANCH  11  28
ATOM     28  O   UNL     1     -36.123  23.105   5.666  0.00  0.00    -0.503 OA
ATOM     29  H   UNL     1     -35.687  22.848   6.455  0.00  0.00    +0.292 HD
ENDBRANCH  11  28
TORSDOF 7
ENDMDL
MODEL 2
REMARK VINA RESULT:      -6.2      3.186      7.027
REMARK  Name = 5281603
REMARK  7 active torsions:
REMARK  status: ('A' for Active; 'I' for Inactive)
REMARK    1  A    between atoms: C_5  and  C_12
REMARK    2  A    between atoms: C_6  and  O_22
REMARK    3  A    between atoms: C_8  and  O_26
REMARK    4  A    between atoms: C_10  and  O_24
REMARK    5  A    between atoms: C_11  and  O_28
REMARK    6  A    between atoms: C_15  and  O_18
REMARK    7  A    between atoms: C_17  and  O_20
REMARK                            x       y       z     vdW  Elec       q    Type
REMARK                         _______ _______ _______ _____ _____    ______ ____
ROOT
ATOM      1  O   UNL     1     -34.885  26.303   3.506  0.00  0.00    -0.450 OA
ATOM      2  O   UNL     1     -38.094  27.326   1.213  0.00  0.00    -0.283 OA
ATOM      3  C   UNL     1     -36.010  27.950   2.123  0.00  0.00    +0.113 A 
ATOM      4  C   UNL     1     -34.943  27.541   2.920  0.00  0.00    +0.155 A 
ATOM      5  C   UNL     1     -35.928  25.418   3.286  0.00  0.00    +0.182 A 
ATOM      6  C   UNL     1     -37.018  25.691   2.547  0.00  0.00    +0.212 A 
ATOM      7  C   UNL     1     -37.128  27.020   1.898  0.00  0.00    +0.238 A 
ATOM      8  C   UNL     1     -36.016  29.225   1.552  0.00  0.00    +0.177 C 
ATOM      9  C   UNL     1     -33.873  28.407   3.150  0.00  0.00    +0.078 C 
ATOM     10  C   UNL     1     -34.944  30.088   1.784  0.00  0.00    +0.206 C 
ATOM     11  C   UNL     1     -33.875  29.680   2.581  0.00  0.00    +0.174 C 
ENDROOT
BRANCH   5  12
ATOM     12  C   UNL     1     -35.740  24.128   3.972  0.00  0.00    +0.041 C 
ATOM     13  C   UNL     1     -35.803  22.936   3.249  0.00  0.00    +0.043 C 
ATOM     14  C   UNL     1     -35.498  24.096   5.346  0.00  0.00    +0.006 C 
ATOM     15  C   UNL     1     -35.626  21.714   3.899  0.00  0.00    +0.168 C 
ATOM     16  C   UNL     1     -35.320  22.875   5.996  0.00  0.00    +0.040 C 
ATOM     17  C   UNL     1     -35.384  21.684   5.272  0.00  0.00    +0.167 C 
BRANCH  15  18
ATOM     18  O   UNL     1     -35.692  20.558   3.182  0.00  0.00    -0.503 OA
ATOM     19  H   UNL     1     -34.905  20.144   2.888  0.00  0.00    +0.292 HD
ENDBRANCH  15  18
BRANCH  17  20
ATOM     20  O   UNL     1     -35.207  20.497   5.917  0.00  0.00    -0.503 OA
ATOM     21  H   UNL     1     -35.496  20.397   6.802  0.00  0.00    +0.292 HD
ENDBRANCH  17  20
ENDBRANCH   5  12
BRANCH   6  22
ATOM     22  O   UNL     1     -38.055  24.799   2.376  0.00  0.00    -0.465 OA
ATOM     23  C   UNL     1     -39.055  24.996   3.357  0.00  0.00    +0.253 C 
ENDBRANCH   6  22
BRANCH  10  24
ATOM     24  O   UNL     1     -34.939  31.336   1.231  0.00  0.00    -0.465 OA
ATOM     25  C   UNL     1     -34.329  31.472  -0.049  0.00  0.00    +0.253 C 
ENDBRANCH  10  24
BRANCH   8  26
ATOM     26  O   UNL     1     -37.042  29.662   0.767  0.00  0.00    -0.503 OA
ATOM     27  H   UNL     1     -37.831  29.979   1.160  0.00  0.00    +0.292 HD
ENDBRANCH   8  26
BRANCH  11  28
ATOM     28  O   UNL     1     -32.824  30.516   2.812  0.00  0.00    -0.503 OA
ATOM     29  H   UNL     1     -31.958  30.260   2.565  0.00  0.00    +0.292 HD
ENDBRANCH  11  28
TORSDOF 7
ENDMDL
MODEL 3
REMARK VINA RESULT:      -6.1      2.516      8.206
REMARK  Name = 5281603
REMARK  7 active torsions:
REMARK  status: ('A' for Active; 'I' for Inactive)
REMARK    1  A    between atoms: C_5  and  C_12
REMARK    2  A    between atoms: C_6  and  O_22
REMARK    3  A    between atoms: C_8  and  O_26
REMARK    4  A    between atoms: C_10  and  O_24
REMARK    5  A    between atoms: C_11  and  O_28
REMARK    6  A    between atoms: C_15  and  O_18
REMARK    7  A    between atoms: C_17  and  O_20
REMARK                            x       y       z     vdW  Elec       q    Type
REMARK                         _______ _______ _______ _____ _____    ______ ____
ROOT
ATOM      1  O   UNL     1     -35.891  25.558   2.379  0.00  0.00    -0.450 OA
ATOM      2  O   UNL     1     -34.354  25.845   6.142  0.00  0.00    -0.283 OA
ATOM      3  C   UNL     1     -34.381  26.658   3.929  0.00  0.00    +0.113 A 
ATOM      4  C   UNL     1     -34.943  26.507   2.663  0.00  0.00    +0.155 A 
ATOM      5  C   UNL     1     -36.315  24.721   3.399  0.00  0.00    +0.182 A 
ATOM      6  C   UNL     1     -35.846  24.756   4.660  0.00  0.00    +0.212 A 
ATOM      7  C   UNL     1     -34.817  25.763   5.013  0.00  0.00    +0.238 A 
ATOM      8  C   UNL     1     -33.418  27.643   4.160  0.00  0.00    +0.177 C 
ATOM      9  C   UNL     1     -34.544  27.342   1.619  0.00  0.00    +0.078 C 
ATOM     10  C   UNL     1     -33.021  28.477   3.114  0.00  0.00    +0.206 C 
ATOM     11  C   UNL     1     -33.584  28.327   1.845  0.00  0.00    +0.174 C 
ENDROOT
BRANCH   5  12
ATOM     12  C   UNL     1     -37.332  23.750   2.960  0.00  0.00    +0.041 C 
ATOM     13  C   UNL     1     -36.963  22.437   2.666  0.00  0.00    +0.043 C 
ATOM     14  C   UNL     1     -38.665  24.143   2.837  0.00  0.00    +0.006 C 
ATOM     15  C   UNL     1     -37.927  21.517   2.250  0.00  0.00    +0.168 C 
ATOM     16  C   UNL     1     -39.629  23.224   2.421  0.00  0.00    +0.040 C 
ATOM     17  C   UNL     1     -39.259  21.911   2.128  0.00  0.00    +0.167 C 
BRANCH  15  18
ATOM     18  O   UNL     1     -37.553  20.239   1.966  0.00  0.00    -0.503 OA
ATOM     19  H   UNL     1     -37.781  19.543   2.550  0.00  0.00    +0.292 HD
ENDBRANCH  15  18
BRANCH  17  20
ATOM     20  O   UNL     1     -40.209  21.022   1.725  0.00  0.00    -0.503 OA
ATOM     21  H   UNL     1     -40.401  20.922   0.814  0.00  0.00    +0.292 HD
ENDBRANCH  17  20
ENDBRANCH   5  12
BRANCH   6  22
ATOM     22  O   UNL     1     -36.266  23.886   5.643  0.00  0.00    -0.465 OA
ATOM     23  C   UNL     1     -35.320  22.851   5.836  0.00  0.00    +0.253 C 
ENDBRANCH   6  22
BRANCH  10  24
ATOM     24  O   UNL     1     -32.081  29.443   3.327  0.00  0.00    -0.465 OA
ATOM     25  C   UNL     1     -32.551  30.716   3.761  0.00  0.00    +0.253 C 
ENDBRANCH  10  24
BRANCH   8  26
ATOM     26  O   UNL     1     -32.844  27.822   5.384  0.00  0.00    -0.503 OA
ATOM     27  H   UNL     1     -32.586  28.680   5.661  0.00  0.00    +0.292 HD
ENDBRANCH   8  26
BRANCH  11  28
ATOM     28  O   UNL     1     -33.202  29.138   0.819  0.00  0.00    -0.503 OA
ATOM     29  H   UNL     1     -33.745  29.859   0.565  0.00  0.00    +0.292 HD
ENDBRANCH  11  28
TORSDOF 7
ENDMDL
MODEL 4
REMARK VINA RESULT:      -6.1      3.832      6.770
REMARK  Name = 5281603
REMARK  7 active torsions:
REMARK  status: ('A' for Active; 'I' for Inactive)
REMARK    1  A    between atoms: C_5  and  C_12
REMARK    2  A    between atoms: C_6  and  O_22
REMARK    3  A    between atoms: C_8  and  O_26
REMARK    4  A    between atoms: C_10  and  O_24
REMARK    5  A    between atoms: C_11  and  O_28
REMARK    6  A    between atoms: C_15  and  O_18
REMARK    7  A    between atoms: C_17  and  O_20
REMARK                            x       y       z     vdW  Elec       q    Type
REMARK                         _______ _______ _______ _____ _____    ______ ____
ROOT
ATOM      1  O   UNL     1     -35.238  22.124   2.528  0.00  0.00    -0.450 OA
ATOM      2  O   UNL     1     -39.245  22.006   1.799  0.00  0.00    -0.283 OA
ATOM      3  C   UNL     1     -37.122  21.044   1.442  0.00  0.00    +0.113 A 
ATOM      4  C   UNL     1     -35.762  21.141   1.728  0.00  0.00    +0.155 A 
ATOM      5  C   UNL     1     -36.102  23.054   3.084  0.00  0.00    +0.182 A 
ATOM      6  C   UNL     1     -37.431  23.077   2.880  0.00  0.00    +0.212 A 
ATOM      7  C   UNL     1     -38.043  22.037   2.019  0.00  0.00    +0.238 A 
ATOM      8  C   UNL     1     -37.599  20.021   0.620  0.00  0.00    +0.177 C 
ATOM      9  C   UNL     1     -34.869  20.213   1.191  0.00  0.00    +0.078 C 
ATOM     10  C   UNL     1     -36.704  19.093   0.085  0.00  0.00    +0.206 C 
ATOM     11  C   UNL     1     -35.341  19.189   0.370  0.00  0.00    +0.174 C 
ENDROOT
BRANCH   5  12
ATOM     12  C   UNL     1     -35.411  24.052   3.918  0.00  0.00    +0.041 C 
ATOM     13  C   UNL     1     -34.369  24.810   3.382  0.00  0.00    +0.043 C 
ATOM     14  C   UNL     1     -35.798  24.240   5.246  0.00  0.00    +0.006 C 
ATOM     15  C   UNL     1     -33.715  25.755   4.173  0.00  0.00    +0.168 C 
ATOM     16  C   UNL     1     -35.143  25.185   6.036  0.00  0.00    +0.040 C 
ATOM     17  C   UNL     1     -34.103  25.943   5.500  0.00  0.00    +0.167 C 
BRANCH  15  18
ATOM     18  O   UNL     1     -32.700  26.488   3.638  0.00  0.00    -0.503 OA
ATOM     19  H   UNL     1     -32.142  26.111   2.987  0.00  0.00    +0.292 HD
ENDBRANCH  15  18
BRANCH  17  20
ATOM     20  O   UNL     1     -33.473  26.864   6.281  0.00  0.00    -0.503 OA
ATOM     21  H   UNL     1     -33.256  26.657   7.168  0.00  0.00    +0.292 HD
ENDBRANCH  17  20
ENDBRANCH   5  12
BRANCH   6  22
ATOM     22  O   UNL     1     -38.259  24.037   3.423  0.00  0.00    -0.465 OA
ATOM     23  C   UNL     1     -38.391  25.141   2.546  0.00  0.00    +0.253 C 
ENDBRANCH   6  22
BRANCH  10  24
ATOM     24  O   UNL     1     -37.158  18.089  -0.720  0.00  0.00    -0.465 OA
ATOM     25  C   UNL     1     -37.517  16.866  -0.085  0.00  0.00    +0.253 C 
ENDBRANCH  10  24
BRANCH   8  26
ATOM     26  O   UNL     1     -38.922  19.893   0.317  0.00  0.00    -0.503 OA
ATOM     27  H   UNL     1     -39.215  19.179  -0.215  0.00  0.00    +0.292 HD
ENDBRANCH   8  26
BRANCH  11  28
ATOM     28  O   UNL     1     -34.461  18.288  -0.148  0.00  0.00    -0.503 OA
ATOM     29  H   UNL     1     -34.355  18.216  -1.076  0.00  0.00    +0.292 HD
ENDBRANCH  11  28
TORSDOF 7
ENDMDL
MODEL 5
REMARK VINA RESULT:      -6.1      5.858      8.226
REMARK  Name = 5281603
REMARK  7 active torsions:
REMARK  status: ('A' for Active; 'I' for Inactive)
REMARK    1  A    between atoms: C_5  and  C_12
REMARK    2  A    between atoms: C_6  and  O_22
REMARK    3  A    between atoms: C_8  and  O_26
REMARK    4  A    between atoms: C_10  and  O_24
REMARK    5  A    between atoms: C_11  and  O_28
REMARK    6  A    between atoms: C_15  and  O_18
REMARK    7  A    between atoms: C_17  and  O_20
REMARK                            x       y       z     vdW  Elec       q    Type
REMARK                         _______ _______ _______ _____ _____    ______ ____
ROOT
ATOM      1  O   UNL     1     -35.256  22.246   2.036  0.00  0.00    -0.450 OA
ATOM      2  O   UNL     1     -38.851  20.759   0.826  0.00  0.00    -0.283 OA
ATOM      3  C   UNL     1     -37.678  22.411   2.032  0.00  0.00    +0.113 A 
ATOM      4  C   UNL     1     -36.418  22.868   2.414  0.00  0.00    +0.155 A 
ATOM      5  C   UNL     1     -35.339  21.122   1.230  0.00  0.00    +0.182 A 
ATOM      6  C   UNL     1     -36.490  20.574   0.800  0.00  0.00    +0.212 A 
ATOM      7  C   UNL     1     -37.773  21.209   1.188  0.00  0.00    +0.238 A 
ATOM      8  C   UNL     1     -38.829  23.084   2.448  0.00  0.00    +0.177 C 
ATOM      9  C   UNL     1     -36.302  24.003   3.216  0.00  0.00    +0.078 C 
ATOM     10  C   UNL     1     -38.710  24.220   3.250  0.00  0.00    +0.206 C 
ATOM     11  C   UNL     1     -37.448  24.679   3.633  0.00  0.00    +0.174 C 
ENDROOT
BRANCH   5  12
ATOM     12  C   UNL     1     -34.020  20.554   0.900  0.00  0.00    +0.041 C 
ATOM     13  C   UNL     1     -33.629  19.332   1.448  0.00  0.00    +0.043 C 
ATOM     14  C   UNL     1     -33.163  21.237   0.037  0.00  0.00    +0.006 C 
ATOM     15  C   UNL     1     -32.380  18.794   1.135  0.00  0.00    +0.168 C 
ATOM     16  C   UNL     1     -31.914  20.699  -0.276  0.00  0.00    +0.040 C 
ATOM     17  C   UNL     1     -31.524  19.477   0.272  0.00  0.00    +0.167 C 
BRANCH  15  18
ATOM     18  O   UNL     1     -32.010  17.601   1.678  0.00  0.00    -0.503 OA
ATOM     19  H   UNL     1     -32.520  16.833   1.514  0.00  0.00    +0.292 HD
ENDBRANCH  15  18
BRANCH  17  20
ATOM     20  O   UNL     1     -30.303  18.961  -0.042  0.00  0.00    -0.503 OA
ATOM     21  H   UNL     1     -29.731  18.661   0.636  0.00  0.00    +0.292 HD
ENDBRANCH  17  20
ENDBRANCH   5  12
BRANCH   6  22
ATOM     22  O   UNL     1     -36.539  19.435   0.026  0.00  0.00    -0.465 OA
ATOM     23  C   UNL     1     -36.558  19.762  -1.350  0.00  0.00    +0.253 C 
ENDBRANCH   6  22
BRANCH  10  24
ATOM     24  O   UNL     1     -39.826  24.887   3.663  0.00  0.00    -0.465 OA
ATOM     25  C   UNL     1     -40.320  25.911   2.805  0.00  0.00    +0.253 C 
ENDBRANCH  10  24
BRANCH   8  26
ATOM     26  O   UNL     1     -40.078  22.669   2.096  0.00  0.00    -0.503 OA
ATOM     27  H   UNL     1     -40.734  22.543   2.753  0.00  0.00    +0.292 HD
ENDBRANCH   8  26
BRANCH  11  28
ATOM     28  O   UNL     1     -37.323  25.788   4.415  0.00  0.00    -0.503 OA
ATOM     29  H   UNL     1     -36.619  26.387   4.268  0.00  0.00    +0.292 HD
ENDBRANCH  11  28
TORSDOF 7
ENDMDL
MODEL 6
REMARK VINA RESULT:      -6.0      1.906      6.835
REMARK  Name = 5281603
REMARK  7 active torsions:
REMARK  status: ('A' for Active; 'I' for Inactive)
REMARK    1  A    between atoms: C_5  and  C_12
REMARK    2  A    between atoms: C_6  and  O_22
REMARK    3  A    between atoms: C_8  and  O_26
REMARK    4  A    between atoms: C_10  and  O_24
REMARK    5  A    between atoms: C_11  and  O_28
REMARK    6  A    between atoms: C_15  and  O_18
REMARK    7  A    between atoms: C_17  and  O_20
REMARK                            x       y       z     vdW  Elec       q    Type
REMARK                         _______ _______ _______ _____ _____    ______ ____
ROOT
ATOM      1  O   UNL     1     -33.402  26.257   4.775  0.00  0.00    -0.450 OA
ATOM      2  O   UNL     1     -34.205  29.100   1.968  0.00  0.00    -0.283 OA
ATOM      3  C   UNL     1     -33.120  28.535   3.984  0.00  0.00    +0.113 A 
ATOM      4  C   UNL     1     -32.885  27.521   4.909  0.00  0.00    +0.155 A 
ATOM      5  C   UNL     1     -34.182  25.977   3.665  0.00  0.00    +0.182 A 
ATOM      6  C   UNL     1     -34.492  26.867   2.705  0.00  0.00    +0.212 A 
ATOM      7  C   UNL     1     -33.960  28.247   2.810  0.00  0.00    +0.238 A 
ATOM      8  C   UNL     1     -32.568  29.804   4.173  0.00  0.00    +0.177 C 
ATOM      9  C   UNL     1     -32.095  27.770   6.031  0.00  0.00    +0.078 C 
ATOM     10  C   UNL     1     -31.777  30.051   5.296  0.00  0.00    +0.206 C 
ATOM     11  C   UNL     1     -31.541  29.035   6.224  0.00  0.00    +0.174 C 
ENDROOT
BRANCH   5  12
ATOM     12  C   UNL     1     -34.673  24.588   3.644  0.00  0.00    +0.041 C 
ATOM     13  C   UNL     1     -35.167  24.004   4.811  0.00  0.00    +0.043 C 
ATOM     14  C   UNL     1     -34.645  23.856   2.457  0.00  0.00    +0.006 C 
ATOM     15  C   UNL     1     -35.632  22.689   4.791  0.00  0.00    +0.168 C 
ATOM     16  C   UNL     1     -35.109  22.540   2.437  0.00  0.00    +0.040 C 
ATOM     17  C   UNL     1     -35.603  21.957   3.604  0.00  0.00    +0.167 C 
BRANCH  15  18
ATOM     18  O   UNL     1     -36.110  22.130   5.937  0.00  0.00    -0.503 OA
ATOM     19  H   UNL     1     -36.990  21.812   5.971  0.00  0.00    +0.292 HD
ENDBRANCH  15  18
BRANCH  17  20
ATOM     20  O   UNL     1     -36.056  20.673   3.572  0.00  0.00    -0.503 OA
ATOM     21  H   UNL     1     -36.976  20.499   3.599  0.00  0.00    +0.292 HD
ENDBRANCH  17  20
ENDBRANCH   5  12
BRANCH   6  22
ATOM     22  O   UNL     1     -35.299  26.565   1.629  0.00  0.00    -0.465 OA
ATOM     23  C   UNL     1     -36.641  26.933   1.888  0.00  0.00    +0.253 C 
ENDBRANCH   6  22
BRANCH  10  24
ATOM     24  O   UNL     1     -31.232  31.286   5.492  0.00  0.00    -0.465 OA
ATOM     25  C   UNL     1     -29.960  31.531   4.900  0.00  0.00    +0.253 C 
ENDBRANCH  10  24
BRANCH   8  26
ATOM     26  O   UNL     1     -32.775  30.823   3.291  0.00  0.00    -0.503 OA
ATOM     27  H   UNL     1     -32.391  30.790   2.437  0.00  0.00    +0.292 HD
ENDBRANCH   8  26
BRANCH  11  28
ATOM     28  O   UNL     1     -30.769  29.267   7.323  0.00  0.00    -0.503 OA
ATOM     29  H   UNL     1     -31.172  29.480   8.141  0.00  0.00    +0.292 HD
ENDBRANCH  11  28
TORSDOF 7
ENDMDL
MODEL 7
REMARK VINA RESULT:      -6.0      2.840      8.185
REMARK  Name = 5281603
REMARK  7 active torsions:
REMARK  status: ('A' for Active; 'I' for Inactive)
REMARK    1  A    between atoms: C_5  and  C_12
REMARK    2  A    between atoms: C_6  and  O_22
REMARK    3  A    between atoms: C_8  and  O_26
REMARK    4  A    between atoms: C_10  and  O_24
REMARK    5  A    between atoms: C_11  and  O_28
REMARK    6  A    between atoms: C_15  and  O_18
REMARK    7  A    between atoms: C_17  and  O_20
REMARK                            x       y       z     vdW  Elec       q    Type
REMARK                         _______ _______ _______ _____ _____    ______ ____
ROOT
ATOM      1  O   UNL     1     -34.389  24.109   2.156  0.00  0.00    -0.450 OA
ATOM      2  O   UNL     1     -34.867  25.257   6.036  0.00  0.00    -0.283 OA
ATOM      3  C   UNL     1     -33.953  25.726   3.913  0.00  0.00    +0.113 A 
ATOM      4  C   UNL     1     -33.825  25.277   2.601  0.00  0.00    +0.155 A 
ATOM      5  C   UNL     1     -35.127  23.349   3.049  0.00  0.00    +0.182 A 
ATOM      6  C   UNL     1     -35.320  23.665   4.342  0.00  0.00    +0.212 A 
ATOM      7  C   UNL     1     -34.725  24.916   4.870  0.00  0.00    +0.238 A 
ATOM      8  C   UNL     1     -33.356  26.924   4.311  0.00  0.00    +0.177 C 
ATOM      9  C   UNL     1     -33.096  26.025   1.676  0.00  0.00    +0.078 C 
ATOM     10  C   UNL     1     -32.628  27.672   3.384  0.00  0.00    +0.206 C 
ATOM     11  C   UNL     1     -32.498  27.223   2.069  0.00  0.00    +0.174 C 
ENDROOT
BRANCH   5  12
ATOM     12  C   UNL     1     -35.675  22.123   2.443  0.00  0.00    +0.041 C 
ATOM     13  C   UNL     1     -37.038  22.033   2.159  0.00  0.00    +0.043 C 
ATOM     14  C   UNL     1     -34.831  21.051   2.153  0.00  0.00    +0.006 C 
ATOM     15  C   UNL     1     -37.557  20.872   1.586  0.00  0.00    +0.168 C 
ATOM     16  C   UNL     1     -35.350  19.889   1.580  0.00  0.00    +0.040 C 
ATOM     17  C   UNL     1     -36.712  19.800   1.296  0.00  0.00    +0.167 C 
BRANCH  15  18
ATOM     18  O   UNL     1     -38.889  20.796   1.315  0.00  0.00    -0.503 OA
ATOM     19  H   UNL     1     -39.444  21.533   1.480  0.00  0.00    +0.292 HD
ENDBRANCH  15  18
BRANCH  17  20
ATOM     20  O   UNL     1     -37.207  18.662   0.735  0.00  0.00    -0.503 OA
ATOM     21  H   UNL     1     -36.857  17.828   0.978  0.00  0.00    +0.292 HD
ENDBRANCH  17  20
ENDBRANCH   5  12
BRANCH   6  22
ATOM     22  O   UNL     1     -36.033  22.869   5.213  0.00  0.00    -0.465 OA
ATOM     23  C   UNL     1     -35.168  22.009   5.932  0.00  0.00    +0.253 C 
ENDBRANCH   6  22
BRANCH  10  24
ATOM     24  O   UNL     1     -32.040  28.844   3.760  0.00  0.00    -0.465 OA
ATOM     25  C   UNL     1     -32.810  30.032   3.602  0.00  0.00    +0.253 C 
ENDBRANCH  10  24
BRANCH   8  26
ATOM     26  O   UNL     1     -33.458  27.397   5.586  0.00  0.00    -0.503 OA
ATOM     27  H   UNL     1     -33.281  26.831   6.312  0.00  0.00    +0.292 HD
ENDBRANCH   8  26
BRANCH  11  28
ATOM     28  O   UNL     1     -31.790  27.947   1.157  0.00  0.00    -0.503 OA
ATOM     29  H   UNL     1     -32.183  28.184   0.340  0.00  0.00    +0.292 HD
ENDBRANCH  11  28
TORSDOF 7
ENDMDL
MODEL 8
REMARK VINA RESULT:      -5.9      5.070      8.455
REMARK  Name = 5281603
REMARK  7 active torsions:
REMARK  status: ('A' for Active; 'I' for Inactive)
REMARK    1  A    between atoms: C_5  and  C_12
REMARK    2  A    between atoms: C_6  and  O_22
REMARK    3  A    between atoms: C_8  and  O_26
REMARK    4  A    between atoms: C_10  and  O_24
REMARK    5  A    between atoms: C_11  and  O_28
REMARK    6  A    between atoms: C_15  and  O_18
REMARK    7  A    between atoms: C_17  and  O_20
REMARK                            x       y       z     vdW  Elec       q    Type
REMARK                         _______ _______ _______ _____ _____    ______ ____
ROOT
ATOM      1  O   UNL     1     -35.159  21.249   2.223  0.00  0.00    -0.450 OA
ATOM      2  O   UNL     1     -38.207  20.053  -0.202  0.00  0.00    -0.283 OA
ATOM      3  C   UNL     1     -36.029  19.657   0.611  0.00  0.00    +0.113 A 
ATOM      4  C   UNL     1     -35.024  20.120   1.458  0.00  0.00    +0.155 A 
ATOM      5  C   UNL     1     -36.351  21.953   2.159  0.00  0.00    +0.182 A 
ATOM      6  C   UNL     1     -37.394  21.619   1.377  0.00  0.00    +0.212 A 
ATOM      7  C   UNL     1     -37.292  20.408   0.528  0.00  0.00    +0.238 A 
ATOM      8  C   UNL     1     -35.835  18.500  -0.147  0.00  0.00    +0.177 C 
ATOM      9  C   UNL     1     -33.817  19.427   1.551  0.00  0.00    +0.078 C 
ATOM     10  C   UNL     1     -34.627  17.808  -0.051  0.00  0.00    +0.206 C 
ATOM     11  C   UNL     1     -33.620  18.271   0.797  0.00  0.00    +0.174 C 
ENDROOT
BRANCH   5  12
ATOM     12  C   UNL     1     -36.363  23.143   3.029  0.00  0.00    +0.041 C 
ATOM     13  C   UNL     1     -36.782  24.374   2.522  0.00  0.00    +0.043 C 
ATOM     14  C   UNL     1     -35.957  23.039   4.359  0.00  0.00    +0.006 C 
ATOM     15  C   UNL     1     -36.793  25.500   3.345  0.00  0.00    +0.168 C 
ATOM     16  C   UNL     1     -35.968  24.165   5.183  0.00  0.00    +0.040 C 
ATOM     17  C   UNL     1     -36.387  25.395   4.675  0.00  0.00    +0.167 C 
BRANCH  15  18
ATOM     18  O   UNL     1     -37.202  26.696   2.838  0.00  0.00    -0.503 OA
ATOM     19  H   UNL     1     -37.788  26.720   2.108  0.00  0.00    +0.292 HD
ENDBRANCH  15  18
BRANCH  17  20
ATOM     20  O   UNL     1     -36.396  26.487   5.489  0.00  0.00    -0.503 OA
ATOM     21  H   UNL     1     -37.163  27.021   5.550  0.00  0.00    +0.292 HD
ENDBRANCH  17  20
ENDBRANCH   5  12
BRANCH   6  22
ATOM     22  O   UNL     1     -38.554  22.360   1.312  0.00  0.00    -0.465 OA
ATOM     23  C   UNL     1     -39.568  21.780   2.112  0.00  0.00    +0.253 C 
ENDBRANCH   6  22
BRANCH  10  24
ATOM     24  O   UNL     1     -34.426  16.676  -0.786  0.00  0.00    -0.465 OA
ATOM     25  C   UNL     1     -34.909  15.454  -0.235  0.00  0.00    +0.253 C 
ENDBRANCH  10  24
BRANCH   8  26
ATOM     26  O   UNL     1     -36.794  18.015  -0.987  0.00  0.00    -0.503 OA
ATOM     27  H   UNL     1     -37.436  18.593  -1.350  0.00  0.00    +0.292 HD
ENDBRANCH   8  26
BRANCH  11  28
ATOM     28  O   UNL     1     -32.437  17.601   0.898  0.00  0.00    -0.503 OA
ATOM     29  H   UNL     1     -31.915  17.456   0.134  0.00  0.00    +0.292 HD
ENDBRANCH  11  28
TORSDOF 7
ENDMDL
MODEL 9
REMARK VINA RESULT:      -5.9      6.793      8.950
REMARK  Name = 5281603
REMARK  7 active torsions:
REMARK  status: ('A' for Active; 'I' for Inactive)
REMARK    1  A    between atoms: C_5  and  C_12
REMARK    2  A    between atoms: C_6  and  O_22
REMARK    3  A    between atoms: C_8  and  O_26
REMARK    4  A    between atoms: C_10  and  O_24
REMARK    5  A    between atoms: C_11  and  O_28
REMARK    6  A    between atoms: C_15  and  O_18
REMARK    7  A    between atoms: C_17  and  O_20
REMARK                            x       y       z     vdW  Elec       q    Type
REMARK                         _______ _______ _______ _____ _____    ______ ____
ROOT
ATOM      1  O   UNL     1     -34.712  20.859   1.679  0.00  0.00    -0.450 OA
ATOM      2  O   UNL     1     -37.856  19.012  -0.140  0.00  0.00    -0.283 OA
ATOM      3  C   UNL     1     -37.103  20.740   1.278  0.00  0.00    +0.113 A 
ATOM      4  C   UNL     1     -35.988  21.325   1.873  0.00  0.00    +0.155 A 
ATOM      5  C   UNL     1     -34.526  19.767   0.847  0.00  0.00    +0.182 A 
ATOM      6  C   UNL     1     -35.517  19.107   0.221  0.00  0.00    +0.212 A 
ATOM      7  C   UNL     1     -36.913  19.571   0.405  0.00  0.00    +0.238 A 
ATOM      8  C   UNL     1     -38.380  21.256   1.513  0.00  0.00    +0.177 C 
ATOM      9  C   UNL     1     -36.142  22.432   2.707  0.00  0.00    +0.078 C 
ATOM     10  C   UNL     1     -38.532  22.364   2.347  0.00  0.00    +0.206 C 
ATOM     11  C   UNL     1     -37.415  22.951   2.943  0.00  0.00    +0.174 C 
ENDROOT
BRANCH   5  12
ATOM     12  C   UNL     1     -33.112  19.371   0.727  0.00  0.00    +0.041 C 
ATOM     13  C   UNL     1     -32.213  20.189   0.042  0.00  0.00    +0.043 C 
ATOM     14  C   UNL     1     -32.670  18.178   1.300  0.00  0.00    +0.006 C 
ATOM     15  C   UNL     1     -30.874  19.814  -0.072  0.00  0.00    +0.168 C 
ATOM     16  C   UNL     1     -31.331  17.803   1.186  0.00  0.00    +0.040 C 
ATOM     17  C   UNL     1     -30.434  18.621   0.501  0.00  0.00    +0.167 C 
BRANCH  15  18
ATOM     18  O   UNL     1     -30.008  20.621  -0.745  0.00  0.00    -0.503 OA
ATOM     19  H   UNL     1     -29.817  21.479  -0.421  0.00  0.00    +0.292 HD
ENDBRANCH  15  18
BRANCH  17  20
ATOM     20  O   UNL     1     -29.128  18.246   0.398  0.00  0.00    -0.503 OA
ATOM     21  H   UNL     1     -28.447  18.873   0.536  0.00  0.00    +0.292 HD
ENDBRANCH  17  20
ENDBRANCH   5  12
BRANCH   6  22
ATOM     22  O   UNL     1     -35.301  18.002  -0.574  0.00  0.00    -0.465 OA
ATOM     23  C   UNL     1     -35.120  18.382  -1.925  0.00  0.00    +0.253 C 
ENDBRANCH   6  22
BRANCH  10  24
ATOM     24  O   UNL     1     -39.774  22.878   2.583  0.00  0.00    -0.465 OA
ATOM     25  C   UNL     1     -40.224  23.907   1.707  0.00  0.00    +0.253 C 
ENDBRANCH  10  24
BRANCH   8  26
ATOM     26  O   UNL     1     -39.496  20.712   0.950  0.00  0.00    -0.503 OA
ATOM     27  H   UNL     1     -40.133  20.285   1.488  0.00  0.00    +0.292 HD
ENDBRANCH   8  26
BRANCH  11  28
ATOM     28  O   UNL     1     -37.554  24.034   3.759  0.00  0.00    -0.503 OA
ATOM     29  H   UNL     1     -38.027  24.786   3.462  0.00  0.00    +0.292 HD
ENDBRANCH  11  28
TORSDOF 7
ENDMDL
