MODEL 1
REMARK VINA RESULT:      -5.7      0.000      0.000
REMARK  Name = 53681284
REMARK  5 active torsions:
REMARK  status: ('A' for Active; 'I' for Inactive)
REMARK    1  A    between atoms: C2*_2  and  O2*_14
REMARK    2  A    between atoms: C3*_3  and  O3*_16
REMARK    3  A    between atoms: C1*_4  and  N_9
REMARK    4  A    between atoms: C4*_5  and  C5*_18
REMARK    5  A    between atoms: C5*_18  and  O5*_19
REMARK                            x       y       z     vdW  Elec       q    Type
REMARK                         _______ _______ _______ _____ _____    ______ ____
ROOT
ATOM      1  O4* UNL     1     -36.776  24.154   4.611  0.00  0.00    -0.333 OA
ATOM      2  C2* UNL     1     -34.658  24.972   3.932  0.00  0.00    +0.187 C 
ATOM      3  C3* UNL     1     -35.457  26.119   4.514  0.00  0.00    +0.171 C 
ATOM      4  C1* UNL     1     -35.400  23.764   4.475  0.00  0.00    +0.231 C 
ATOM      5  C4* UNL     1     -36.881  25.585   4.444  0.00  0.00    +0.175 C 
ENDROOT
BRANCH   4   9
ATOM      6  O   UNL     1     -35.145  20.276   3.246  0.00  0.00    -0.374 OA
ATOM      7  O   UNL     1     -35.195  21.100   5.336  0.00  0.00    -0.225 OA
ATOM      8  O   UNL     1     -35.096  19.482   1.131  0.00  0.00    -0.244 OA
ATOM      9  N   UNL     1     -35.320  22.630   3.598  0.00  0.00    -0.198 N 
ATOM     10  C   UNL     1     -35.342  22.810   2.230  0.00  0.00    +0.080 C 
ATOM     11  C   UNL     1     -35.219  21.331   4.127  0.00  0.00    +0.417 C 
ATOM     12  C   UNL     1     -35.271  21.796   1.373  0.00  0.00    +0.099 C 
ATOM     13  C   UNL     1     -35.165  20.437   1.899  0.00  0.00    +0.350 C 
ENDBRANCH   4   9
BRANCH   2  14
ATOM     14  O2* UNL     1     -33.303  25.004   4.330  0.00  0.00    -0.378 OA
ATOM     15  H2* UNL     1     -33.237  25.388   5.219  0.00  0.00    +0.211 HD
ENDBRANCH   2  14
BRANCH   3  16
ATOM     16  O3* UNL     1     -35.124  26.304   5.890  0.00  0.00    -0.379 OA
ATOM     17  H3* UNL     1     -34.317  26.839   5.958  0.00  0.00    +0.211 HD
ENDBRANCH   3  16
BRANCH   5  18
ATOM     18  C5* UNL     1     -37.561  25.858   3.109  0.00  0.00    +0.169 C 
BRANCH  18  19
ATOM     19  O5* UNL     1     -38.848  26.397   3.357  0.00  0.00    -0.379 OA
ATOM     20  H5* UNL     1     -38.803  27.365   3.336  0.00  0.00    +0.211 HD
ENDBRANCH  18  19
ENDBRANCH   5  18
TORSDOF 5
ENDMDL
MODEL 2
REMARK VINA RESULT:      -5.6      2.202      4.416
REMARK  Name = 53681284
REMARK  5 active torsions:
REMARK  status: ('A' for Active; 'I' for Inactive)
REMARK    1  A    between atoms: C2*_2  and  O2*_14
REMARK    2  A    between atoms: C3*_3  and  O3*_16
REMARK    3  A    between atoms: C1*_4  and  N_9
REMARK    4  A    between atoms: C4*_5  and  C5*_18
REMARK    5  A    between atoms: C5*_18  and  O5*_19
REMARK                            x       y       z     vdW  Elec       q    Type
REMARK                         _______ _______ _______ _____ _____    ______ ____
ROOT
ATOM      1  O4* UNL     1     -35.322  23.399   3.813  0.00  0.00    -0.333 OA
ATOM      2  C2* UNL     1     -36.249  25.176   5.076  0.00  0.00    +0.187 C 
ATOM      3  C3* UNL     1     -34.979  24.710   5.756  0.00  0.00    +0.171 C 
ATOM      4  C1* UNL     1     -36.085  24.608   3.678  0.00  0.00    +0.231 C 
ATOM      5  C4* UNL     1     -34.783  23.326   5.152  0.00  0.00    +0.175 C 
ENDROOT
BRANCH   4   9
ATOM      6  O   UNL     1     -39.369  24.988   2.003  0.00  0.00    -0.374 OA
ATOM      7  O   UNL     1     -37.874  26.525   2.677  0.00  0.00    -0.225 OA
ATOM      8  O   UNL     1     -40.852  23.416   1.339  0.00  0.00    -0.244 OA
ATOM      9  N   UNL     1     -37.343  24.300   3.059  0.00  0.00    -0.198 N 
ATOM     10  C   UNL     1     -37.746  22.987   2.924  0.00  0.00    +0.080 C 
ATOM     11  C   UNL     1     -38.173  25.333   2.588  0.00  0.00    +0.417 C 
ATOM     12  C   UNL     1     -38.900  22.646   2.360  0.00  0.00    +0.099 C 
ATOM     13  C   UNL     1     -39.780  23.702   1.863  0.00  0.00    +0.350 C 
ENDBRANCH   4   9
BRANCH   2  14
ATOM     14  O2* UNL     1     -36.375  26.583   5.081  0.00  0.00    -0.378 OA
ATOM     15  H2* UNL     1     -35.753  26.966   4.443  0.00  0.00    +0.211 HD
ENDBRANCH   2  14
BRANCH   3  16
ATOM     16  O3* UNL     1     -33.877  25.524   5.356  0.00  0.00    -0.379 OA
ATOM     17  H3* UNL     1     -33.870  26.339   5.882  0.00  0.00    +0.211 HD
ENDBRANCH   3  16
BRANCH   5  18
ATOM     18  C5* UNL     1     -35.525  22.230   5.904  0.00  0.00    +0.169 C 
BRANCH  18  19
ATOM     19  O5* UNL     1     -35.125  20.973   5.387  0.00  0.00    -0.379 OA
ATOM     20  H5* UNL     1     -35.410  20.898   4.464  0.00  0.00    +0.211 HD
ENDBRANCH  18  19
ENDBRANCH   5  18
TORSDOF 5
ENDMDL
MODEL 3
REMARK VINA RESULT:      -5.3      2.362      5.702
REMARK  Name = 53681284
REMARK  5 active torsions:
REMARK  status: ('A' for Active; 'I' for Inactive)
REMARK    1  A    between atoms: C2*_2  and  O2*_14
REMARK    2  A    between atoms: C3*_3  and  O3*_16
REMARK    3  A    between atoms: C1*_4  and  N_9
REMARK    4  A    between atoms: C4*_5  and  C5*_18
REMARK    5  A    between atoms: C5*_18  and  O5*_19
REMARK                            x       y       z     vdW  Elec       q    Type
REMARK                         _______ _______ _______ _____ _____    ______ ____
ROOT
ATOM      1  O4* UNL     1     -36.226  24.189   5.192  0.00  0.00    -0.333 OA
ATOM      2  C2* UNL     1     -34.921  23.780   3.256  0.00  0.00    +0.187 C 
ATOM      3  C3* UNL     1     -35.789  22.568   3.520  0.00  0.00    +0.171 C 
ATOM      4  C1* UNL     1     -35.623  24.853   4.069  0.00  0.00    +0.231 C 
ATOM      5  C4* UNL     1     -36.170  22.760   4.982  0.00  0.00    +0.175 C 
ENDROOT
BRANCH   4   9
ATOM      6  O   UNL     1     -33.512  27.894   4.252  0.00  0.00    -0.374 OA
ATOM      7  O   UNL     1     -34.843  27.122   2.614  0.00  0.00    -0.225 OA
ATOM      8  O   UNL     1     -32.182  28.641   5.919  0.00  0.00    -0.244 OA
ATOM      9  N   UNL     1     -34.716  25.856   4.553  0.00  0.00    -0.198 N 
ATOM     10  C   UNL     1     -34.163  25.742   5.812  0.00  0.00    +0.080 C 
ATOM     11  C   UNL     1     -34.385  26.959   3.746  0.00  0.00    +0.417 C 
ATOM     12  C   UNL     1     -33.319  26.641   6.307  0.00  0.00    +0.099 C 
ATOM     13  C   UNL     1     -32.960  27.796   5.488  0.00  0.00    +0.350 C 
ENDBRANCH   4   9
BRANCH   2  14
ATOM     14  O2* UNL     1     -34.849  24.099   1.882  0.00  0.00    -0.378 OA
ATOM     15  H2* UNL     1     -34.279  23.456   1.430  0.00  0.00    +0.211 HD
ENDBRANCH   2  14
BRANCH   3  16
ATOM     16  O3* UNL     1     -36.984  22.636   2.742  0.00  0.00    -0.379 OA
ATOM     17  H3* UNL     1     -36.814  23.143   1.933  0.00  0.00    +0.211 HD
ENDBRANCH   3  16
BRANCH   5  18
ATOM     18  C5* UNL     1     -35.151  22.177   5.951  0.00  0.00    +0.169 C 
BRANCH  18  19
ATOM     19  O5* UNL     1     -35.185  20.764   5.849  0.00  0.00    -0.379 OA
ATOM     20  H5* UNL     1     -34.599  20.378   6.520  0.00  0.00    +0.211 HD
ENDBRANCH  18  19
ENDBRANCH   5  18
TORSDOF 5
ENDMDL
MODEL 4
REMARK VINA RESULT:      -5.3      2.566      3.699
REMARK  Name = 53681284
REMARK  5 active torsions:
REMARK  status: ('A' for Active; 'I' for Inactive)
REMARK    1  A    between atoms: C2*_2  and  O2*_14
REMARK    2  A    between atoms: C3*_3  and  O3*_16
REMARK    3  A    between atoms: C1*_4  and  N_9
REMARK    4  A    between atoms: C4*_5  and  C5*_18
REMARK    5  A    between atoms: C5*_18  and  O5*_19
REMARK                            x       y       z     vdW  Elec       q    Type
REMARK                         _______ _______ _______ _____ _____    ______ ____
ROOT
ATOM      1  O4* UNL     1     -35.270  22.917   3.938  0.00  0.00    -0.333 OA
ATOM      2  C2* UNL     1     -36.668  24.676   4.692  0.00  0.00    +0.187 C 
ATOM      3  C3* UNL     1     -35.399  24.678   5.517  0.00  0.00    +0.171 C 
ATOM      4  C1* UNL     1     -36.255  23.858   3.481  0.00  0.00    +0.231 C 
ATOM      5  C4* UNL     1     -34.858  23.275   5.276  0.00  0.00    +0.175 C 
ENDROOT
BRANCH   4   9
ATOM      6  O   UNL     1     -38.269  21.161   1.930  0.00  0.00    -0.374 OA
ATOM      7  O   UNL     1     -36.118  21.204   2.577  0.00  0.00    -0.225 OA
ATOM      8  O   UNL     1     -40.437  21.153   1.289  0.00  0.00    -0.244 OA
ATOM      9  N   UNL     1     -37.355  23.139   2.903  0.00  0.00    -0.198 N 
ATOM     10  C   UNL     1     -38.584  23.750   2.759  0.00  0.00    +0.080 C 
ATOM     11  C   UNL     1     -37.186  21.809   2.478  0.00  0.00    +0.417 C 
ATOM     12  C   UNL     1     -39.634  23.131   2.231  0.00  0.00    +0.099 C 
ATOM     13  C   UNL     1     -39.484  21.748   1.782  0.00  0.00    +0.350 C 
ENDBRANCH   4   9
BRANCH   2  14
ATOM     14  O2* UNL     1     -37.088  25.980   4.350  0.00  0.00    -0.378 OA
ATOM     15  H2* UNL     1     -36.961  26.570   5.109  0.00  0.00    +0.211 HD
ENDBRANCH   2  14
BRANCH   3  16
ATOM     16  O3* UNL     1     -34.460  25.609   4.979  0.00  0.00    -0.379 OA
ATOM     17  H3* UNL     1     -33.811  25.843   5.661  0.00  0.00    +0.211 HD
ENDBRANCH   3  16
BRANCH   5  18
ATOM     18  C5* UNL     1     -35.421  22.239   6.239  0.00  0.00    +0.169 C 
BRANCH  18  19
ATOM     19  O5* UNL     1     -35.357  20.964   5.623  0.00  0.00    -0.379 OA
ATOM     20  H5* UNL     1     -35.930  20.345   6.101  0.00  0.00    +0.211 HD
ENDBRANCH  18  19
ENDBRANCH   5  18
TORSDOF 5
ENDMDL
MODEL 5
REMARK VINA RESULT:      -5.2      1.981      5.532
REMARK  Name = 53681284
REMARK  5 active torsions:
REMARK  status: ('A' for Active; 'I' for Inactive)
REMARK    1  A    between atoms: C2*_2  and  O2*_14
REMARK    2  A    between atoms: C3*_3  and  O3*_16
REMARK    3  A    between atoms: C1*_4  and  N_9
REMARK    4  A    between atoms: C4*_5  and  C5*_18
REMARK    5  A    between atoms: C5*_18  and  O5*_19
REMARK                            x       y       z     vdW  Elec       q    Type
REMARK                         _______ _______ _______ _____ _____    ______ ____
ROOT
ATOM      1  O4* UNL     1     -34.647  20.233   2.442  0.00  0.00    -0.333 OA
ATOM      2  C2* UNL     1     -36.771  21.093   1.839  0.00  0.00    +0.187 C 
ATOM      3  C3* UNL     1     -36.398  19.996   0.864  0.00  0.00    +0.171 C 
ATOM      4  C1* UNL     1     -35.836  20.812   3.002  0.00  0.00    +0.231 C 
ATOM      5  C4* UNL     1     -34.891  19.895   1.058  0.00  0.00    +0.175 C 
ENDROOT
BRANCH   4   9
ATOM      6  O   UNL     1     -34.905  23.117   5.751  0.00  0.00    -0.374 OA
ATOM      7  O   UNL     1     -35.319  20.909   5.759  0.00  0.00    -0.225 OA
ATOM      8  O   UNL     1     -34.495  25.340   5.707  0.00  0.00    -0.244 OA
ATOM      9  N   UNL     1     -35.481  22.003   3.721  0.00  0.00    -0.198 N 
ATOM     10  C   UNL     1     -35.374  23.208   3.057  0.00  0.00    +0.080 C 
ATOM     11  C   UNL     1     -35.242  21.950   5.105  0.00  0.00    +0.417 C 
ATOM     12  C   UNL     1     -35.049  24.340   3.673  0.00  0.00    +0.099 C 
ATOM     13  C   UNL     1     -34.796  24.310   5.112  0.00  0.00    +0.350 C 
ENDBRANCH   4   9
BRANCH   2  14
ATOM     14  O2* UNL     1     -38.133  21.041   2.211  0.00  0.00    -0.378 OA
ATOM     15  H2* UNL     1     -38.202  20.902   3.168  0.00  0.00    +0.211 HD
ENDBRANCH   2  14
BRANCH   3  16
ATOM     16  O3* UNL     1     -36.978  18.756   1.270  0.00  0.00    -0.379 OA
ATOM     17  H3* UNL     1     -36.603  18.036   0.739  0.00  0.00    +0.211 HD
ENDBRANCH   3  16
BRANCH   5  18
ATOM     18  C5* UNL     1     -34.105  20.865   0.186  0.00  0.00    +0.169 C 
BRANCH  18  19
ATOM     19  O5* UNL     1     -32.723  20.593   0.337  0.00  0.00    -0.379 OA
ATOM     20  H5* UNL     1     -32.549  19.666   0.109  0.00  0.00    +0.211 HD
ENDBRANCH  18  19
ENDBRANCH   5  18
TORSDOF 5
ENDMDL
MODEL 6
REMARK VINA RESULT:      -5.2      2.104      4.778
REMARK  Name = 53681284
REMARK  5 active torsions:
REMARK  status: ('A' for Active; 'I' for Inactive)
REMARK    1  A    between atoms: C2*_2  and  O2*_14
REMARK    2  A    between atoms: C3*_3  and  O3*_16
REMARK    3  A    between atoms: C1*_4  and  N_9
REMARK    4  A    between atoms: C4*_5  and  C5*_18
REMARK    5  A    between atoms: C5*_18  and  O5*_19
REMARK                            x       y       z     vdW  Elec       q    Type
REMARK                         _______ _______ _______ _____ _____    ______ ____
ROOT
ATOM      1  O4* UNL     1     -37.208  24.951   2.136  0.00  0.00    -0.333 OA
ATOM      2  C2* UNL     1     -37.011  22.936   3.368  0.00  0.00    +0.187 C 
ATOM      3  C3* UNL     1     -38.244  22.851   2.493  0.00  0.00    +0.171 C 
ATOM      4  C1* UNL     1     -36.235  24.063   2.710  0.00  0.00    +0.231 C 
ATOM      5  C4* UNL     1     -38.505  24.314   2.164  0.00  0.00    +0.175 C 
ENDROOT
BRANCH   4   9
ATOM      6  O   UNL     1     -33.396  25.900   4.226  0.00  0.00    -0.374 OA
ATOM      7  O   UNL     1     -33.625  24.959   2.199  0.00  0.00    -0.225 OA
ATOM      8  O   UNL     1     -33.199  26.835   6.275  0.00  0.00    -0.244 OA
ATOM      9  N   UNL     1     -35.430  24.796   3.646  0.00  0.00    -0.198 N 
ATOM     10  C   UNL     1     -35.927  25.105   4.895  0.00  0.00    +0.080 C 
ATOM     11  C   UNL     1     -34.130  25.201   3.296  0.00  0.00    +0.417 C 
ATOM     12  C   UNL     1     -35.225  25.780   5.799  0.00  0.00    +0.099 C 
ATOM     13  C   UNL     1     -33.871  26.212   5.459  0.00  0.00    +0.350 C 
ENDBRANCH   4   9
BRANCH   2  14
ATOM     14  O2* UNL     1     -36.289  21.723   3.399  0.00  0.00    -0.378 OA
ATOM     15  H2* UNL     1     -35.410  21.860   3.012  0.00  0.00    +0.211 HD
ENDBRANCH   2  14
BRANCH   3  16
ATOM     16  O3* UNL     1     -37.938  22.174   1.274  0.00  0.00    -0.379 OA
ATOM     17  H3* UNL     1     -38.761  21.972   0.801  0.00  0.00    +0.211 HD
ENDBRANCH   3  16
BRANCH   5  18
ATOM     18  C5* UNL     1     -39.359  25.023   3.207  0.00  0.00    +0.169 C 
BRANCH  18  19
ATOM     19  O5* UNL     1     -38.885  26.350   3.356  0.00  0.00    -0.379 OA
ATOM     20  H5* UNL     1     -39.624  26.932   3.593  0.00  0.00    +0.211 HD
ENDBRANCH  18  19
ENDBRANCH   5  18
TORSDOF 5
ENDMDL
MODEL 7
REMARK VINA RESULT:      -5.1      2.209      5.020
REMARK  Name = 53681284
REMARK  5 active torsions:
REMARK  status: ('A' for Active; 'I' for Inactive)
REMARK    1  A    between atoms: C2*_2  and  O2*_14
REMARK    2  A    between atoms: C3*_3  and  O3*_16
REMARK    3  A    between atoms: C1*_4  and  N_9
REMARK    4  A    between atoms: C4*_5  and  C5*_18
REMARK    5  A    between atoms: C5*_18  and  O5*_19
REMARK                            x       y       z     vdW  Elec       q    Type
REMARK                         _______ _______ _______ _____ _____    ______ ____
ROOT
ATOM      1  O4* UNL     1     -36.467  25.135   5.258  0.00  0.00    -0.333 OA
ATOM      2  C2* UNL     1     -36.269  23.337   3.727  0.00  0.00    +0.187 C 
ATOM      3  C3* UNL     1     -35.380  23.057   4.921  0.00  0.00    +0.171 C 
ATOM      4  C1* UNL     1     -37.210  24.395   4.277  0.00  0.00    +0.231 C 
ATOM      5  C4* UNL     1     -35.231  24.440   5.540  0.00  0.00    +0.175 C 
ENDROOT
BRANCH   4   9
ATOM      6  O   UNL     1     -39.443  26.328   2.037  0.00  0.00    -0.374 OA
ATOM      7  O   UNL     1     -39.910  24.834   3.650  0.00  0.00    -0.225 OA
ATOM      8  O   UNL     1     -38.937  27.825   0.421  0.00  0.00    -0.244 OA
ATOM      9  N   UNL     1     -37.671  25.299   3.261  0.00  0.00    -0.198 N 
ATOM     10  C   UNL     1     -36.766  26.025   2.515  0.00  0.00    +0.080 C 
ATOM     11  C   UNL     1     -39.049  25.450   3.021  0.00  0.00    +0.417 C 
ATOM     12  C   UNL     1     -37.139  26.874   1.564  0.00  0.00    +0.099 C 
ATOM     13  C   UNL     1     -38.564  27.048   1.295  0.00  0.00    +0.350 C 
ENDBRANCH   4   9
BRANCH   2  14
ATOM     14  O2* UNL     1     -36.950  22.182   3.282  0.00  0.00    -0.378 OA
ATOM     15  H2* UNL     1     -36.866  21.481   3.948  0.00  0.00    +0.211 HD
ENDBRANCH   2  14
BRANCH   3  16
ATOM     16  O3* UNL     1     -36.062  22.226   5.861  0.00  0.00    -0.379 OA
ATOM     17  H3* UNL     1     -36.430  21.454   5.402  0.00  0.00    +0.211 HD
ENDBRANCH   3  16
BRANCH   5  18
ATOM     18  C5* UNL     1     -34.086  25.247   4.942  0.00  0.00    +0.169 C 
BRANCH  18  19
ATOM     19  O5* UNL     1     -34.319  26.622   5.196  0.00  0.00    -0.379 OA
ATOM     20  H5* UNL     1     -34.742  26.723   6.063  0.00  0.00    +0.211 HD
ENDBRANCH  18  19
ENDBRANCH   5  18
TORSDOF 5
ENDMDL
MODEL 8
REMARK VINA RESULT:      -5.1      1.987      4.949
REMARK  Name = 53681284
REMARK  5 active torsions:
REMARK  status: ('A' for Active; 'I' for Inactive)
REMARK    1  A    between atoms: C2*_2  and  O2*_14
REMARK    2  A    between atoms: C3*_3  and  O3*_16
REMARK    3  A    between atoms: C1*_4  and  N_9
REMARK    4  A    between atoms: C4*_5  and  C5*_18
REMARK    5  A    between atoms: C5*_18  and  O5*_19
REMARK                            x       y       z     vdW  Elec       q    Type
REMARK                         _______ _______ _______ _____ _____    ______ ____
ROOT
ATOM      1  O4* UNL     1     -36.057  21.449   2.857  0.00  0.00    -0.333 OA
ATOM      2  C2* UNL     1     -37.733  23.072   2.438  0.00  0.00    +0.187 C 
ATOM      3  C3* UNL     1     -38.019  21.849   1.591  0.00  0.00    +0.171 C 
ATOM      4  C1* UNL     1     -36.788  22.513   3.487  0.00  0.00    +0.231 C 
ATOM      5  C4* UNL     1     -36.671  21.142   1.585  0.00  0.00    +0.175 C 
ENDROOT
BRANCH   4   9
ATOM      6  O   UNL     1     -34.601  24.483   5.740  0.00  0.00    -0.374 OA
ATOM      7  O   UNL     1     -35.937  22.725   6.154  0.00  0.00    -0.225 OA
ATOM      8  O   UNL     1     -33.268  26.252   5.289  0.00  0.00    -0.244 OA
ATOM      9  N   UNL     1     -35.859  23.497   3.968  0.00  0.00    -0.198 N 
ATOM     10  C   UNL     1     -35.320  24.424   3.100  0.00  0.00    +0.080 C 
ATOM     11  C   UNL     1     -35.495  23.522   5.326  0.00  0.00    +0.417 C 
ATOM     12  C   UNL     1     -34.457  25.355   3.492  0.00  0.00    +0.099 C 
ATOM     13  C   UNL     1     -34.063  25.402   4.899  0.00  0.00    +0.350 C 
ENDBRANCH   4   9
BRANCH   2  14
ATOM     14  O2* UNL     1     -38.906  23.622   3.000  0.00  0.00    -0.378 OA
ATOM     15  H2* UNL     1     -39.430  24.048   2.303  0.00  0.00    +0.211 HD
ENDBRANCH   2  14
BRANCH   3  16
ATOM     16  O3* UNL     1     -38.958  21.000   2.250  0.00  0.00    -0.379 OA
ATOM     17  H3* UNL     1     -38.659  20.830   3.157  0.00  0.00    +0.211 HD
ENDBRANCH   3  16
BRANCH   5  18
ATOM     18  C5* UNL     1     -35.742  21.626   0.480  0.00  0.00    +0.169 C 
BRANCH  18  19
ATOM     19  O5* UNL     1     -34.426  21.712   0.999  0.00  0.00    -0.379 OA
ATOM     20  H5* UNL     1     -34.313  22.561   1.454  0.00  0.00    +0.211 HD
ENDBRANCH  18  19
ENDBRANCH   5  18
TORSDOF 5
ENDMDL
MODEL 9
REMARK VINA RESULT:      -5.1      2.223      5.383
REMARK  Name = 53681284
REMARK  5 active torsions:
REMARK  status: ('A' for Active; 'I' for Inactive)
REMARK    1  A    between atoms: C2*_2  and  O2*_14
REMARK    2  A    between atoms: C3*_3  and  O3*_16
REMARK    3  A    between atoms: C1*_4  and  N_9
REMARK    4  A    between atoms: C4*_5  and  C5*_18
REMARK    5  A    between atoms: C5*_18  and  O5*_19
REMARK                            x       y       z     vdW  Elec       q    Type
REMARK                         _______ _______ _______ _____ _____    ______ ____
ROOT
ATOM      1  O4* UNL     1     -37.440  23.093   3.274  0.00  0.00    -0.333 OA
ATOM      2  C2* UNL     1     -36.238  23.974   1.431  0.00  0.00    +0.187 C 
ATOM      3  C3* UNL     1     -37.013  22.758   0.968  0.00  0.00    +0.171 C 
ATOM      4  C1* UNL     1     -36.951  24.327   2.725  0.00  0.00    +0.231 C 
ATOM      5  C4* UNL     1     -37.311  22.050   2.283  0.00  0.00    +0.175 C 
ENDROOT
BRANCH   4   9
ATOM      6  O   UNL     1     -34.923  26.868   4.506  0.00  0.00    -0.374 OA
ATOM      7  O   UNL     1     -36.209  27.034   2.670  0.00  0.00    -0.225 OA
ATOM      8  O   UNL     1     -33.637  26.665   6.353  0.00  0.00    -0.244 OA
ATOM      9  N   UNL     1     -36.077  24.949   3.680  0.00  0.00    -0.198 N 
ATOM     10  C   UNL     1     -35.540  24.210   4.713  0.00  0.00    +0.080 C 
ATOM     11  C   UNL     1     -35.764  26.316   3.567  0.00  0.00    +0.417 C 
ATOM     12  C   UNL     1     -34.727  24.736   5.623  0.00  0.00    +0.099 C 
ATOM     13  C   UNL     1     -34.386  26.153   5.527  0.00  0.00    +0.350 C 
ENDBRANCH   4   9
BRANCH   2  14
ATOM     14  O2* UNL     1     -36.273  25.024   0.487  0.00  0.00    -0.378 OA
ATOM     15  H2* UNL     1     -35.620  24.853  -0.211  0.00  0.00    +0.211 HD
ENDBRANCH   2  14
BRANCH   3  16
ATOM     16  O3* UNL     1     -38.256  23.154   0.390  0.00  0.00    -0.379 OA
ATOM     17  H3* UNL     1     -38.091  23.767  -0.343  0.00  0.00    +0.211 HD
ENDBRANCH   3  16
BRANCH   5  18
ATOM     18  C5* UNL     1     -36.200  21.108   2.726  0.00  0.00    +0.169 C 
BRANCH  18  19
ATOM     19  O5* UNL     1     -36.632  19.773   2.531  0.00  0.00    -0.379 OA
ATOM     20  H5* UNL     1     -37.063  19.452   3.339  0.00  0.00    +0.211 HD
ENDBRANCH  18  19
ENDBRANCH   5  18
TORSDOF 5
ENDMDL
