MODEL 1
REMARK VINA RESULT:      -5.8      0.000      0.000
REMARK  Name = 57357136
REMARK  10 active torsions:
REMARK  status: ('A' for Active; 'I' for Inactive)
REMARK    1  A    between atoms: N_1  and  C1*_9
REMARK    2  A    between atoms: C_5  and  C_19
REMARK    3  A    between atoms: C2*_8  and  O2*_12
REMARK    4  A    between atoms: C3*_10  and  O3*_14
REMARK    5  A    between atoms: C4*_11  and  C5*_16
REMARK    6  A    between atoms: C5*_16  and  O5*_17
REMARK    7  A    between atoms: C_19  and  CA_20
REMARK    8  A    between atoms: CA_20  and  N_21
REMARK    9  A    between atoms: CA_20  and  C_26
REMARK   10  A    between atoms: C_26  and  O_27
REMARK                            x       y       z     vdW  Elec       q    Type
REMARK                         _______ _______ _______ _____ _____    ______ ____
ROOT
ATOM      1  N   UNL     1     -34.793  26.310   4.902  0.00  0.00    +0.425 N 
ATOM      2  N   UNL     1     -32.883  27.440   5.004  0.00  0.00    -0.304 NA
ATOM      3  C   UNL     1     -34.735  27.054   3.756  0.00  0.00    -0.029 C 
ATOM      4  C   UNL     1     -33.660  26.575   5.619  0.00  0.00    +0.057 C 
ATOM      5  C   UNL     1     -33.549  27.742   3.842  0.00  0.00    +0.007 C 
ATOM      6  H   UNL     1     -35.098  25.623   4.265  0.00  0.00    -0.072 HD
ENDROOT
BRANCH   1   9
ATOM      7  O4* UNL     1     -35.401  24.298   6.130  0.00  0.00    -0.371 OA
ATOM      8  C2* UNL     1     -36.600  24.719   4.099  0.00  0.00    +0.147 C 
ATOM      9  C1* UNL     1     -35.905  25.366   5.303  0.00  0.00    +0.096 C 
ATOM     10  C3* UNL     1     -36.119  23.282   4.126  0.00  0.00    +0.167 C 
ATOM     11  C4* UNL     1     -35.877  23.045   5.611  0.00  0.00    +0.171 C 
BRANCH   8  12
ATOM     12  O2* UNL     1     -38.014  24.764   4.284  0.00  0.00    -0.382 OA
ATOM     13  H2* UNL     1     -38.444  24.968   3.438  0.00  0.00    +0.210 HD
ENDBRANCH   8  12
BRANCH  10  14
ATOM     14  O3* UNL     1     -34.902  23.173   3.397  0.00  0.00    -0.379 OA
ATOM     15  H3* UNL     1     -34.803  23.945   2.818  0.00  0.00    +0.211 HD
ENDBRANCH  10  14
BRANCH  11  16
ATOM     16  C5* UNL     1     -34.878  21.953   5.944  0.00  0.00    +0.169 C 
BRANCH  16  17
ATOM     17  O5* UNL     1     -35.288  20.749   5.317  0.00  0.00    -0.379 OA
ATOM     18  H5* UNL     1     -34.690  20.547   4.581  0.00  0.00    +0.211 HD
ENDBRANCH  16  17
ENDBRANCH  11  16
ENDBRANCH   1   9
BRANCH   5  19
ATOM     19  C   UNL     1     -32.978  28.695   2.878  0.00  0.00    +0.028 C 
BRANCH  19  20
ATOM     20  CA  UNL     1     -33.296  30.183   3.187  0.00  0.00    +0.041 C 
BRANCH  20  21
ATOM     21  N   UNL     1     -33.138  30.471   4.611  0.00  0.00    +0.389 N 
ATOM     22  H1  UNL     1     -32.626  29.710   5.056  0.00  0.00    -0.088 HD
ATOM     23  H2  UNL     1     -34.057  30.563   5.043  0.00  0.00    -0.088 HD
ATOM     24  H3  UNL     1     -32.620  31.343   4.726  0.00  0.00    -0.088 HD
ENDBRANCH  20  21
BRANCH  20  26
ATOM     25  OXT UNL     1     -35.180  30.560   1.691  0.00  0.00    -0.253 OA
ATOM     26  C   UNL     1     -34.730  30.536   2.829  0.00  0.00    +0.293 C 
BRANCH  26  27
ATOM     27  O   UNL     1     -35.488  30.796   3.926  0.00  0.00    -0.482 OA
ATOM     28  H   UNL     1     -36.415  30.665   3.898  0.00  0.00    +0.295 HD
ENDBRANCH  26  27
ENDBRANCH  20  26
ENDBRANCH  19  20
ENDBRANCH   5  19
TORSDOF 10
ENDMDL
MODEL 2
REMARK VINA RESULT:      -5.8      3.357      6.954
REMARK  Name = 57357136
REMARK  10 active torsions:
REMARK  status: ('A' for Active; 'I' for Inactive)
REMARK    1  A    between atoms: N_1  and  C1*_9
REMARK    2  A    between atoms: C_5  and  C_19
REMARK    3  A    between atoms: C2*_8  and  O2*_12
REMARK    4  A    between atoms: C3*_10  and  O3*_14
REMARK    5  A    between atoms: C4*_11  and  C5*_16
REMARK    6  A    between atoms: C5*_16  and  O5*_17
REMARK    7  A    between atoms: C_19  and  CA_20
REMARK    8  A    between atoms: CA_20  and  N_21
REMARK    9  A    between atoms: CA_20  and  C_26
REMARK   10  A    between atoms: C_26  and  O_27
REMARK                            x       y       z     vdW  Elec       q    Type
REMARK                         _______ _______ _______ _____ _____    ______ ____
ROOT
ATOM      1  N   UNL     1     -33.165  27.785   4.485  0.00  0.00    +0.425 N 
ATOM      2  N   UNL     1     -35.133  26.870   4.014  0.00  0.00    -0.304 NA
ATOM      3  C   UNL     1     -33.312  26.744   5.358  0.00  0.00    -0.029 C 
ATOM      4  C   UNL     1     -34.282  27.821   3.698  0.00  0.00    +0.057 C 
ATOM      5  C   UNL     1     -34.533  26.195   5.048  0.00  0.00    +0.007 C 
ATOM      6  H   UNL     1     -32.254  27.414   4.426  0.00  0.00    -0.072 HD
ENDROOT
BRANCH   1   9
ATOM      7  O4* UNL     1     -30.759  28.048   4.754  0.00  0.00    -0.371 OA
ATOM      8  C2* UNL     1     -32.116  29.935   5.335  0.00  0.00    +0.147 C 
ATOM      9  C1* UNL     1     -31.982  28.725   4.402  0.00  0.00    +0.096 C 
ATOM     10  C3* UNL     1     -31.116  29.660   6.440  0.00  0.00    +0.167 C 
ATOM     11  C4* UNL     1     -30.051  28.841   5.721  0.00  0.00    +0.171 C 
BRANCH   8  12
ATOM     12  O2* UNL     1     -31.754  31.122   4.633  0.00  0.00    -0.382 OA
ATOM     13  H2* UNL     1     -31.800  31.881   5.234  0.00  0.00    +0.210 HD
ENDBRANCH   8  12
BRANCH  10  14
ATOM     14  O3* UNL     1     -31.735  28.887   7.461  0.00  0.00    -0.379 OA
ATOM     15  H3* UNL     1     -31.250  29.002   8.293  0.00  0.00    +0.211 HD
ENDBRANCH  10  14
BRANCH  11  16
ATOM     16  C5* UNL     1     -29.219  27.931   6.604  0.00  0.00    +0.169 C 
BRANCH  16  17
ATOM     17  O5* UNL     1     -28.789  28.661   7.741  0.00  0.00    -0.379 OA
ATOM     18  H5* UNL     1     -29.145  28.252   8.544  0.00  0.00    +0.211 HD
ENDBRANCH  16  17
ENDBRANCH  11  16
ENDBRANCH   1   9
BRANCH   5  19
ATOM     19  C   UNL     1     -35.199  25.044   5.678  0.00  0.00    +0.028 C 
BRANCH  19  20
ATOM     20  CA  UNL     1     -35.792  24.021   4.672  0.00  0.00    +0.041 C 
BRANCH  20  21
ATOM     21  N   UNL     1     -37.178  24.348   4.342  0.00  0.00    +0.389 N 
ATOM     22  H1  UNL     1     -37.207  24.838   3.448  0.00  0.00    -0.088 HD
ATOM     23  H2  UNL     1     -37.569  24.944   5.071  0.00  0.00    -0.088 HD
ATOM     24  H3  UNL     1     -37.723  23.488   4.277  0.00  0.00    -0.088 HD
ENDBRANCH  20  21
BRANCH  20  26
ATOM     25  OXT UNL     1     -35.887  22.344   6.435  0.00  0.00    -0.253 OA
ATOM     26  C   UNL     1     -35.803  22.613   5.244  0.00  0.00    +0.293 C 
BRANCH  26  27
ATOM     27  O   UNL     1     -35.742  21.661   4.277  0.00  0.00    -0.482 OA
ATOM     28  H   UNL     1     -36.257  20.883   4.352  0.00  0.00    +0.295 HD
ENDBRANCH  26  27
ENDBRANCH  20  26
ENDBRANCH  19  20
ENDBRANCH   5  19
TORSDOF 10
ENDMDL
MODEL 3
REMARK VINA RESULT:      -5.8      3.489      5.324
REMARK  Name = 57357136
REMARK  10 active torsions:
REMARK  status: ('A' for Active; 'I' for Inactive)
REMARK    1  A    between atoms: N_1  and  C1*_9
REMARK    2  A    between atoms: C_5  and  C_19
REMARK    3  A    between atoms: C2*_8  and  O2*_12
REMARK    4  A    between atoms: C3*_10  and  O3*_14
REMARK    5  A    between atoms: C4*_11  and  C5*_16
REMARK    6  A    between atoms: C5*_16  and  O5*_17
REMARK    7  A    between atoms: C_19  and  CA_20
REMARK    8  A    between atoms: CA_20  and  N_21
REMARK    9  A    between atoms: CA_20  and  C_26
REMARK   10  A    between atoms: C_26  and  O_27
REMARK                            x       y       z     vdW  Elec       q    Type
REMARK                         _______ _______ _______ _____ _____    ______ ____
ROOT
ATOM      1  N   UNL     1     -36.007  22.839   2.492  0.00  0.00    +0.425 N 
ATOM      2  N   UNL     1     -37.083  23.757   4.204  0.00  0.00    -0.304 NA
ATOM      3  C   UNL     1     -35.039  23.272   3.354  0.00  0.00    -0.029 C 
ATOM      4  C   UNL     1     -37.217  23.152   3.045  0.00  0.00    +0.057 C 
ATOM      5  C   UNL     1     -35.727  23.835   4.403  0.00  0.00    +0.007 C 
ATOM      6  H   UNL     1     -35.414  22.053   2.454  0.00  0.00    -0.072 HD
ENDROOT
BRANCH   1   9
ATOM      7  O4* UNL     1     -37.032  21.913   0.487  0.00  0.00    -0.371 OA
ATOM      8  C2* UNL     1     -35.096  20.778   1.324  0.00  0.00    +0.147 C 
ATOM      9  C1* UNL     1     -35.782  22.141   1.169  0.00  0.00    +0.096 C 
ATOM     10  C3* UNL     1     -36.197  19.776   1.037  0.00  0.00    +0.167 C 
ATOM     11  C4* UNL     1     -37.089  20.540   0.067  0.00  0.00    +0.171 C 
BRANCH   8  12
ATOM     12  O2* UNL     1     -34.057  20.654   0.355  0.00  0.00    -0.382 OA
ATOM     13  H2* UNL     1     -33.457  19.938   0.613  0.00  0.00    +0.210 HD
ENDBRANCH   8  12
BRANCH  10  14
ATOM     14  O3* UNL     1     -36.900  19.485   2.239  0.00  0.00    -0.379 OA
ATOM     15  H3* UNL     1     -36.546  18.671   2.631  0.00  0.00    +0.211 HD
ENDBRANCH  10  14
BRANCH  11  16
ATOM     16  C5* UNL     1     -38.537  20.090   0.018  0.00  0.00    +0.169 C 
BRANCH  16  17
ATOM     17  O5* UNL     1     -39.233  20.664   1.112  0.00  0.00    -0.379 OA
ATOM     18  H5* UNL     1     -39.695  21.464   0.819  0.00  0.00    +0.211 HD
ENDBRANCH  16  17
ENDBRANCH  11  16
ENDBRANCH   1   9
BRANCH   5  19
ATOM     19  C   UNL     1     -35.181  24.462   5.617  0.00  0.00    +0.028 C 
BRANCH  19  20
ATOM     20  CA  UNL     1     -35.270  26.012   5.629  0.00  0.00    +0.041 C 
BRANCH  20  21
ATOM     21  N   UNL     1     -36.630  26.465   5.349  0.00  0.00    +0.389 N 
ATOM     22  H1  UNL     1     -36.816  26.384   4.350  0.00  0.00    -0.088 HD
ATOM     23  H2  UNL     1     -36.730  27.439   5.636  0.00  0.00    -0.088 HD
ATOM     24  H3  UNL     1     -37.294  25.888   5.867  0.00  0.00    -0.088 HD
ENDBRANCH  20  21
BRANCH  20  26
ATOM     25  OXT UNL     1     -33.225  26.293   4.336  0.00  0.00    -0.253 OA
ATOM     26  C   UNL     1     -34.378  26.633   4.566  0.00  0.00    +0.293 C 
BRANCH  26  27
ATOM     27  O   UNL     1     -35.015  27.602   3.860  0.00  0.00    -0.482 OA
ATOM     28  H   UNL     1     -34.616  28.443   3.752  0.00  0.00    +0.295 HD
ENDBRANCH  26  27
ENDBRANCH  20  26
ENDBRANCH  19  20
ENDBRANCH   5  19
TORSDOF 10
ENDMDL
MODEL 4
REMARK VINA RESULT:      -5.7      2.543      3.019
REMARK  Name = 57357136
REMARK  10 active torsions:
REMARK  status: ('A' for Active; 'I' for Inactive)
REMARK    1  A    between atoms: N_1  and  C1*_9
REMARK    2  A    between atoms: C_5  and  C_19
REMARK    3  A    between atoms: C2*_8  and  O2*_12
REMARK    4  A    between atoms: C3*_10  and  O3*_14
REMARK    5  A    between atoms: C4*_11  and  C5*_16
REMARK    6  A    between atoms: C5*_16  and  O5*_17
REMARK    7  A    between atoms: C_19  and  CA_20
REMARK    8  A    between atoms: CA_20  and  N_21
REMARK    9  A    between atoms: CA_20  and  C_26
REMARK   10  A    between atoms: C_26  and  O_27
REMARK                            x       y       z     vdW  Elec       q    Type
REMARK                         _______ _______ _______ _____ _____    ______ ____
ROOT
ATOM      1  N   UNL     1     -34.924  26.247   4.584  0.00  0.00    +0.425 N 
ATOM      2  N   UNL     1     -33.853  27.645   3.230  0.00  0.00    -0.304 NA
ATOM      3  C   UNL     1     -33.769  26.586   5.233  0.00  0.00    -0.029 C 
ATOM      4  C   UNL     1     -34.930  26.907   3.387  0.00  0.00    +0.057 C 
ATOM      5  C   UNL     1     -33.126  27.449   4.378  0.00  0.00    +0.007 C 
ATOM      6  H   UNL     1     -35.297  26.387   5.485  0.00  0.00    -0.072 HD
ENDROOT
BRANCH   1   9
ATOM      7  O4* UNL     1     -35.443  24.319   5.977  0.00  0.00    -0.371 OA
ATOM      8  C2* UNL     1     -36.726  24.569   3.970  0.00  0.00    +0.147 C 
ATOM      9  C1* UNL     1     -36.000  25.315   5.096  0.00  0.00    +0.096 C 
ATOM     10  C3* UNL     1     -36.214  23.147   4.081  0.00  0.00    +0.167 C 
ATOM     11  C4* UNL     1     -35.911  23.023   5.569  0.00  0.00    +0.171 C 
BRANCH   8  12
ATOM     12  O2* UNL     1     -38.132  24.602   4.206  0.00  0.00    -0.382 OA
ATOM     13  H2* UNL     1     -38.311  25.083   5.029  0.00  0.00    +0.210 HD
ENDBRANCH   8  12
BRANCH  10  14
ATOM     14  O3* UNL     1     -35.024  23.008   3.315  0.00  0.00    -0.379 OA
ATOM     15  H3* UNL     1     -34.635  23.883   3.161  0.00  0.00    +0.211 HD
ENDBRANCH  10  14
BRANCH  11  16
ATOM     16  C5* UNL     1     -34.877  21.977   5.940  0.00  0.00    +0.169 C 
BRANCH  16  17
ATOM     17  O5* UNL     1     -35.256  20.735   5.371  0.00  0.00    -0.379 OA
ATOM     18  H5* UNL     1     -34.789  20.015   5.823  0.00  0.00    +0.211 HD
ENDBRANCH  16  17
ENDBRANCH  11  16
ENDBRANCH   1   9
BRANCH   5  19
ATOM     19  C   UNL     1     -31.832  28.122   4.570  0.00  0.00    +0.028 C 
BRANCH  19  20
ATOM     20  CA  UNL     1     -31.595  28.652   6.010  0.00  0.00    +0.041 C 
BRANCH  20  21
ATOM     21  N   UNL     1     -32.075  30.025   6.152  0.00  0.00    +0.389 N 
ATOM     22  H1  UNL     1     -31.355  30.671   5.827  0.00  0.00    -0.088 HD
ATOM     23  H2  UNL     1     -32.283  30.212   7.132  0.00  0.00    -0.088 HD
ATOM     24  H3  UNL     1     -32.920  30.149   5.595  0.00  0.00    -0.088 HD
ENDBRANCH  20  21
BRANCH  20  26
ATOM     25  OXT UNL     1     -29.388  29.648   6.271  0.00  0.00    -0.253 OA
ATOM     26  C   UNL     1     -30.117  28.670   6.365  0.00  0.00    +0.293 C 
BRANCH  26  27
ATOM     27  O   UNL     1     -29.685  27.471   6.838  0.00  0.00    -0.482 OA
ATOM     28  H   UNL     1     -29.320  26.839   6.250  0.00  0.00    +0.295 HD
ENDBRANCH  26  27
ENDBRANCH  20  26
ENDBRANCH  19  20
ENDBRANCH   5  19
TORSDOF 10
ENDMDL
MODEL 5
REMARK VINA RESULT:      -5.7      3.023      6.853
REMARK  Name = 57357136
REMARK  10 active torsions:
REMARK  status: ('A' for Active; 'I' for Inactive)
REMARK    1  A    between atoms: N_1  and  C1*_9
REMARK    2  A    between atoms: C_5  and  C_19
REMARK    3  A    between atoms: C2*_8  and  O2*_12
REMARK    4  A    between atoms: C3*_10  and  O3*_14
REMARK    5  A    between atoms: C4*_11  and  C5*_16
REMARK    6  A    between atoms: C5*_16  and  O5*_17
REMARK    7  A    between atoms: C_19  and  CA_20
REMARK    8  A    between atoms: CA_20  and  N_21
REMARK    9  A    between atoms: CA_20  and  C_26
REMARK   10  A    between atoms: C_26  and  O_27
REMARK                            x       y       z     vdW  Elec       q    Type
REMARK                         _______ _______ _______ _____ _____    ______ ____
ROOT
ATOM      1  N   UNL     1     -32.582  27.883   6.069  0.00  0.00    +0.425 N 
ATOM      2  N   UNL     1     -33.700  25.966   6.163  0.00  0.00    -0.304 NA
ATOM      3  C   UNL     1     -33.089  27.683   4.815  0.00  0.00    -0.029 C 
ATOM      4  C   UNL     1     -32.976  26.826   6.843  0.00  0.00    +0.057 C 
ATOM      5  C   UNL     1     -33.775  26.494   4.898  0.00  0.00    +0.007 C 
ATOM      6  H   UNL     1     -32.895  28.799   5.889  0.00  0.00    -0.072 HD
ENDROOT
BRANCH   1   9
ATOM      7  O4* UNL     1     -32.148  30.268   5.852  0.00  0.00    -0.371 OA
ATOM      8  C2* UNL     1     -30.247  28.862   6.236  0.00  0.00    +0.147 C 
ATOM      9  C1* UNL     1     -31.742  29.057   6.519  0.00  0.00    +0.096 C 
ATOM     10  C3* UNL     1     -29.964  29.809   5.087  0.00  0.00    +0.167 C 
ATOM     11  C4* UNL     1     -30.982  30.918   5.319  0.00  0.00    +0.171 C 
BRANCH   8  12
ATOM     12  O2* UNL     1     -29.490  29.245   7.382  0.00  0.00    -0.382 OA
ATOM     13  H2* UNL     1     -29.303  28.462   7.923  0.00  0.00    +0.210 HD
ENDBRANCH   8  12
BRANCH  10  14
ATOM     14  O3* UNL     1     -30.216  29.149   3.852  0.00  0.00    -0.379 OA
ATOM     15  H3* UNL     1     -29.480  28.551   3.649  0.00  0.00    +0.211 HD
ENDBRANCH  10  14
BRANCH  11  16
ATOM     16  C5* UNL     1     -31.372  31.715   4.088  0.00  0.00    +0.169 C 
BRANCH  16  17
ATOM     17  O5* UNL     1     -32.458  31.068   3.446  0.00  0.00    -0.379 OA
ATOM     18  H5* UNL     1     -32.348  30.107   3.514  0.00  0.00    +0.211 HD
ENDBRANCH  16  17
ENDBRANCH  11  16
ENDBRANCH   1   9
BRANCH   5  19
ATOM     19  C   UNL     1     -34.519  25.797   3.837  0.00  0.00    +0.028 C 
BRANCH  19  20
ATOM     20  CA  UNL     1     -36.048  25.704   4.085  0.00  0.00    +0.041 C 
BRANCH  20  21
ATOM     21  N   UNL     1     -36.451  26.538   5.216  0.00  0.00    +0.389 N 
ATOM     22  H1  UNL     1     -36.751  27.450   4.874  0.00  0.00    -0.088 HD
ATOM     23  H2  UNL     1     -35.662  26.653   5.850  0.00  0.00    -0.088 HD
ATOM     24  H3  UNL     1     -37.223  26.089   5.710  0.00  0.00    -0.088 HD
ENDBRANCH  20  21
BRANCH  20  26
ATOM     25  OXT UNL     1     -37.221  23.599   3.728  0.00  0.00    -0.253 OA
ATOM     26  C   UNL     1     -36.477  24.284   4.417  0.00  0.00    +0.293 C 
BRANCH  26  27
ATOM     27  O   UNL     1     -35.912  23.830   5.566  0.00  0.00    -0.482 OA
ATOM     28  H   UNL     1     -36.045  22.942   5.835  0.00  0.00    +0.295 HD
ENDBRANCH  26  27
ENDBRANCH  20  26
ENDBRANCH  19  20
ENDBRANCH   5  19
TORSDOF 10
ENDMDL
MODEL 6
REMARK VINA RESULT:      -5.6      1.320      1.490
REMARK  Name = 57357136
REMARK  10 active torsions:
REMARK  status: ('A' for Active; 'I' for Inactive)
REMARK    1  A    between atoms: N_1  and  C1*_9
REMARK    2  A    between atoms: C_5  and  C_19
REMARK    3  A    between atoms: C2*_8  and  O2*_12
REMARK    4  A    between atoms: C3*_10  and  O3*_14
REMARK    5  A    between atoms: C4*_11  and  C5*_16
REMARK    6  A    between atoms: C5*_16  and  O5*_17
REMARK    7  A    between atoms: C_19  and  CA_20
REMARK    8  A    between atoms: CA_20  and  N_21
REMARK    9  A    between atoms: CA_20  and  C_26
REMARK   10  A    between atoms: C_26  and  O_27
REMARK                            x       y       z     vdW  Elec       q    Type
REMARK                         _______ _______ _______ _____ _____    ______ ____
ROOT
ATOM      1  N   UNL     1     -34.496  26.130   5.198  0.00  0.00    +0.425 N 
ATOM      2  N   UNL     1     -32.659  27.320   5.578  0.00  0.00    -0.304 NA
ATOM      3  C   UNL     1     -34.118  26.635   3.985  0.00  0.00    -0.029 C 
ATOM      4  C   UNL     1     -33.589  26.568   6.123  0.00  0.00    +0.057 C 
ATOM      5  C   UNL     1     -32.983  27.365   4.245  0.00  0.00    +0.007 C 
ATOM      6  H   UNL     1     -34.635  25.322   4.653  0.00  0.00    -0.072 HD
ENDROOT
BRANCH   1   9
ATOM      7  O4* UNL     1     -35.296  24.017   6.103  0.00  0.00    -0.371 OA
ATOM      8  C2* UNL     1     -36.459  24.875   4.193  0.00  0.00    +0.147 C 
ATOM      9  C1* UNL     1     -35.695  25.249   5.469  0.00  0.00    +0.096 C 
ATOM     10  C3* UNL     1     -36.126  23.412   3.979  0.00  0.00    +0.167 C 
ATOM     11  C4* UNL     1     -35.899  22.917   5.402  0.00  0.00    +0.171 C 
BRANCH   8  12
ATOM     12  O2* UNL     1     -37.860  25.030   4.413  0.00  0.00    -0.382 OA
ATOM     13  H2* UNL     1     -38.335  24.901   3.578  0.00  0.00    +0.210 HD
ENDBRANCH   8  12
BRANCH  10  14
ATOM     14  O3* UNL     1     -34.930  23.303   3.215  0.00  0.00    -0.379 OA
ATOM     15  H3* UNL     1     -34.585  22.399   3.283  0.00  0.00    +0.211 HD
ENDBRANCH  10  14
BRANCH  11  16
ATOM     16  C5* UNL     1     -35.013  21.692   5.534  0.00  0.00    +0.169 C 
BRANCH  16  17
ATOM     17  O5* UNL     1     -35.399  20.739   4.557  0.00  0.00    -0.379 OA
ATOM     18  H5* UNL     1     -34.645  20.168   4.346  0.00  0.00    +0.211 HD
ENDBRANCH  16  17
ENDBRANCH  11  16
ENDBRANCH   1   9
BRANCH   5  19
ATOM     19  C   UNL     1     -32.155  28.128   3.297  0.00  0.00    +0.028 C 
BRANCH  19  20
ATOM     20  CA  UNL     1     -31.597  29.460   3.866  0.00  0.00    +0.041 C 
BRANCH  20  21
ATOM     21  N   UNL     1     -30.574  29.214   4.880  0.00  0.00    +0.389 N 
ATOM     22  H1  UNL     1     -30.006  28.415   4.601  0.00  0.00    -0.088 HD
ATOM     23  H2  UNL     1     -31.022  29.018   5.774  0.00  0.00    -0.088 HD
ATOM     24  H3  UNL     1     -29.980  30.039   4.970  0.00  0.00    -0.088 HD
ENDBRANCH  20  21
BRANCH  20  26
ATOM     25  OXT UNL     1     -33.674  30.728   3.973  0.00  0.00    -0.253 OA
ATOM     26  C   UNL     1     -32.686  30.282   4.539  0.00  0.00    +0.293 C 
BRANCH  26  27
ATOM     27  O   UNL     1     -32.461  30.446   5.869  0.00  0.00    -0.482 OA
ATOM     28  H   UNL     1     -32.238  31.291   6.206  0.00  0.00    +0.295 HD
ENDBRANCH  26  27
ENDBRANCH  20  26
ENDBRANCH  19  20
ENDBRANCH   5  19
TORSDOF 10
ENDMDL
MODEL 7
REMARK VINA RESULT:      -5.6      4.497      8.020
REMARK  Name = 57357136
REMARK  10 active torsions:
REMARK  status: ('A' for Active; 'I' for Inactive)
REMARK    1  A    between atoms: N_1  and  C1*_9
REMARK    2  A    between atoms: C_5  and  C_19
REMARK    3  A    between atoms: C2*_8  and  O2*_12
REMARK    4  A    between atoms: C3*_10  and  O3*_14
REMARK    5  A    between atoms: C4*_11  and  C5*_16
REMARK    6  A    between atoms: C5*_16  and  O5*_17
REMARK    7  A    between atoms: C_19  and  CA_20
REMARK    8  A    between atoms: CA_20  and  N_21
REMARK    9  A    between atoms: CA_20  and  C_26
REMARK   10  A    between atoms: C_26  and  O_27
REMARK                            x       y       z     vdW  Elec       q    Type
REMARK                         _______ _______ _______ _____ _____    ______ ____
ROOT
ATOM      1  N   UNL     1     -35.540  21.954   2.885  0.00  0.00    +0.425 N 
ATOM      2  N   UNL     1     -34.410  21.785   0.981  0.00  0.00    -0.304 NA
ATOM      3  C   UNL     1     -35.427  20.615   2.634  0.00  0.00    -0.029 C 
ATOM      4  C   UNL     1     -34.914  22.616   1.866  0.00  0.00    +0.057 C 
ATOM      5  C   UNL     1     -34.726  20.536   1.455  0.00  0.00    +0.007 C 
ATOM      6  H   UNL     1     -35.312  21.653   3.795  0.00  0.00    -0.072 HD
ENDROOT
BRANCH   1   9
ATOM      7  O4* UNL     1     -36.582  23.958   3.794  0.00  0.00    -0.371 OA
ATOM      8  C2* UNL     1     -35.356  22.594   5.335  0.00  0.00    +0.147 C 
ATOM      9  C1* UNL     1     -36.229  22.589   4.073  0.00  0.00    +0.096 C 
ATOM     10  C3* UNL     1     -34.950  24.045   5.496  0.00  0.00    +0.167 C 
ATOM     11  C4* UNL     1     -36.130  24.785   4.878  0.00  0.00    +0.171 C 
BRANCH   8  12
ATOM     12  O2* UNL     1     -36.135  22.178   6.455  0.00  0.00    -0.382 OA
ATOM     13  H2* UNL     1     -36.017  21.226   6.595  0.00  0.00    +0.210 HD
ENDBRANCH   8  12
BRANCH  10  14
ATOM     14  O3* UNL     1     -33.762  24.292   4.753  0.00  0.00    -0.379 OA
ATOM     15  H3* UNL     1     -33.774  25.201   4.416  0.00  0.00    +0.211 HD
ENDBRANCH  10  14
BRANCH  11  16
ATOM     16  C5* UNL     1     -35.827  26.177   4.356  0.00  0.00    +0.169 C 
BRANCH  16  17
ATOM     17  O5* UNL     1     -34.895  26.801   5.223  0.00  0.00    -0.379 OA
ATOM     18  H5* UNL     1     -35.362  27.403   5.822  0.00  0.00    +0.211 HD
ENDBRANCH  16  17
ENDBRANCH  11  16
ENDBRANCH   1   9
BRANCH   5  19
ATOM     19  C   UNL     1     -34.321  19.329   0.716  0.00  0.00    +0.028 C 
BRANCH  19  20
ATOM     20  CA  UNL     1     -32.957  18.736   1.161  0.00  0.00    +0.041 C 
BRANCH  20  21
ATOM     21  N   UNL     1     -31.843  19.476   0.572  0.00  0.00    +0.389 N 
ATOM     22  H1  UNL     1     -31.359  18.882  -0.101  0.00  0.00    -0.088 HD
ATOM     23  H2  UNL     1     -31.195  19.756   1.308  0.00  0.00    -0.088 HD
ATOM     24  H3  UNL     1     -32.200  20.306   0.099  0.00  0.00    -0.088 HD
ENDBRANCH  20  21
BRANCH  20  26
ATOM     25  OXT UNL     1     -31.737  16.695   0.637  0.00  0.00    -0.253 OA
ATOM     26  C   UNL     1     -32.803  17.291   0.716  0.00  0.00    +0.293 C 
BRANCH  26  27
ATOM     27  O   UNL     1     -33.997  16.705   0.440  0.00  0.00    -0.482 OA
ATOM     28  H   UNL     1     -34.544  17.052  -0.237  0.00  0.00    +0.295 HD
ENDBRANCH  26  27
ENDBRANCH  20  26
ENDBRANCH  19  20
ENDBRANCH   5  19
TORSDOF 10
ENDMDL
MODEL 8
REMARK VINA RESULT:      -5.5      2.967      3.526
REMARK  Name = 57357136
REMARK  10 active torsions:
REMARK  status: ('A' for Active; 'I' for Inactive)
REMARK    1  A    between atoms: N_1  and  C1*_9
REMARK    2  A    between atoms: C_5  and  C_19
REMARK    3  A    between atoms: C2*_8  and  O2*_12
REMARK    4  A    between atoms: C3*_10  and  O3*_14
REMARK    5  A    between atoms: C4*_11  and  C5*_16
REMARK    6  A    between atoms: C5*_16  and  O5*_17
REMARK    7  A    between atoms: C_19  and  CA_20
REMARK    8  A    between atoms: CA_20  and  N_21
REMARK    9  A    between atoms: CA_20  and  C_26
REMARK   10  A    between atoms: C_26  and  O_27
REMARK                            x       y       z     vdW  Elec       q    Type
REMARK                         _______ _______ _______ _____ _____    ______ ____
ROOT
ATOM      1  N   UNL     1     -35.535  25.420   4.753  0.00  0.00    +0.425 N 
ATOM      2  N   UNL     1     -33.317  25.513   4.674  0.00  0.00    -0.304 NA
ATOM      3  C   UNL     1     -35.153  26.180   5.823  0.00  0.00    -0.029 C 
ATOM      4  C   UNL     1     -34.398  25.042   4.093  0.00  0.00    +0.057 C 
ATOM      5  C   UNL     1     -33.781  26.223   5.753  0.00  0.00    +0.007 C 
ATOM      6  H   UNL     1     -36.210  26.133   4.674  0.00  0.00    -0.072 HD
ENDROOT
BRANCH   1   9
ATOM      7  O4* UNL     1     -37.076  23.649   4.107  0.00  0.00    -0.371 OA
ATOM      8  C2* UNL     1     -37.432  25.798   3.109  0.00  0.00    +0.147 C 
ATOM      9  C1* UNL     1     -36.953  25.062   4.367  0.00  0.00    +0.096 C 
ATOM     10  C3* UNL     1     -37.457  24.723   2.041  0.00  0.00    +0.167 C 
ATOM     11  C4* UNL     1     -37.747  23.465   2.850  0.00  0.00    +0.171 C 
BRANCH   8  12
ATOM     12  O2* UNL     1     -38.748  26.304   3.325  0.00  0.00    -0.382 OA
ATOM     13  H2* UNL     1     -39.384  25.572   3.297  0.00  0.00    +0.210 HD
ENDBRANCH   8  12
BRANCH  10  14
ATOM     14  O3* UNL     1     -36.179  24.636   1.423  0.00  0.00    -0.379 OA
ATOM     15  H3* UNL     1     -36.036  23.732   1.103  0.00  0.00    +0.211 HD
ENDBRANCH  10  14
BRANCH  11  16
ATOM     16  C5* UNL     1     -37.286  22.163   2.221  0.00  0.00    +0.169 C 
BRANCH  16  17
ATOM     17  O5* UNL     1     -35.927  21.945   2.563  0.00  0.00    -0.379 OA
ATOM     18  H5* UNL     1     -35.813  22.048   3.519  0.00  0.00    +0.211 HD
ENDBRANCH  16  17
ENDBRANCH  11  16
ENDBRANCH   1   9
BRANCH   5  19
ATOM     19  C   UNL     1     -32.845  26.906   6.660  0.00  0.00    +0.028 C 
BRANCH  19  20
ATOM     20  CA  UNL     1     -32.317  28.265   6.127  0.00  0.00    +0.041 C 
BRANCH  20  21
ATOM     21  N   UNL     1     -32.676  28.457   4.724  0.00  0.00    +0.389 N 
ATOM     22  H1  UNL     1     -33.063  29.392   4.598  0.00  0.00    -0.088 HD
ATOM     23  H2  UNL     1     -33.371  27.762   4.453  0.00  0.00    -0.088 HD
ATOM     24  H3  UNL     1     -31.844  28.352   4.143  0.00  0.00    -0.088 HD
ENDBRANCH  20  21
BRANCH  20  26
ATOM     25  OXT UNL     1     -30.033  27.804   5.418  0.00  0.00    -0.253 OA
ATOM     26  C   UNL     1     -30.801  28.345   6.202  0.00  0.00    +0.293 C 
BRANCH  26  27
ATOM     27  O   UNL     1     -30.375  29.123   7.231  0.00  0.00    -0.482 OA
ATOM     28  H   UNL     1     -30.984  29.414   7.882  0.00  0.00    +0.295 HD
ENDBRANCH  26  27
ENDBRANCH  20  26
ENDBRANCH  19  20
ENDBRANCH   5  19
TORSDOF 10
ENDMDL
MODEL 9
REMARK VINA RESULT:      -5.5      3.410      6.651
REMARK  Name = 57357136
REMARK  10 active torsions:
REMARK  status: ('A' for Active; 'I' for Inactive)
REMARK    1  A    between atoms: N_1  and  C1*_9
REMARK    2  A    between atoms: C_5  and  C_19
REMARK    3  A    between atoms: C2*_8  and  O2*_12
REMARK    4  A    between atoms: C3*_10  and  O3*_14
REMARK    5  A    between atoms: C4*_11  and  C5*_16
REMARK    6  A    between atoms: C5*_16  and  O5*_17
REMARK    7  A    between atoms: C_19  and  CA_20
REMARK    8  A    between atoms: CA_20  and  N_21
REMARK    9  A    between atoms: CA_20  and  C_26
REMARK   10  A    between atoms: C_26  and  O_27
REMARK                            x       y       z     vdW  Elec       q    Type
REMARK                         _______ _______ _______ _____ _____    ______ ____
ROOT
ATOM      1  N   UNL     1     -32.814  27.555   5.063  0.00  0.00    +0.425 N 
ATOM      2  N   UNL     1     -34.063  26.269   6.375  0.00  0.00    -0.304 NA
ATOM      3  C   UNL     1     -33.887  27.176   4.305  0.00  0.00    -0.029 C 
ATOM      4  C   UNL     1     -32.964  26.986   6.297  0.00  0.00    +0.057 C 
ATOM      5  C   UNL     1     -34.643  26.384   5.136  0.00  0.00    +0.007 C 
ATOM      6  H   UNL     1     -33.010  28.423   4.641  0.00  0.00    -0.072 HD
ENDROOT
BRANCH   1   9
ATOM      7  O4* UNL     1     -30.400  27.845   4.944  0.00  0.00    -0.371 OA
ATOM      8  C2* UNL     1     -31.703  29.827   5.276  0.00  0.00    +0.147 C 
ATOM      9  C1* UNL     1     -31.672  28.441   4.619  0.00  0.00    +0.096 C 
ATOM     10  C3* UNL     1     -30.560  29.790   6.270  0.00  0.00    +0.167 C 
ATOM     11  C4* UNL     1     -29.585  28.823   5.611  0.00  0.00    +0.171 C 
BRANCH   8  12
ATOM     12  O2* UNL     1     -31.460  30.828   4.289  0.00  0.00    -0.382 OA
ATOM     13  H2* UNL     1     -30.952  31.554   4.683  0.00  0.00    +0.210 HD
ENDBRANCH   8  12
BRANCH  10  14
ATOM     14  O3* UNL     1     -31.024  29.265   7.508  0.00  0.00    -0.379 OA
ATOM     15  H3* UNL     1     -30.810  28.321   7.560  0.00  0.00    +0.211 HD
ENDBRANCH  10  14
BRANCH  11  16
ATOM     16  C5* UNL     1     -28.626  28.118   6.553  0.00  0.00    +0.169 C 
BRANCH  16  17
ATOM     17  O5* UNL     1     -29.283  27.000   7.126  0.00  0.00    -0.379 OA
ATOM     18  H5* UNL     1     -29.682  26.464   6.424  0.00  0.00    +0.211 HD
ENDBRANCH  16  17
ENDBRANCH  11  16
ENDBRANCH   1   9
BRANCH   5  19
ATOM     19  C   UNL     1     -35.912  25.703   4.837  0.00  0.00    +0.028 C 
BRANCH  19  20
ATOM     20  CA  UNL     1     -35.856  24.158   4.976  0.00  0.00    +0.041 C 
BRANCH  20  21
ATOM     21  N   UNL     1     -34.477  23.675   4.950  0.00  0.00    +0.389 N 
ATOM     22  H1  UNL     1     -33.874  24.393   4.549  0.00  0.00    -0.088 HD
ATOM     23  H2  UNL     1     -34.424  22.829   4.383  0.00  0.00    -0.088 HD
ATOM     24  H3  UNL     1     -34.173  23.467   5.901  0.00  0.00    -0.088 HD
ENDBRANCH  20  21
BRANCH  20  26
ATOM     25  OXT UNL     1     -36.999  24.027   2.829  0.00  0.00    -0.253 OA
ATOM     26  C   UNL     1     -36.580  23.465   3.832  0.00  0.00    +0.293 C 
BRANCH  26  27
ATOM     27  O   UNL     1     -36.688  22.125   4.025  0.00  0.00    -0.482 OA
ATOM     28  H   UNL     1     -36.270  21.722   4.761  0.00  0.00    +0.295 HD
ENDBRANCH  26  27
ENDBRANCH  20  26
ENDBRANCH  19  20
ENDBRANCH   5  19
TORSDOF 10
ENDMDL
