MODEL 1
REMARK VINA RESULT:      -6.8      0.000      0.000
REMARK  Name = 607203
REMARK  6 active torsions:
REMARK  status: ('A' for Active; 'I' for Inactive)
REMARK    1  A    between atoms: C_1  and  N_13
REMARK    2  A    between atoms: C_2  and  N_9
REMARK    3  A    between atoms: C_5  and  N_12
REMARK    4  A    between atoms: N_13  and  C_15
REMARK    5  A    between atoms: C_15  and  C_16
REMARK    6  A    between atoms: C_16  and  C_17
REMARK                            x       y       z     vdW  Elec       q    Type
REMARK                         _______ _______ _______ _____ _____    ______ ____
ROOT
ATOM      1  C   UNL     1     -36.147  23.200   3.615  0.00  0.00    +0.067 C 
ATOM      2  C   UNL     1     -35.444  23.153   4.836  0.00  0.00    +0.157 C 
ATOM      3  C   UNL     1     -36.064  24.380   2.849  0.00  0.00    +0.018 C 
ATOM      4  C   UNL     1     -34.689  24.241   5.272  0.00  0.00    +0.049 C 
ATOM      5  C   UNL     1     -34.620  25.398   4.497  0.00  0.00    +0.145 C 
ATOM      6  C   UNL     1     -35.308  25.468   3.285  0.00  0.00    +0.025 C 
ENDROOT
BRANCH   2   9
ATOM      7  O   UNL     1     -36.085  22.043   6.753  0.00  0.00    -0.126 OA
ATOM      8  O   UNL     1     -34.961  20.933   5.230  0.00  0.00    -0.126 OA
ATOM      9  N   UNL     1     -35.499  21.985   5.647  0.00  0.00    +0.059 N 
ENDBRANCH   2   9
BRANCH   5  12
ATOM     10  O   UNL     1     -33.195  26.407   6.004  0.00  0.00    -0.126 OA
ATOM     11  O   UNL     1     -33.852  27.559   4.254  0.00  0.00    -0.126 OA
ATOM     12  N   UNL     1     -33.852  26.507   4.940  0.00  0.00    +0.058 N 
ENDBRANCH   5  12
BRANCH   1  13
ATOM     13  N   UNL     1     -36.905  22.134   3.159  0.00  0.00    -0.331 N 
ATOM     14  H   UNL     1     -37.652  21.823   3.720  0.00  0.00    +0.147 HD
BRANCH  13  15
ATOM     15  C   UNL     1     -36.661  21.454   1.909  0.00  0.00    +0.092 C 
BRANCH  15  16
ATOM     16  C   UNL     1     -35.799  20.204   2.130  0.00  0.00    +0.048 C 
BRANCH  16  17
ATOM     17  C   UNL     1     -34.493  20.241   1.412  0.00  0.00    -0.020 C 
ATOM     18  C   UNL     1     -33.622  19.154   1.489  0.00  0.00    -0.004 C 
ATOM     19  C   UNL     1     -34.139  21.364   0.664  0.00  0.00    -0.004 C 
ATOM     20  C   UNL     1     -32.400  19.188   0.816  0.00  0.00    -0.000 C 
ATOM     21  C   UNL     1     -32.918  21.400  -0.008  0.00  0.00    -0.000 C 
ATOM     22  C   UNL     1     -32.048  20.312   0.068  0.00  0.00    -0.000 C 
ENDBRANCH  16  17
ENDBRANCH  15  16
ENDBRANCH  13  15
ENDBRANCH   1  13
TORSDOF 6
ENDMDL
MODEL 2
REMARK VINA RESULT:      -6.8      0.171      1.428
REMARK  Name = 607203
REMARK  6 active torsions:
REMARK  status: ('A' for Active; 'I' for Inactive)
REMARK    1  A    between atoms: C_1  and  N_13
REMARK    2  A    between atoms: C_2  and  N_9
REMARK    3  A    between atoms: C_5  and  N_12
REMARK    4  A    between atoms: N_13  and  C_15
REMARK    5  A    between atoms: C_15  and  C_16
REMARK    6  A    between atoms: C_16  and  C_17
REMARK                            x       y       z     vdW  Elec       q    Type
REMARK                         _______ _______ _______ _____ _____    ______ ____
ROOT
ATOM      1  C   UNL     1     -36.219  23.256   3.688  0.00  0.00    +0.067 C 
ATOM      2  C   UNL     1     -35.511  23.208   4.906  0.00  0.00    +0.157 C 
ATOM      3  C   UNL     1     -36.177  24.453   2.944  0.00  0.00    +0.018 C 
ATOM      4  C   UNL     1     -34.790  24.311   5.361  0.00  0.00    +0.049 C 
ATOM      5  C   UNL     1     -34.761  25.485   4.609  0.00  0.00    +0.145 C 
ATOM      6  C   UNL     1     -35.455  25.556   3.400  0.00  0.00    +0.025 C 
ENDROOT
BRANCH   2   9
ATOM      7  O   UNL     1     -34.949  21.000   5.257  0.00  0.00    -0.126 OA
ATOM      8  O   UNL     1     -36.112  22.039   6.801  0.00  0.00    -0.126 OA
ATOM      9  N   UNL     1     -35.525  22.024   5.694  0.00  0.00    +0.059 N 
ENDBRANCH   2   9
BRANCH   5  12
ATOM     10  O   UNL     1     -33.781  27.545   4.272  0.00  0.00    -0.126 OA
ATOM     11  O   UNL     1     -33.646  26.636   6.267  0.00  0.00    -0.126 OA
ATOM     12  N   UNL     1     -34.028  26.610   5.071  0.00  0.00    +0.058 N 
ENDBRANCH   5  12
BRANCH   1  13
ATOM     13  N   UNL     1     -36.943  22.175   3.213  0.00  0.00    -0.331 N 
ATOM     14  H   UNL     1     -37.692  21.842   3.760  0.00  0.00    +0.147 HD
BRANCH  13  15
ATOM     15  C   UNL     1     -36.663  21.509   1.963  0.00  0.00    +0.092 C 
BRANCH  15  16
ATOM     16  C   UNL     1     -35.784  20.272   2.192  0.00  0.00    +0.048 C 
BRANCH  16  17
ATOM     17  C   UNL     1     -34.495  20.305   1.443  0.00  0.00    -0.020 C 
ATOM     18  C   UNL     1     -34.140  21.440   0.714  0.00  0.00    -0.004 C 
ATOM     19  C   UNL     1     -33.643  19.200   1.470  0.00  0.00    -0.004 C 
ATOM     20  C   UNL     1     -32.934  21.471   0.014  0.00  0.00    -0.000 C 
ATOM     21  C   UNL     1     -32.438  19.231   0.770  0.00  0.00    -0.000 C 
ATOM     22  C   UNL     1     -32.082  20.366   0.042  0.00  0.00    -0.000 C 
ENDBRANCH  16  17
ENDBRANCH  15  16
ENDBRANCH  13  15
ENDBRANCH   1  13
TORSDOF 6
ENDMDL
MODEL 3
REMARK VINA RESULT:      -6.5      1.815      2.543
REMARK  Name = 607203
REMARK  6 active torsions:
REMARK  status: ('A' for Active; 'I' for Inactive)
REMARK    1  A    between atoms: C_1  and  N_13
REMARK    2  A    between atoms: C_2  and  N_9
REMARK    3  A    between atoms: C_5  and  N_12
REMARK    4  A    between atoms: N_13  and  C_15
REMARK    5  A    between atoms: C_15  and  C_16
REMARK    6  A    between atoms: C_16  and  C_17
REMARK                            x       y       z     vdW  Elec       q    Type
REMARK                         _______ _______ _______ _____ _____    ______ ____
ROOT
ATOM      1  C   UNL     1     -36.258  23.497   4.029  0.00  0.00    +0.067 C 
ATOM      2  C   UNL     1     -36.684  24.839   3.954  0.00  0.00    +0.157 C 
ATOM      3  C   UNL     1     -35.001  23.233   4.607  0.00  0.00    +0.018 C 
ATOM      4  C   UNL     1     -35.886  25.874   4.438  0.00  0.00    +0.049 C 
ATOM      5  C   UNL     1     -34.644  25.590   5.008  0.00  0.00    +0.145 C 
ATOM      6  C   UNL     1     -34.202  24.269   5.092  0.00  0.00    +0.025 C 
ENDROOT
BRANCH   2   9
ATOM      7  O   UNL     1     -38.960  24.525   3.755  0.00  0.00    -0.126 OA
ATOM      8  O   UNL     1     -38.004  26.058   2.509  0.00  0.00    -0.126 OA
ATOM      9  N   UNL     1     -37.946  25.156   3.377  0.00  0.00    +0.059 N 
ENDBRANCH   2   9
BRANCH   5  12
ATOM     10  O   UNL     1     -33.384  26.570   6.672  0.00  0.00    -0.126 OA
ATOM     11  O   UNL     1     -33.577  27.617   4.751  0.00  0.00    -0.126 OA
ATOM     12  N   UNL     1     -33.829  26.643   5.501  0.00  0.00    +0.058 N 
ENDBRANCH   5  12
BRANCH   1  13
ATOM     13  N   UNL     1     -37.032  22.451   3.555  0.00  0.00    -0.331 N 
ATOM     14  H   UNL     1     -37.763  22.119   4.125  0.00  0.00    +0.147 HD
BRANCH  13  15
ATOM     15  C   UNL     1     -36.826  21.817   2.273  0.00  0.00    +0.092 C 
BRANCH  15  16
ATOM     16  C   UNL     1     -36.006  20.530   2.428  0.00  0.00    +0.048 C 
BRANCH  16  17
ATOM     17  C   UNL     1     -34.756  20.513   1.616  0.00  0.00    -0.020 C 
ATOM     18  C   UNL     1     -34.393  21.635   0.871  0.00  0.00    -0.004 C 
ATOM     19  C   UNL     1     -33.949  19.375   1.599  0.00  0.00    -0.004 C 
ATOM     20  C   UNL     1     -33.223  21.621   0.111  0.00  0.00    -0.000 C 
ATOM     21  C   UNL     1     -32.780  19.360   0.840  0.00  0.00    -0.000 C 
ATOM     22  C   UNL     1     -32.416  20.482   0.096  0.00  0.00    -0.000 C 
ENDBRANCH  16  17
ENDBRANCH  15  16
ENDBRANCH  13  15
ENDBRANCH   1  13
TORSDOF 6
ENDMDL
MODEL 4
REMARK VINA RESULT:      -6.1      2.972      4.963
REMARK  Name = 607203
REMARK  6 active torsions:
REMARK  status: ('A' for Active; 'I' for Inactive)
REMARK    1  A    between atoms: C_1  and  N_13
REMARK    2  A    between atoms: C_2  and  N_9
REMARK    3  A    between atoms: C_5  and  N_12
REMARK    4  A    between atoms: N_13  and  C_15
REMARK    5  A    between atoms: C_15  and  C_16
REMARK    6  A    between atoms: C_16  and  C_17
REMARK                            x       y       z     vdW  Elec       q    Type
REMARK                         _______ _______ _______ _____ _____    ______ ____
ROOT
ATOM      1  C   UNL     1     -36.374  23.339   3.701  0.00  0.00    +0.067 C 
ATOM      2  C   UNL     1     -35.554  23.231   4.842  0.00  0.00    +0.157 C 
ATOM      3  C   UNL     1     -36.354  24.551   2.984  0.00  0.00    +0.018 C 
ATOM      4  C   UNL     1     -34.745  24.292   5.248  0.00  0.00    +0.049 C 
ATOM      5  C   UNL     1     -34.741  25.483   4.523  0.00  0.00    +0.145 C 
ATOM      6  C   UNL     1     -35.546  25.613   3.390  0.00  0.00    +0.025 C 
ENDROOT
BRANCH   2   9
ATOM      7  O   UNL     1     -36.028  22.034   6.755  0.00  0.00    -0.126 OA
ATOM      8  O   UNL     1     -35.043  20.996   5.092  0.00  0.00    -0.126 OA
ATOM      9  N   UNL     1     -35.540  22.027   5.601  0.00  0.00    +0.059 N 
ENDBRANCH   2   9
BRANCH   5  12
ATOM     10  O   UNL     1     -33.983  27.650   4.308  0.00  0.00    -0.126 OA
ATOM     11  O   UNL     1     -33.151  26.405   5.915  0.00  0.00    -0.126 OA
ATOM     12  N   UNL     1     -33.919  26.565   4.935  0.00  0.00    +0.058 N 
ENDBRANCH   5  12
BRANCH   1  13
ATOM     13  N   UNL     1     -37.186  22.300   3.277  0.00  0.00    -0.331 N 
ATOM     14  H   UNL     1     -37.276  21.512   3.861  0.00  0.00    +0.147 HD
BRANCH  13  15
ATOM     15  C   UNL     1     -37.909  22.306   2.025  0.00  0.00    +0.092 C 
BRANCH  15  16
ATOM     16  C   UNL     1     -39.423  22.346   2.272  0.00  0.00    +0.048 C 
BRANCH  16  17
ATOM     17  C   UNL     1     -40.018  23.705   2.131  0.00  0.00    -0.020 C 
ATOM     18  C   UNL     1     -39.902  24.630   3.169  0.00  0.00    -0.004 C 
ATOM     19  C   UNL     1     -40.694  24.053   0.961  0.00  0.00    -0.004 C 
ATOM     20  C   UNL     1     -40.458  25.903   3.037  0.00  0.00    -0.000 C 
ATOM     21  C   UNL     1     -41.251  25.325   0.828  0.00  0.00    -0.000 C 
ATOM     22  C   UNL     1     -41.133  26.250   1.866  0.00  0.00    -0.000 C 
ENDBRANCH  16  17
ENDBRANCH  15  16
ENDBRANCH  13  15
ENDBRANCH   1  13
TORSDOF 6
ENDMDL
MODEL 5
REMARK VINA RESULT:      -6.1      1.889      2.665
REMARK  Name = 607203
REMARK  6 active torsions:
REMARK  status: ('A' for Active; 'I' for Inactive)
REMARK    1  A    between atoms: C_1  and  N_13
REMARK    2  A    between atoms: C_2  and  N_9
REMARK    3  A    between atoms: C_5  and  N_12
REMARK    4  A    between atoms: N_13  and  C_15
REMARK    5  A    between atoms: C_15  and  C_16
REMARK    6  A    between atoms: C_16  and  C_17
REMARK                            x       y       z     vdW  Elec       q    Type
REMARK                         _______ _______ _______ _____ _____    ______ ____
ROOT
ATOM      1  C   UNL     1     -35.520  22.895   3.705  0.00  0.00    +0.067 C 
ATOM      2  C   UNL     1     -35.129  23.942   2.845  0.00  0.00    +0.157 C 
ATOM      3  C   UNL     1     -35.376  23.089   5.093  0.00  0.00    +0.018 C 
ATOM      4  C   UNL     1     -34.616  25.134   3.354  0.00  0.00    +0.049 C 
ATOM      5  C   UNL     1     -34.483  25.306   4.732  0.00  0.00    +0.145 C 
ATOM      6  C   UNL     1     -34.863  24.282   5.601  0.00  0.00    +0.025 C 
ENDROOT
BRANCH   2   9
ATOM      7  O   UNL     1     -36.395  23.655   0.940  0.00  0.00    -0.126 OA
ATOM      8  O   UNL     1     -34.216  23.804   0.732  0.00  0.00    -0.126 OA
ATOM      9  N   UNL     1     -35.253  23.792   1.436  0.00  0.00    +0.059 N 
ENDBRANCH   2   9
BRANCH   5  12
ATOM     10  O   UNL     1     -33.599  26.561   6.452  0.00  0.00    -0.126 OA
ATOM     11  O   UNL     1     -33.875  27.517   4.495  0.00  0.00    -0.126 OA
ATOM     12  N   UNL     1     -33.960  26.519   5.251  0.00  0.00    +0.058 N 
ENDBRANCH   5  12
BRANCH   1  13
ATOM     13  N   UNL     1     -36.032  21.700   3.225  0.00  0.00    -0.331 N 
ATOM     14  H   UNL     1     -36.996  21.653   3.031  0.00  0.00    +0.147 HD
BRANCH  13  15
ATOM     15  C   UNL     1     -35.231  20.520   2.994  0.00  0.00    +0.092 C 
BRANCH  15  16
ATOM     16  C   UNL     1     -35.084  20.249   1.491  0.00  0.00    +0.048 C 
BRANCH  16  17
ATOM     17  C   UNL     1     -33.715  19.814   1.091  0.00  0.00    -0.020 C 
ATOM     18  C   UNL     1     -32.929  20.637   0.285  0.00  0.00    -0.004 C 
ATOM     19  C   UNL     1     -33.220  18.583   1.522  0.00  0.00    -0.004 C 
ATOM     20  C   UNL     1     -31.648  20.232  -0.090  0.00  0.00    -0.000 C 
ATOM     21  C   UNL     1     -31.939  18.177   1.147  0.00  0.00    -0.000 C 
ATOM     22  C   UNL     1     -31.153  19.001   0.342  0.00  0.00    -0.000 C 
ENDBRANCH  16  17
ENDBRANCH  15  16
ENDBRANCH  13  15
ENDBRANCH   1  13
TORSDOF 6
ENDMDL
MODEL 6
REMARK VINA RESULT:      -6.1      2.460      3.109
REMARK  Name = 607203
REMARK  6 active torsions:
REMARK  status: ('A' for Active; 'I' for Inactive)
REMARK    1  A    between atoms: C_1  and  N_13
REMARK    2  A    between atoms: C_2  and  N_9
REMARK    3  A    between atoms: C_5  and  N_12
REMARK    4  A    between atoms: N_13  and  C_15
REMARK    5  A    between atoms: C_15  and  C_16
REMARK    6  A    between atoms: C_16  and  C_17
REMARK                            x       y       z     vdW  Elec       q    Type
REMARK                         _______ _______ _______ _____ _____    ______ ____
ROOT
ATOM      1  C   UNL     1     -36.941  22.565   3.092  0.00  0.00    +0.067 C 
ATOM      2  C   UNL     1     -36.684  23.661   3.941  0.00  0.00    +0.157 C 
ATOM      3  C   UNL     1     -37.869  22.741   2.046  0.00  0.00    +0.018 C 
ATOM      4  C   UNL     1     -37.329  24.882   3.751  0.00  0.00    +0.049 C 
ATOM      5  C   UNL     1     -38.244  25.034   2.709  0.00  0.00    +0.145 C 
ATOM      6  C   UNL     1     -38.514  23.963   1.857  0.00  0.00    +0.025 C 
ENDROOT
BRANCH   2   9
ATOM      7  O   UNL     1     -34.725  24.244   5.007  0.00  0.00    -0.126 OA
ATOM      8  O   UNL     1     -35.999  22.713   5.928  0.00  0.00    -0.126 OA
ATOM      9  N   UNL     1     -35.756  23.532   5.012  0.00  0.00    +0.059 N 
ENDBRANCH   2   9
BRANCH   5  12
ATOM     10  O   UNL     1     -38.427  27.095   1.691  0.00  0.00    -0.126 OA
ATOM     11  O   UNL     1     -39.942  26.523   3.175  0.00  0.00    -0.126 OA
ATOM     12  N   UNL     1     -38.902  26.277   2.515  0.00  0.00    +0.058 N 
ENDBRANCH   5  12
BRANCH   1  13
ATOM     13  N   UNL     1     -36.314  21.341   3.259  0.00  0.00    -0.331 N 
ATOM     14  H   UNL     1     -36.089  21.056   4.174  0.00  0.00    +0.147 HD
BRANCH  13  15
ATOM     15  C   UNL     1     -35.971  20.460   2.166  0.00  0.00    +0.092 C 
BRANCH  15  16
ATOM     16  C   UNL     1     -34.918  21.107   1.257  0.00  0.00    +0.048 C 
BRANCH  16  17
ATOM     17  C   UNL     1     -33.720  20.250   1.022  0.00  0.00    -0.020 C 
ATOM     18  C   UNL     1     -33.629  18.997   1.627  0.00  0.00    -0.004 C 
ATOM     19  C   UNL     1     -32.689  20.702   0.198  0.00  0.00    -0.004 C 
ATOM     20  C   UNL     1     -32.509  18.194   1.408  0.00  0.00    -0.000 C 
ATOM     21  C   UNL     1     -31.569  19.901  -0.021  0.00  0.00    -0.000 C 
ATOM     22  C   UNL     1     -31.479  18.647   0.583  0.00  0.00    -0.000 C 
ENDBRANCH  16  17
ENDBRANCH  15  16
ENDBRANCH  13  15
ENDBRANCH   1  13
TORSDOF 6
ENDMDL
MODEL 7
REMARK VINA RESULT:      -6.0      1.541      2.021
REMARK  Name = 607203
REMARK  6 active torsions:
REMARK  status: ('A' for Active; 'I' for Inactive)
REMARK    1  A    between atoms: C_1  and  N_13
REMARK    2  A    between atoms: C_2  and  N_9
REMARK    3  A    between atoms: C_5  and  N_12
REMARK    4  A    between atoms: N_13  and  C_15
REMARK    5  A    between atoms: C_15  and  C_16
REMARK    6  A    between atoms: C_16  and  C_17
REMARK                            x       y       z     vdW  Elec       q    Type
REMARK                         _______ _______ _______ _____ _____    ______ ____
ROOT
ATOM      1  C   UNL     1     -34.840  24.241   2.600  0.00  0.00    +0.067 C 
ATOM      2  C   UNL     1     -35.305  24.425   3.918  0.00  0.00    +0.157 C 
ATOM      3  C   UNL     1     -33.791  25.066   2.148  0.00  0.00    +0.018 C 
ATOM      4  C   UNL     1     -34.743  25.393   4.750  0.00  0.00    +0.049 C 
ATOM      5  C   UNL     1     -33.705  26.198   4.281  0.00  0.00    +0.145 C 
ATOM      6  C   UNL     1     -33.230  26.035   2.979  0.00  0.00    +0.025 C 
ENDROOT
BRANCH   2   9
ATOM      7  O   UNL     1     -37.481  23.663   3.854  0.00  0.00    -0.126 OA
ATOM      8  O   UNL     1     -36.147  22.884   5.414  0.00  0.00    -0.126 OA
ATOM      9  N   UNL     1     -36.364  23.618   4.421  0.00  0.00    +0.059 N 
ENDBRANCH   2   9
BRANCH   5  12
ATOM     10  O   UNL     1     -32.724  26.850   6.263  0.00  0.00    -0.126 OA
ATOM     11  O   UNL     1     -33.052  28.367   4.710  0.00  0.00    -0.126 OA
ATOM     12  N   UNL     1     -33.133  27.185   5.125  0.00  0.00    +0.058 N 
ENDBRANCH   5  12
BRANCH   1  13
ATOM     13  N   UNL     1     -35.381  23.287   1.754  0.00  0.00    -0.331 N 
ATOM     14  H   UNL     1     -36.101  23.563   1.143  0.00  0.00    +0.147 HD
BRANCH  13  15
ATOM     15  C   UNL     1     -34.947  21.909   1.718  0.00  0.00    +0.092 C 
BRANCH  15  16
ATOM     16  C   UNL     1     -34.090  21.641   0.474  0.00  0.00    +0.048 C 
BRANCH  16  17
ATOM     17  C   UNL     1     -33.204  20.449   0.601  0.00  0.00    -0.020 C 
ATOM     18  C   UNL     1     -33.631  19.335   1.324  0.00  0.00    -0.004 C 
ATOM     19  C   UNL     1     -31.945  20.448  -0.001  0.00  0.00    -0.004 C 
ATOM     20  C   UNL     1     -32.803  18.219   1.443  0.00  0.00    -0.000 C 
ATOM     21  C   UNL     1     -31.116  19.333   0.118  0.00  0.00    -0.000 C 
ATOM     22  C   UNL     1     -31.544  18.218   0.839  0.00  0.00    -0.000 C 
ENDBRANCH  16  17
ENDBRANCH  15  16
ENDBRANCH  13  15
ENDBRANCH   1  13
TORSDOF 6
ENDMDL
MODEL 8
REMARK VINA RESULT:      -6.0      3.211      3.898
REMARK  Name = 607203
REMARK  6 active torsions:
REMARK  status: ('A' for Active; 'I' for Inactive)
REMARK    1  A    between atoms: C_1  and  N_13
REMARK    2  A    between atoms: C_2  and  N_9
REMARK    3  A    between atoms: C_5  and  N_12
REMARK    4  A    between atoms: N_13  and  C_15
REMARK    5  A    between atoms: C_15  and  C_16
REMARK    6  A    between atoms: C_16  and  C_17
REMARK                            x       y       z     vdW  Elec       q    Type
REMARK                         _______ _______ _______ _____ _____    ______ ____
ROOT
ATOM      1  C   UNL     1     -37.248  22.165   2.583  0.00  0.00    +0.067 C 
ATOM      2  C   UNL     1     -38.525  22.466   2.066  0.00  0.00    +0.157 C 
ATOM      3  C   UNL     1     -36.459  23.230   3.060  0.00  0.00    +0.018 C 
ATOM      4  C   UNL     1     -38.993  23.778   2.030  0.00  0.00    +0.049 C 
ATOM      5  C   UNL     1     -38.196  24.818   2.508  0.00  0.00    +0.145 C 
ATOM      6  C   UNL     1     -36.928  24.543   3.023  0.00  0.00    +0.025 C 
ENDROOT
BRANCH   2   9
ATOM      7  O   UNL     1     -39.008  20.809   0.536  0.00  0.00    -0.126 OA
ATOM      8  O   UNL     1     -40.417  21.152   2.183  0.00  0.00    -0.126 OA
ATOM      9  N   UNL     1     -39.358  21.424   1.570  0.00  0.00    +0.059 N 
ENDBRANCH   2   9
BRANCH   5  12
ATOM     10  O   UNL     1     -39.794  26.416   2.964  0.00  0.00    -0.126 OA
ATOM     11  O   UNL     1     -37.952  27.040   1.945  0.00  0.00    -0.126 OA
ATOM     12  N   UNL     1     -38.670  26.155   2.471  0.00  0.00    +0.058 N 
ENDBRANCH   5  12
BRANCH   1  13
ATOM     13  N   UNL     1     -36.759  20.870   2.630  0.00  0.00    -0.331 N 
ATOM     14  H   UNL     1     -37.407  20.131   2.699  0.00  0.00    +0.147 HD
BRANCH  13  15
ATOM     15  C   UNL     1     -35.353  20.541   2.584  0.00  0.00    +0.092 C 
BRANCH  15  16
ATOM     16  C   UNL     1     -34.803  20.702   1.161  0.00  0.00    +0.048 C 
BRANCH  16  17
ATOM     17  C   UNL     1     -33.517  19.984   0.929  0.00  0.00    -0.020 C 
ATOM     18  C   UNL     1     -33.305  18.730   1.502  0.00  0.00    -0.004 C 
ATOM     19  C   UNL     1     -32.525  20.566   0.141  0.00  0.00    -0.004 C 
ATOM     20  C   UNL     1     -32.102  18.057   1.286  0.00  0.00    -0.000 C 
ATOM     21  C   UNL     1     -31.322  19.894  -0.076  0.00  0.00    -0.000 C 
ATOM     22  C   UNL     1     -31.110  18.640   0.496  0.00  0.00    -0.000 C 
ENDBRANCH  16  17
ENDBRANCH  15  16
ENDBRANCH  13  15
ENDBRANCH   1  13
TORSDOF 6
ENDMDL
MODEL 9
REMARK VINA RESULT:      -5.7      4.352      5.966
REMARK  Name = 607203
REMARK  6 active torsions:
REMARK  status: ('A' for Active; 'I' for Inactive)
REMARK    1  A    between atoms: C_1  and  N_13
REMARK    2  A    between atoms: C_2  and  N_9
REMARK    3  A    between atoms: C_5  and  N_12
REMARK    4  A    between atoms: N_13  and  C_15
REMARK    5  A    between atoms: C_15  and  C_16
REMARK    6  A    between atoms: C_16  and  C_17
REMARK                            x       y       z     vdW  Elec       q    Type
REMARK                         _______ _______ _______ _____ _____    ______ ____
ROOT
ATOM      1  C   UNL     1     -38.769  22.376   2.085  0.00  0.00    +0.067 C 
ATOM      2  C   UNL     1     -39.816  22.447   1.144  0.00  0.00    +0.157 C 
ATOM      3  C   UNL     1     -38.521  23.509   2.886  0.00  0.00    +0.018 C 
ATOM      4  C   UNL     1     -40.584  23.603   1.009  0.00  0.00    +0.049 C 
ATOM      5  C   UNL     1     -40.322  24.712   1.813  0.00  0.00    +0.145 C 
ATOM      6  C   UNL     1     -39.290  24.665   2.751  0.00  0.00    +0.025 C 
ENDROOT
BRANCH   2   9
ATOM      7  O   UNL     1     -39.293  21.026  -0.595  0.00  0.00    -0.126 OA
ATOM      8  O   UNL     1     -41.159  20.683   0.508  0.00  0.00    -0.126 OA
ATOM      9  N   UNL     1     -40.104  21.330   0.311  0.00  0.00    +0.059 N 
ENDBRANCH   2   9
BRANCH   5  12
ATOM     10  O   UNL     1     -40.533  27.007   1.734  0.00  0.00    -0.126 OA
ATOM     11  O   UNL     1     -42.341  25.782   1.506  0.00  0.00    -0.126 OA
ATOM     12  N   UNL     1     -41.102  25.891   1.677  0.00  0.00    +0.058 N 
ENDBRANCH   5  12
BRANCH   1  13
ATOM     13  N   UNL     1     -37.991  21.241   2.238  0.00  0.00    -0.331 N 
ATOM     14  H   UNL     1     -38.364  20.488   2.752  0.00  0.00    +0.147 HD
BRANCH  13  15
ATOM     15  C   UNL     1     -36.663  21.098   1.687  0.00  0.00    +0.092 C 
BRANCH  15  16
ATOM     16  C   UNL     1     -35.650  20.766   2.791  0.00  0.00    +0.048 C 
BRANCH  16  17
ATOM     17  C   UNL     1     -35.396  21.895   3.731  0.00  0.00    -0.020 C 
ATOM     18  C   UNL     1     -35.105  23.165   3.234  0.00  0.00    -0.004 C 
ATOM     19  C   UNL     1     -35.447  21.681   5.109  0.00  0.00    -0.004 C 
ATOM     20  C   UNL     1     -34.868  24.222   4.113  0.00  0.00    -0.000 C 
ATOM     21  C   UNL     1     -35.209  22.737   5.988  0.00  0.00    -0.000 C 
ATOM     22  C   UNL     1     -34.920  24.007   5.491  0.00  0.00    -0.000 C 
ENDBRANCH  16  17
ENDBRANCH  15  16
ENDBRANCH  13  15
ENDBRANCH   1  13
TORSDOF 6
ENDMDL
