MODEL 1
REMARK VINA RESULT:      -6.8      0.000      0.000
REMARK  Name = 57520598
REMARK  9 active torsions:
REMARK  status: ('A' for Active; 'I' for Inactive)
REMARK    1  A    between atoms: N_2  and  C_20
REMARK    2  A    between atoms: N_2  and  C_27
REMARK    3  A    between atoms: C_3  and  C_6
REMARK    4  A    between atoms: C_10  and  C_12
REMARK    5  A    between atoms: C_20  and  C_21
REMARK    6  A    between atoms: C_21  and  C_22
REMARK    7  A    between atoms: C_22  and  C_24
REMARK    8  A    between atoms: C_24  and  O_25
REMARK    9  A    between atoms: C_27  and  C_29
REMARK                            x       y       z     vdW  Elec       q    Type
REMARK                         _______ _______ _______ _____ _____    ______ ____
ROOT
ATOM      1  O   UNL     1     -34.020  26.766   5.090  0.00  0.00    -0.273 OA
ATOM      2  N   UNL     1     -35.814  26.146   3.723  0.00  0.00    -0.274 N 
ATOM      3  C   UNL     1     -34.584  26.798   3.986  0.00  0.00    +0.242 C 
ENDROOT
BRANCH   3   6
ATOM      4  O   UNL     1     -31.103  26.715   3.236  0.00  0.00    -0.270 OA
ATOM      5  N   UNL     1     -32.761  28.310   3.174  0.00  0.00    -0.271 N 
ATOM      6  C   UNL     1     -33.957  27.570   2.814  0.00  0.00    +0.131 C 
ATOM      7  C   UNL     1     -34.569  28.925   2.440  0.00  0.00    +0.049 C 
ATOM      8  C   UNL     1     -33.425  29.601   3.207  0.00  0.00    +0.096 C 
ATOM      9  C   UNL     1     -33.700  26.696   1.606  0.00  0.00    +0.029 C 
ATOM     10  C   UNL     1     -31.463  27.888   3.297  0.00  0.00    +0.250 C 
BRANCH  10  12
ATOM     11  S   UNL     1     -28.828  30.846   2.955  0.00  0.00    -0.086 S 
ATOM     12  C   UNL     1     -30.436  28.928   3.493  0.00  0.00    +0.061 C 
ATOM     13  C   UNL     1     -29.770  29.220   4.730  0.00  0.00    +0.011 C 
ATOM     14  C   UNL     1     -30.020  29.733   2.459  0.00  0.00    +0.040 C 
ATOM     15  C   UNL     1     -28.851  30.262   4.577  0.00  0.00    +0.030 C 
ATOM     16  C   UNL     1     -29.908  28.632   6.011  0.00  0.00    +0.001 C 
ATOM     17  C   UNL     1     -28.076  30.726   5.658  0.00  0.00    +0.006 C 
ATOM     18  C   UNL     1     -29.140  29.090   7.086  0.00  0.00    +0.000 C 
ATOM     19  C   UNL     1     -28.234  30.125   6.909  0.00  0.00    +0.001 C 
ENDBRANCH  10  12
ENDBRANCH   3   6
BRANCH   2  20
ATOM     20  C   UNL     1     -36.504  26.155   2.461  0.00  0.00    +0.094 C 
BRANCH  20  21
ATOM     21  C   UNL     1     -38.023  26.157   2.618  0.00  0.00    +0.033 C 
BRANCH  21  22
ATOM     22  C   UNL     1     -38.733  25.046   1.837  0.00  0.00    +0.111 C 
BRANCH  22  24
ATOM     23  O   UNL     1     -40.201  23.171   2.348  0.00  0.00    -0.250 OA
ATOM     24  C   UNL     1     -39.659  24.212   2.693  0.00  0.00    +0.314 C 
BRANCH  24  25
ATOM     25  O   UNL     1     -39.807  24.748   3.933  0.00  0.00    -0.480 OA
ATOM     26  H   UNL     1     -39.335  24.388   4.658  0.00  0.00    +0.295 HD
ENDBRANCH  24  25
ENDBRANCH  22  24
ENDBRANCH  21  22
ENDBRANCH  20  21
ENDBRANCH   2  20
BRANCH   2  27
ATOM     27  C   UNL     1     -36.453  25.395   4.808  0.00  0.00    +0.120 C 
BRANCH  27  29
ATOM     28 CL   UNL     1     -35.815  20.799   2.443  0.00  0.00    -0.082 Cl
ATOM     29  C   UNL     1     -35.970  23.974   4.871  0.00  0.00    -0.001 C 
ATOM     30  C   UNL     1     -36.101  23.144   3.758  0.00  0.00    +0.009 C 
ATOM     31  C   UNL     1     -35.389  23.486   6.041  0.00  0.00    -0.003 C 
ATOM     32  C   UNL     1     -35.651  21.825   3.815  0.00  0.00    +0.057 C 
ATOM     33  C   UNL     1     -34.939  22.168   6.098  0.00  0.00    +0.001 C 
ATOM     34  C   UNL     1     -35.070  21.336   4.985  0.00  0.00    +0.011 C 
ENDBRANCH  27  29
ENDBRANCH   2  27
TORSDOF 9
ENDMDL
MODEL 2
REMARK VINA RESULT:      -6.5      2.779      5.690
REMARK  Name = 57520598
REMARK  9 active torsions:
REMARK  status: ('A' for Active; 'I' for Inactive)
REMARK    1  A    between atoms: N_2  and  C_20
REMARK    2  A    between atoms: N_2  and  C_27
REMARK    3  A    between atoms: C_3  and  C_6
REMARK    4  A    between atoms: C_10  and  C_12
REMARK    5  A    between atoms: C_20  and  C_21
REMARK    6  A    between atoms: C_21  and  C_22
REMARK    7  A    between atoms: C_22  and  C_24
REMARK    8  A    between atoms: C_24  and  O_25
REMARK    9  A    between atoms: C_27  and  C_29
REMARK                            x       y       z     vdW  Elec       q    Type
REMARK                         _______ _______ _______ _____ _____    ______ ____
ROOT
ATOM      1  O   UNL     1     -36.247  26.720   2.216  0.00  0.00    -0.273 OA
ATOM      2  N   UNL     1     -34.838  26.333   4.043  0.00  0.00    -0.274 N 
ATOM      3  C   UNL     1     -35.131  26.825   2.747  0.00  0.00    +0.242 C 
ENDROOT
BRANCH   3   6
ATOM      4  O   UNL     1     -33.636  29.863   3.852  0.00  0.00    -0.270 OA
ATOM      5  N   UNL     1     -34.172  28.941   1.813  0.00  0.00    -0.271 N 
ATOM      6  C   UNL     1     -33.977  27.515   2.001  0.00  0.00    +0.131 C 
ATOM      7  C   UNL     1     -33.949  27.411   0.473  0.00  0.00    +0.049 C 
ATOM      8  C   UNL     1     -34.538  28.826   0.413  0.00  0.00    +0.096 C 
ATOM      9  C   UNL     1     -32.628  27.239   2.627  0.00  0.00    +0.029 C 
ATOM     10  C   UNL     1     -33.945  29.985   2.669  0.00  0.00    +0.250 C 
BRANCH  10  12
ATOM     11  S   UNL     1     -33.369  33.618   1.157  0.00  0.00    -0.086 S 
ATOM     12  C   UNL     1     -34.063  31.346   2.112  0.00  0.00    +0.061 C 
ATOM     13  C   UNL     1     -35.293  32.042   1.863  0.00  0.00    +0.011 C 
ATOM     14  C   UNL     1     -32.953  32.084   1.775  0.00  0.00    +0.040 C 
ATOM     15  C   UNL     1     -35.057  33.313   1.333  0.00  0.00    +0.030 C 
ATOM     16  C   UNL     1     -36.636  31.640   2.068  0.00  0.00    +0.001 C 
ATOM     17  C   UNL     1     -36.115  34.184   1.007  0.00  0.00    +0.006 C 
ATOM     18  C   UNL     1     -37.689  32.501   1.746  0.00  0.00    +0.000 C 
ATOM     19  C   UNL     1     -37.429  33.759   1.222  0.00  0.00    +0.001 C 
ENDBRANCH  10  12
ENDBRANCH   3   6
BRANCH   2  20
ATOM     20  C   UNL     1     -33.562  26.431   4.697  0.00  0.00    +0.094 C 
BRANCH  20  21
ATOM     21  C   UNL     1     -33.684  26.710   6.194  0.00  0.00    +0.033 C 
BRANCH  21  22
ATOM     22  C   UNL     1     -32.372  27.134   6.860  0.00  0.00    +0.111 C 
BRANCH  22  24
ATOM     23  O   UNL     1     -30.618  28.076   5.456  0.00  0.00    -0.250 OA
ATOM     24  C   UNL     1     -31.644  28.224   6.105  0.00  0.00    +0.314 C 
BRANCH  24  25
ATOM     25  O   UNL     1     -32.288  29.416   6.210  0.00  0.00    -0.480 OA
ATOM     26  H   UNL     1     -32.585  29.858   5.439  0.00  0.00    +0.295 HD
ENDBRANCH  24  25
ENDBRANCH  22  24
ENDBRANCH  21  22
ENDBRANCH  20  21
ENDBRANCH   2  20
BRANCH   2  27
ATOM     27  C   UNL     1     -35.905  25.666   4.795  0.00  0.00    +0.120 C 
BRANCH  27  29
ATOM     28 CL   UNL     1     -35.667  21.025   2.443  0.00  0.00    -0.082 Cl
ATOM     29  C   UNL     1     -35.680  24.183   4.897  0.00  0.00    -0.001 C 
ATOM     30  C   UNL     1     -35.767  23.386   3.756  0.00  0.00    +0.009 C 
ATOM     31  C   UNL     1     -35.381  23.606   6.131  0.00  0.00    -0.003 C 
ATOM     32  C   UNL     1     -35.557  22.010   3.850  0.00  0.00    +0.057 C 
ATOM     33  C   UNL     1     -35.171  22.231   6.224  0.00  0.00    +0.001 C 
ATOM     34  C   UNL     1     -35.258  21.432   5.084  0.00  0.00    +0.011 C 
ENDBRANCH  27  29
ENDBRANCH   2  27
TORSDOF 9
ENDMDL
MODEL 3
REMARK VINA RESULT:      -6.4      3.761      8.580
REMARK  Name = 57520598
REMARK  9 active torsions:
REMARK  status: ('A' for Active; 'I' for Inactive)
REMARK    1  A    between atoms: N_2  and  C_20
REMARK    2  A    between atoms: N_2  and  C_27
REMARK    3  A    between atoms: C_3  and  C_6
REMARK    4  A    between atoms: C_10  and  C_12
REMARK    5  A    between atoms: C_20  and  C_21
REMARK    6  A    between atoms: C_21  and  C_22
REMARK    7  A    between atoms: C_22  and  C_24
REMARK    8  A    between atoms: C_24  and  O_25
REMARK    9  A    between atoms: C_27  and  C_29
REMARK                            x       y       z     vdW  Elec       q    Type
REMARK                         _______ _______ _______ _____ _____    ______ ____
ROOT
ATOM      1  O   UNL     1     -32.718  27.841   5.771  0.00  0.00    -0.273 OA
ATOM      2  N   UNL     1     -31.547  29.664   4.890  0.00  0.00    -0.274 N 
ATOM      3  C   UNL     1     -32.396  28.534   4.794  0.00  0.00    +0.242 C 
ENDROOT
BRANCH   3   6
ATOM      4  O   UNL     1     -35.554  26.994   4.212  0.00  0.00    -0.270 OA
ATOM      5  N   UNL     1     -33.455  26.845   3.279  0.00  0.00    -0.271 N 
ATOM      6  C   UNL     1     -32.918  28.190   3.390  0.00  0.00    +0.131 C 
ATOM      7  C   UNL     1     -31.895  27.768   2.330  0.00  0.00    +0.049 C 
ATOM      8  C   UNL     1     -32.294  26.310   2.592  0.00  0.00    +0.096 C 
ATOM      9  C   UNL     1     -33.909  29.206   2.868  0.00  0.00    +0.029 C 
ATOM     10  C   UNL     1     -34.690  26.357   3.613  0.00  0.00    +0.250 C 
BRANCH  10  12
ATOM     11  S   UNL     1     -35.585  22.997   1.683  0.00  0.00    -0.086 S 
ATOM     12  C   UNL     1     -34.999  24.975   3.199  0.00  0.00    +0.061 C 
ATOM     13  C   UNL     1     -35.062  23.837   4.072  0.00  0.00    +0.011 C 
ATOM     14  C   UNL     1     -35.260  24.658   1.887  0.00  0.00    +0.040 C 
ATOM     15  C   UNL     1     -35.378  22.674   3.365  0.00  0.00    +0.030 C 
ATOM     16  C   UNL     1     -34.859  23.737   5.470  0.00  0.00    +0.001 C 
ATOM     17  C   UNL     1     -35.497  21.428   4.011  0.00  0.00    +0.006 C 
ATOM     18  C   UNL     1     -34.976  22.502   6.114  0.00  0.00    +0.000 C 
ATOM     19  C   UNL     1     -35.292  21.362   5.391  0.00  0.00    +0.001 C 
ENDBRANCH  10  12
ENDBRANCH   3   6
BRANCH   2  20
ATOM     20  C   UNL     1     -31.147  30.496   3.788  0.00  0.00    +0.094 C 
BRANCH  20  21
ATOM     21  C   UNL     1     -31.367  31.983   4.058  0.00  0.00    +0.033 C 
BRANCH  21  22
ATOM     22  C   UNL     1     -31.828  32.779   2.833  0.00  0.00    +0.111 C 
BRANCH  22  24
ATOM     23  O   UNL     1     -30.772  34.889   3.440  0.00  0.00    -0.250 OA
ATOM     24  C   UNL     1     -31.748  34.276   3.029  0.00  0.00    +0.314 C 
BRANCH  24  25
ATOM     25  O   UNL     1     -32.906  34.888   2.664  0.00  0.00    -0.480 OA
ATOM     26  H   UNL     1     -33.006  35.812   2.786  0.00  0.00    +0.295 HD
ENDBRANCH  24  25
ENDBRANCH  22  24
ENDBRANCH  21  22
ENDBRANCH  20  21
ENDBRANCH   2  20
BRANCH   2  27
ATOM     27  C   UNL     1     -31.022  30.034   6.208  0.00  0.00    +0.120 C 
BRANCH  27  29
ATOM     28 CL   UNL     1     -27.603  26.254   7.278  0.00  0.00    -0.082 Cl
ATOM     29  C   UNL     1     -29.592  29.606   6.384  0.00  0.00    -0.001 C 
ATOM     30  C   UNL     1     -29.296  28.283   6.711  0.00  0.00    +0.009 C 
ATOM     31  C   UNL     1     -28.561  30.532   6.220  0.00  0.00    -0.003 C 
ATOM     32  C   UNL     1     -27.968  27.886   6.873  0.00  0.00    +0.057 C 
ATOM     33  C   UNL     1     -27.235  30.134   6.381  0.00  0.00    +0.001 C 
ATOM     34  C   UNL     1     -26.938  28.811   6.708  0.00  0.00    +0.011 C 
ENDBRANCH  27  29
ENDBRANCH   2  27
TORSDOF 9
ENDMDL
MODEL 4
REMARK VINA RESULT:      -6.4      4.603      9.080
REMARK  Name = 57520598
REMARK  9 active torsions:
REMARK  status: ('A' for Active; 'I' for Inactive)
REMARK    1  A    between atoms: N_2  and  C_20
REMARK    2  A    between atoms: N_2  and  C_27
REMARK    3  A    between atoms: C_3  and  C_6
REMARK    4  A    between atoms: C_10  and  C_12
REMARK    5  A    between atoms: C_20  and  C_21
REMARK    6  A    between atoms: C_21  and  C_22
REMARK    7  A    between atoms: C_22  and  C_24
REMARK    8  A    between atoms: C_24  and  O_25
REMARK    9  A    between atoms: C_27  and  C_29
REMARK                            x       y       z     vdW  Elec       q    Type
REMARK                         _______ _______ _______ _____ _____    ______ ____
ROOT
ATOM      1  O   UNL     1     -37.673  24.365   4.089  0.00  0.00    -0.273 OA
ATOM      2  N   UNL     1     -35.864  23.071   3.364  0.00  0.00    -0.274 N 
ATOM      3  C   UNL     1     -37.149  23.651   3.221  0.00  0.00    +0.242 C 
ENDROOT
BRANCH   3   6
ATOM      4  O   UNL     1     -39.024  26.099   1.440  0.00  0.00    -0.270 OA
ATOM      5  N   UNL     1     -39.253  23.852   1.879  0.00  0.00    -0.271 N 
ATOM      6  C   UNL     1     -37.890  23.352   1.908  0.00  0.00    +0.131 C 
ATOM      7  C   UNL     1     -38.497  21.956   1.731  0.00  0.00    +0.049 C 
ATOM      8  C   UNL     1     -39.860  22.553   2.105  0.00  0.00    +0.096 C 
ATOM      9  C   UNL     1     -37.126  23.812   0.686  0.00  0.00    +0.029 C 
ATOM     10  C   UNL     1     -39.729  25.105   1.600  0.00  0.00    +0.250 C 
BRANCH  10  12
ATOM     11  S   UNL     1     -43.554  24.977   0.518  0.00  0.00    -0.086 S 
ATOM     12  C   UNL     1     -41.191  25.252   1.464  0.00  0.00    +0.061 C 
ATOM     13  C   UNL     1     -42.038  26.012   2.339  0.00  0.00    +0.011 C 
ATOM     14  C   UNL     1     -41.883  24.645   0.443  0.00  0.00    +0.040 C 
ATOM     15  C   UNL     1     -43.373  25.947   1.932  0.00  0.00    +0.030 C 
ATOM     16  C   UNL     1     -41.724  26.774   3.491  0.00  0.00    +0.001 C 
ATOM     17  C   UNL     1     -44.392  26.617   2.638  0.00  0.00    +0.006 C 
ATOM     18  C   UNL     1     -42.733  27.439   4.194  0.00  0.00    +0.000 C 
ATOM     19  C   UNL     1     -44.051  27.361   3.770  0.00  0.00    +0.001 C 
ENDBRANCH  10  12
ENDBRANCH   3   6
BRANCH   2  20
ATOM     20  C   UNL     1     -35.218  22.238   2.387  0.00  0.00    +0.094 C 
BRANCH  20  21
ATOM     21  C   UNL     1     -35.174  20.768   2.799  0.00  0.00    +0.033 C 
BRANCH  21  22
ATOM     22  C   UNL     1     -34.777  19.814   1.668  0.00  0.00    +0.111 C 
BRANCH  22  24
ATOM     23  O   UNL     1     -35.889  20.170  -0.469  0.00  0.00    -0.250 OA
ATOM     24  C   UNL     1     -35.861  19.634   0.630  0.00  0.00    +0.314 C 
BRANCH  24  25
ATOM     25  O   UNL     1     -36.817  18.767   1.055  0.00  0.00    -0.480 OA
ATOM     26  H   UNL     1     -37.417  18.393   0.439  0.00  0.00    +0.295 HD
ENDBRANCH  24  25
ENDBRANCH  22  24
ENDBRANCH  21  22
ENDBRANCH  20  21
ENDBRANCH   2  20
BRANCH   2  27
ATOM     27  C   UNL     1     -35.116  23.325   4.600  0.00  0.00    +0.120 C 
BRANCH  27  29
ATOM     28 CL   UNL     1     -32.566  26.970   1.890  0.00  0.00    -0.082 Cl
ATOM     29  C   UNL     1     -34.425  24.660   4.574  0.00  0.00    -0.001 C 
ATOM     30  C   UNL     1     -33.881  25.139   3.383  0.00  0.00    +0.009 C 
ATOM     31  C   UNL     1     -34.330  25.418   5.740  0.00  0.00    -0.003 C 
ATOM     32  C   UNL     1     -33.240  26.379   3.359  0.00  0.00    +0.057 C 
ATOM     33  C   UNL     1     -33.690  26.657   5.716  0.00  0.00    +0.001 C 
ATOM     34  C   UNL     1     -33.145  27.137   4.525  0.00  0.00    +0.011 C 
ENDBRANCH  27  29
ENDBRANCH   2  27
TORSDOF 9
ENDMDL
MODEL 5
REMARK VINA RESULT:      -6.3      5.370      8.382
REMARK  Name = 57520598
REMARK  9 active torsions:
REMARK  status: ('A' for Active; 'I' for Inactive)
REMARK    1  A    between atoms: N_2  and  C_20
REMARK    2  A    between atoms: N_2  and  C_27
REMARK    3  A    between atoms: C_3  and  C_6
REMARK    4  A    between atoms: C_10  and  C_12
REMARK    5  A    between atoms: C_20  and  C_21
REMARK    6  A    between atoms: C_21  and  C_22
REMARK    7  A    between atoms: C_22  and  C_24
REMARK    8  A    between atoms: C_24  and  O_25
REMARK    9  A    between atoms: C_27  and  C_29
REMARK                            x       y       z     vdW  Elec       q    Type
REMARK                         _______ _______ _______ _____ _____    ______ ____
ROOT
ATOM      1  O   UNL     1     -34.360  22.593   0.835  0.00  0.00    -0.273 OA
ATOM      2  N   UNL     1     -36.584  23.180   1.261  0.00  0.00    -0.274 N 
ATOM      3  C   UNL     1     -35.558  22.277   0.886  0.00  0.00    +0.242 C 
ENDROOT
BRANCH   3   6
ATOM      4  O   UNL     1     -34.105  19.370   2.343  0.00  0.00    -0.270 OA
ATOM      5  N   UNL     1     -34.900  19.944   0.260  0.00  0.00    -0.271 N 
ATOM      6  C   UNL     1     -36.002  20.848   0.534  0.00  0.00    +0.131 C 
ATOM      7  C   UNL     1     -36.460  20.574  -0.903  0.00  0.00    +0.049 C 
ATOM      8  C   UNL     1     -35.076  19.974  -1.180  0.00  0.00    +0.096 C 
ATOM      9  C   UNL     1     -36.937  20.254   1.565  0.00  0.00    +0.029 C 
ATOM     10  C   UNL     1     -34.098  19.242   1.121  0.00  0.00    +0.250 C 
BRANCH  10  12
ATOM     11  S   UNL     1     -32.304  16.008  -0.342  0.00  0.00    -0.086 S 
ATOM     12  C   UNL     1     -33.181  18.252   0.525  0.00  0.00    +0.061 C 
ATOM     13  C   UNL     1     -31.853  18.523   0.053  0.00  0.00    +0.011 C 
ATOM     14  C   UNL     1     -33.545  16.935   0.370  0.00  0.00    +0.040 C 
ATOM     15  C   UNL     1     -31.250  17.368  -0.454  0.00  0.00    +0.030 C 
ATOM     16  C   UNL     1     -31.112  19.730   0.030  0.00  0.00    +0.001 C 
ATOM     17  C   UNL     1     -29.942  17.387  -0.975  0.00  0.00    +0.006 C 
ATOM     18  C   UNL     1     -29.813  19.753  -0.487  0.00  0.00    +0.000 C 
ATOM     19  C   UNL     1     -29.236  18.593  -0.983  0.00  0.00    +0.001 C 
ENDBRANCH  10  12
ENDBRANCH   3   6
BRANCH   2  20
ATOM     20  C   UNL     1     -37.984  22.860   1.334  0.00  0.00    +0.094 C 
BRANCH  20  21
ATOM     21  C   UNL     1     -38.876  23.987   0.817  0.00  0.00    +0.033 C 
BRANCH  21  22
ATOM     22  C   UNL     1     -40.014  24.369   1.768  0.00  0.00    +0.111 C 
BRANCH  22  24
ATOM     23  O   UNL     1     -39.550  26.614   2.589  0.00  0.00    -0.250 OA
ATOM     24  C   UNL     1     -39.615  25.409   2.790  0.00  0.00    +0.314 C 
BRANCH  24  25
ATOM     25  O   UNL     1     -39.354  24.845   3.998  0.00  0.00    -0.480 OA
ATOM     26  H   UNL     1     -39.182  25.389   4.742  0.00  0.00    +0.295 HD
ENDBRANCH  24  25
ENDBRANCH  22  24
ENDBRANCH  21  22
ENDBRANCH  20  21
ENDBRANCH   2  20
BRANCH   2  27
ATOM     27  C   UNL     1     -36.212  24.556   1.606  0.00  0.00    +0.120 C 
BRANCH  27  29
ATOM     28 CL   UNL     1     -35.417  22.383   6.272  0.00  0.00    -0.082 Cl
ATOM     29  C   UNL     1     -35.996  24.727   3.083  0.00  0.00    -0.001 C 
ATOM     30  C   UNL     1     -35.826  23.606   3.896  0.00  0.00    +0.009 C 
ATOM     31  C   UNL     1     -35.962  26.005   3.640  0.00  0.00    -0.003 C 
ATOM     32  C   UNL     1     -35.624  23.765   5.268  0.00  0.00    +0.057 C 
ATOM     33  C   UNL     1     -35.760  26.163   5.010  0.00  0.00    +0.001 C 
ATOM     34  C   UNL     1     -35.591  25.043   5.824  0.00  0.00    +0.011 C 
ENDBRANCH  27  29
ENDBRANCH   2  27
TORSDOF 9
ENDMDL
MODEL 6
REMARK VINA RESULT:      -6.3      5.404      9.464
REMARK  Name = 57520598
REMARK  9 active torsions:
REMARK  status: ('A' for Active; 'I' for Inactive)
REMARK    1  A    between atoms: N_2  and  C_20
REMARK    2  A    between atoms: N_2  and  C_27
REMARK    3  A    between atoms: C_3  and  C_6
REMARK    4  A    between atoms: C_10  and  C_12
REMARK    5  A    between atoms: C_20  and  C_21
REMARK    6  A    between atoms: C_21  and  C_22
REMARK    7  A    between atoms: C_22  and  C_24
REMARK    8  A    between atoms: C_24  and  O_25
REMARK    9  A    between atoms: C_27  and  C_29
REMARK                            x       y       z     vdW  Elec       q    Type
REMARK                         _______ _______ _______ _____ _____    ______ ____
ROOT
ATOM      1  O   UNL     1     -37.279  24.721   1.097  0.00  0.00    -0.273 OA
ATOM      2  N   UNL     1     -36.052  22.729   1.122  0.00  0.00    -0.274 N 
ATOM      3  C   UNL     1     -37.229  23.493   0.928  0.00  0.00    +0.242 C 
ENDROOT
BRANCH   3   6
ATOM      4  O   UNL     1     -39.916  24.989  -0.869  0.00  0.00    -0.270 OA
ATOM      5  N   UNL     1     -39.728  23.401   0.786  0.00  0.00    -0.271 N 
ATOM      6  C   UNL     1     -38.481  22.718   0.487  0.00  0.00    +0.131 C 
ATOM      7  C   UNL     1     -38.986  21.595   1.399  0.00  0.00    +0.049 C 
ATOM      8  C   UNL     1     -40.048  22.567   1.930  0.00  0.00    +0.096 C 
ATOM      9  C   UNL     1     -38.433  22.307  -0.968  0.00  0.00    +0.029 C 
ATOM     10  C   UNL     1     -40.377  24.394   0.102  0.00  0.00    +0.250 C 
BRANCH  10  12
ATOM     11  S   UNL     1     -44.289  24.871   0.638  0.00  0.00    -0.086 S 
ATOM     12  C   UNL     1     -41.733  24.749   0.564  0.00  0.00    +0.061 C 
ATOM     13  C   UNL     1     -42.038  25.551   1.715  0.00  0.00    +0.011 C 
ATOM     14  C   UNL     1     -42.855  24.320  -0.103  0.00  0.00    +0.040 C 
ATOM     15  C   UNL     1     -43.419  25.700   1.876  0.00  0.00    +0.030 C 
ATOM     16  C   UNL     1     -41.184  26.174   2.656  0.00  0.00    +0.001 C 
ATOM     17  C   UNL     1     -43.961  26.448   2.939  0.00  0.00    +0.006 C 
ATOM     18  C   UNL     1     -41.718  26.917   3.713  0.00  0.00    +0.000 C 
ATOM     19  C   UNL     1     -43.091  27.052   3.851  0.00  0.00    +0.001 C 
ENDBRANCH  10  12
ENDBRANCH   3   6
BRANCH   2  20
ATOM     20  C   UNL     1     -35.948  21.307   0.939  0.00  0.00    +0.094 C 
BRANCH  20  21
ATOM     21  C   UNL     1     -34.500  20.824   0.870  0.00  0.00    +0.033 C 
BRANCH  21  22
ATOM     22  C   UNL     1     -34.161  19.721   1.878  0.00  0.00    +0.111 C 
BRANCH  22  24
ATOM     23  O   UNL     1     -32.185  18.402   1.343  0.00  0.00    -0.250 OA
ATOM     24  C   UNL     1     -33.394  18.570   1.268  0.00  0.00    +0.314 C 
BRANCH  24  25
ATOM     25  O   UNL     1     -34.223  17.704   0.628  0.00  0.00    -0.480 OA
ATOM     26  H   UNL     1     -34.656  17.966  -0.161  0.00  0.00    +0.295 HD
ENDBRANCH  24  25
ENDBRANCH  22  24
ENDBRANCH  21  22
ENDBRANCH  20  21
ENDBRANCH   2  20
BRANCH   2  27
ATOM     27  C   UNL     1     -34.830  23.422   1.544  0.00  0.00    +0.120 C 
BRANCH  27  29
ATOM     28 CL   UNL     1     -35.633  22.006   6.491  0.00  0.00    -0.082 Cl
ATOM     29  C   UNL     1     -34.871  23.799   2.998  0.00  0.00    -0.001 C 
ATOM     30  C   UNL     1     -35.195  22.839   3.957  0.00  0.00    +0.009 C 
ATOM     31  C   UNL     1     -34.583  25.106   3.388  0.00  0.00    -0.003 C 
ATOM     32  C   UNL     1     -35.232  23.189   5.307  0.00  0.00    +0.057 C 
ATOM     33  C   UNL     1     -34.620  25.455   4.737  0.00  0.00    +0.001 C 
ATOM     34  C   UNL     1     -34.944  24.496   5.698  0.00  0.00    +0.011 C 
ENDBRANCH  27  29
ENDBRANCH   2  27
TORSDOF 9
ENDMDL
MODEL 7
REMARK VINA RESULT:      -6.2      1.108      2.218
REMARK  Name = 57520598
REMARK  9 active torsions:
REMARK  status: ('A' for Active; 'I' for Inactive)
REMARK    1  A    between atoms: N_2  and  C_20
REMARK    2  A    between atoms: N_2  and  C_27
REMARK    3  A    between atoms: C_3  and  C_6
REMARK    4  A    between atoms: C_10  and  C_12
REMARK    5  A    between atoms: C_20  and  C_21
REMARK    6  A    between atoms: C_21  and  C_22
REMARK    7  A    between atoms: C_22  and  C_24
REMARK    8  A    between atoms: C_24  and  O_25
REMARK    9  A    between atoms: C_27  and  C_29
REMARK                            x       y       z     vdW  Elec       q    Type
REMARK                         _______ _______ _______ _____ _____    ______ ____
ROOT
ATOM      1  O   UNL     1     -34.311  26.857   4.968  0.00  0.00    -0.273 OA
ATOM      2  N   UNL     1     -35.925  26.040   3.485  0.00  0.00    -0.274 N 
ATOM      3  C   UNL     1     -34.770  26.789   3.818  0.00  0.00    +0.242 C 
ENDROOT
BRANCH   3   6
ATOM      4  O   UNL     1     -31.236  27.142   3.548  0.00  0.00    -0.270 OA
ATOM      5  N   UNL     1     -33.060  28.470   3.095  0.00  0.00    -0.271 N 
ATOM      6  C   UNL     1     -34.084  27.536   2.662  0.00  0.00    +0.131 C 
ATOM      7  C   UNL     1     -34.807  28.749   2.066  0.00  0.00    +0.049 C 
ATOM      8  C   UNL     1     -33.885  29.648   2.899  0.00  0.00    +0.096 C 
ATOM      9  C   UNL     1     -33.543  26.603   1.601  0.00  0.00    +0.029 C 
ATOM     10  C   UNL     1     -31.751  28.252   3.432  0.00  0.00    +0.250 C 
BRANCH  10  12
ATOM     11  S   UNL     1     -29.618  31.281   4.878  0.00  0.00    -0.086 S 
ATOM     12  C   UNL     1     -30.908  29.443   3.648  0.00  0.00    +0.061 C 
ATOM     13  C   UNL     1     -30.322  30.249   2.614  0.00  0.00    +0.011 C 
ATOM     14  C   UNL     1     -30.605  29.892   4.912  0.00  0.00    +0.040 C 
ATOM     15  C   UNL     1     -29.581  31.304   3.154  0.00  0.00    +0.030 C 
ATOM     16  C   UNL     1     -30.388  30.129   1.205  0.00  0.00    +0.001 C 
ATOM     17  C   UNL     1     -28.913  32.231   2.331  0.00  0.00    +0.006 C 
ATOM     18  C   UNL     1     -29.726  31.047   0.385  0.00  0.00    +0.000 C 
ATOM     19  C   UNL     1     -28.998  32.087   0.944  0.00  0.00    +0.001 C 
ENDBRANCH  10  12
ENDBRANCH   3   6
BRANCH   2  20
ATOM     20  C   UNL     1     -36.492  25.932   2.169  0.00  0.00    +0.094 C 
BRANCH  20  21
ATOM     21  C   UNL     1     -38.015  26.056   2.168  0.00  0.00    +0.033 C 
BRANCH  21  22
ATOM     22  C   UNL     1     -38.740  24.838   1.587  0.00  0.00    +0.111 C 
BRANCH  22  24
ATOM     23  O   UNL     1     -39.876  24.542   3.721  0.00  0.00    -0.250 OA
ATOM     24  C   UNL     1     -39.677  24.175   2.571  0.00  0.00    +0.314 C 
BRANCH  24  25
ATOM     25  O   UNL     1     -40.311  23.110   2.014  0.00  0.00    -0.480 OA
ATOM     26  H   UNL     1     -39.871  22.285   1.948  0.00  0.00    +0.295 HD
ENDBRANCH  24  25
ENDBRANCH  22  24
ENDBRANCH  21  22
ENDBRANCH  20  21
ENDBRANCH   2  20
BRANCH   2  27
ATOM     27  C   UNL     1     -36.616  25.310   4.553  0.00  0.00    +0.120 C 
BRANCH  27  29
ATOM     28 CL   UNL     1     -35.684  20.591   2.555  0.00  0.00    -0.082 Cl
ATOM     29  C   UNL     1     -36.065  23.923   4.734  0.00  0.00    -0.001 C 
ATOM     30  C   UNL     1     -36.123  23.008   3.683  0.00  0.00    +0.009 C 
ATOM     31  C   UNL     1     -35.494  23.553   5.951  0.00  0.00    -0.003 C 
ATOM     32  C   UNL     1     -35.610  21.721   3.850  0.00  0.00    +0.057 C 
ATOM     33  C   UNL     1     -34.982  22.268   6.118  0.00  0.00    +0.001 C 
ATOM     34  C   UNL     1     -35.039  21.351   5.068  0.00  0.00    +0.011 C 
ENDBRANCH  27  29
ENDBRANCH   2  27
TORSDOF 9
ENDMDL
MODEL 8
REMARK VINA RESULT:      -6.2     11.071     12.701
REMARK  Name = 57520598
REMARK  9 active torsions:
REMARK  status: ('A' for Active; 'I' for Inactive)
REMARK    1  A    between atoms: N_2  and  C_20
REMARK    2  A    between atoms: N_2  and  C_27
REMARK    3  A    between atoms: C_3  and  C_6
REMARK    4  A    between atoms: C_10  and  C_12
REMARK    5  A    between atoms: C_20  and  C_21
REMARK    6  A    between atoms: C_21  and  C_22
REMARK    7  A    between atoms: C_22  and  C_24
REMARK    8  A    between atoms: C_24  and  O_25
REMARK    9  A    between atoms: C_27  and  C_29
REMARK                            x       y       z     vdW  Elec       q    Type
REMARK                         _______ _______ _______ _____ _____    ______ ____
ROOT
ATOM      1  O   UNL     1     -43.341  29.825   2.611  0.00  0.00    -0.273 OA
ATOM      2  N   UNL     1     -44.977  29.389   4.224  0.00  0.00    -0.274 N 
ATOM      3  C   UNL     1     -44.394  30.148   3.180  0.00  0.00    +0.242 C 
ENDROOT
BRANCH   3   6
ATOM      4  O   UNL     1     -44.026  31.673  -0.017  0.00  0.00    -0.270 OA
ATOM      5  N   UNL     1     -44.292  32.424   2.142  0.00  0.00    -0.271 N 
ATOM      6  C   UNL     1     -45.142  31.426   2.766  0.00  0.00    +0.131 C 
ATOM      7  C   UNL     1     -45.419  32.475   3.849  0.00  0.00    +0.049 C 
ATOM      8  C   UNL     1     -44.220  33.271   3.318  0.00  0.00    +0.096 C 
ATOM      9  C   UNL     1     -46.354  31.144   1.907  0.00  0.00    +0.029 C 
ATOM     10  C   UNL     1     -43.856  32.529   0.847  0.00  0.00    +0.250 C 
BRANCH  10  12
ATOM     11  S   UNL     1     -41.230  35.393   0.000  0.00  0.00    -0.086 S 
ATOM     12  C   UNL     1     -43.154  33.772   0.476  0.00  0.00    +0.061 C 
ATOM     13  C   UNL     1     -43.784  35.005   0.098  0.00  0.00    +0.011 C 
ATOM     14  C   UNL     1     -41.781  33.848   0.463  0.00  0.00    +0.040 C 
ATOM     15  C   UNL     1     -42.836  35.990  -0.192  0.00  0.00    +0.030 C 
ATOM     16  C   UNL     1     -45.155  35.341  -0.015  0.00  0.00    +0.001 C 
ATOM     17  C   UNL     1     -43.218  37.287  -0.587  0.00  0.00    +0.006 C 
ATOM     18  C   UNL     1     -45.538  36.627  -0.407  0.00  0.00    +0.000 C 
ATOM     19  C   UNL     1     -44.579  37.588  -0.689  0.00  0.00    +0.001 C 
ENDBRANCH  10  12
ENDBRANCH   3   6
BRANCH   2  20
ATOM     20  C   UNL     1     -46.195  29.723   4.912  0.00  0.00    +0.094 C 
BRANCH  20  21
ATOM     21  C   UNL     1     -46.058  29.640   6.431  0.00  0.00    +0.033 C 
BRANCH  21  22
ATOM     22  C   UNL     1     -45.418  30.877   7.070  0.00  0.00    +0.111 C 
BRANCH  22  24
ATOM     23  O   UNL     1     -43.406  30.139   8.227  0.00  0.00    -0.250 OA
ATOM     24  C   UNL     1     -43.930  30.732   7.294  0.00  0.00    +0.314 C 
BRANCH  24  25
ATOM     25  O   UNL     1     -43.218  31.329   6.302  0.00  0.00    -0.480 OA
ATOM     26  H   UNL     1     -42.599  30.830   5.805  0.00  0.00    +0.295 HD
ENDBRANCH  24  25
ENDBRANCH  22  24
ENDBRANCH  21  22
ENDBRANCH  20  21
ENDBRANCH   2  20
BRANCH   2  27
ATOM     27  C   UNL     1     -44.303  28.160   4.657  0.00  0.00    +0.120 C 
BRANCH  27  29
ATOM     28 CL   UNL     1     -47.698  24.254   5.234  0.00  0.00    -0.082 Cl
ATOM     29  C   UNL     1     -44.956  26.931   4.091  0.00  0.00    -0.001 C 
ATOM     30  C   UNL     1     -45.912  26.244   4.838  0.00  0.00    +0.009 C 
ATOM     31  C   UNL     1     -44.607  26.479   2.818  0.00  0.00    -0.003 C 
ATOM     32  C   UNL     1     -46.520  25.103   4.312  0.00  0.00    +0.057 C 
ATOM     33  C   UNL     1     -45.214  25.339   2.293  0.00  0.00    +0.001 C 
ATOM     34  C   UNL     1     -46.171  24.651   3.040  0.00  0.00    +0.011 C 
ENDBRANCH  27  29
ENDBRANCH   2  27
TORSDOF 9
ENDMDL
MODEL 9
REMARK VINA RESULT:      -6.2      4.900      9.472
REMARK  Name = 57520598
REMARK  9 active torsions:
REMARK  status: ('A' for Active; 'I' for Inactive)
REMARK    1  A    between atoms: N_2  and  C_20
REMARK    2  A    between atoms: N_2  and  C_27
REMARK    3  A    between atoms: C_3  and  C_6
REMARK    4  A    between atoms: C_10  and  C_12
REMARK    5  A    between atoms: C_20  and  C_21
REMARK    6  A    between atoms: C_21  and  C_22
REMARK    7  A    between atoms: C_22  and  C_24
REMARK    8  A    between atoms: C_24  and  O_25
REMARK    9  A    between atoms: C_27  and  C_29
REMARK                            x       y       z     vdW  Elec       q    Type
REMARK                         _______ _______ _______ _____ _____    ______ ____
ROOT
ATOM      1  O   UNL     1     -37.190  25.930   1.690  0.00  0.00    -0.273 OA
ATOM      2  N   UNL     1     -36.151  23.891   1.204  0.00  0.00    -0.274 N 
ATOM      3  C   UNL     1     -37.265  24.763   1.276  0.00  0.00    +0.242 C 
ENDROOT
BRANCH   3   6
ATOM      4  O   UNL     1     -40.075  26.797   0.468  0.00  0.00    -0.270 OA
ATOM      5  N   UNL     1     -39.760  24.759   1.489  0.00  0.00    -0.271 N 
ATOM      6  C   UNL     1     -38.612  24.190   0.806  0.00  0.00    +0.131 C 
ATOM      7  C   UNL     1     -39.055  22.841   1.383  0.00  0.00    +0.049 C 
ATOM      8  C   UNL     1     -39.971  23.607   2.346  0.00  0.00    +0.096 C 
ATOM      9  C   UNL     1     -38.790  24.267  -0.694  0.00  0.00    +0.029 C 
ATOM     10  C   UNL     1     -40.434  25.929   1.260  0.00  0.00    +0.250 C 
BRANCH  10  12
ATOM     11  S   UNL     1     -43.298  26.995   3.805  0.00  0.00    -0.086 S 
ATOM     12  C   UNL     1     -41.688  26.137   2.009  0.00  0.00    +0.061 C 
ATOM     13  C   UNL     1     -42.964  25.571   1.672  0.00  0.00    +0.011 C 
ATOM     14  C   UNL     1     -41.732  26.924   3.135  0.00  0.00    +0.040 C 
ATOM     15  C   UNL     1     -43.947  25.964   2.584  0.00  0.00    +0.030 C 
ATOM     16  C   UNL     1     -43.341  24.720   0.605  0.00  0.00    +0.001 C 
ATOM     17  C   UNL     1     -45.282  25.532   2.460  0.00  0.00    +0.006 C 
ATOM     18  C   UNL     1     -44.665  24.290   0.478  0.00  0.00    +0.000 C 
ATOM     19  C   UNL     1     -45.623  24.692   1.397  0.00  0.00    +0.001 C 
ENDBRANCH  10  12
ENDBRANCH   3   6
BRANCH   2  20
ATOM     20  C   UNL     1     -36.190  22.534   0.732  0.00  0.00    +0.094 C 
BRANCH  20  21
ATOM     21  C   UNL     1     -34.815  21.868   0.730  0.00  0.00    +0.033 C 
BRANCH  21  22
ATOM     22  C   UNL     1     -34.778  20.509   1.436  0.00  0.00    +0.111 C 
BRANCH  22  24
ATOM     23  O   UNL     1     -36.595  19.235   0.431  0.00  0.00    -0.250 OA
ATOM     24  C   UNL     1     -36.105  19.785   1.408  0.00  0.00    +0.314 C 
BRANCH  24  25
ATOM     25  O   UNL     1     -36.700  19.791   2.630  0.00  0.00    -0.480 OA
ATOM     26  H   UNL     1     -37.603  19.553   2.712  0.00  0.00    +0.295 HD
ENDBRANCH  24  25
ENDBRANCH  22  24
ENDBRANCH  21  22
ENDBRANCH  20  21
ENDBRANCH   2  20
BRANCH   2  27
ATOM     27  C   UNL     1     -34.843  24.390   1.641  0.00  0.00    +0.120 C 
BRANCH  27  29
ATOM     28 CL   UNL     1     -35.478  22.382   6.404  0.00  0.00    -0.082 Cl
ATOM     29  C   UNL     1     -34.780  24.572   3.131  0.00  0.00    -0.001 C 
ATOM     30  C   UNL     1     -35.118  23.515   3.976  0.00  0.00    +0.009 C 
ATOM     31  C   UNL     1     -34.381  25.796   3.668  0.00  0.00    -0.003 C 
ATOM     32  C   UNL     1     -35.058  23.684   5.360  0.00  0.00    +0.057 C 
ATOM     33  C   UNL     1     -34.321  25.963   5.051  0.00  0.00    +0.001 C 
ATOM     34  C   UNL     1     -34.660  24.908   5.898  0.00  0.00    +0.011 C 
ENDBRANCH  27  29
ENDBRANCH   2  27
TORSDOF 9
ENDMDL
