MODEL 1
REMARK VINA RESULT:      -6.7      0.000      0.000
REMARK  Name = 194707
REMARK  8 active torsions:
REMARK  status: ('A' for Active; 'I' for Inactive)
REMARK    1  A    between atoms: C_5  and  C_25
REMARK    2  A    between atoms: C_7  and  C_12
REMARK    3  A    between atoms: C_8  and  C_21
REMARK    4  A    between atoms: C_21  and  C_23
REMARK    5  A    between atoms: C_25  and  C_26
REMARK    6  A    between atoms: C_26  and  C_27
REMARK    7  A    between atoms: C_27  and  N_28
REMARK    8  A    between atoms: N_28  and  C_31
REMARK                            x       y       z     vdW  Elec       q    Type
REMARK                         _______ _______ _______ _____ _____    ______ ____
ROOT
ATOM      1  O   UNL     1     -33.878  28.413   3.525  0.00  0.00    -0.275 OA
ATOM      2  N   UNL     1     -34.391  26.481   4.753  0.00  0.00    -0.268 N 
ATOM      3  N   UNL     1     -37.265  24.359   4.015  0.00  0.00    -0.406 NA
ATOM      4  N   UNL     1     -36.039  26.699   3.073  0.00  0.00    -0.247 NA
ATOM      5  C   UNL     1     -36.151  24.859   4.585  0.00  0.00    +0.140 C 
ATOM      6  C   UNL     1     -35.561  26.004   4.116  0.00  0.00    +0.156 C 
ATOM      7  C   UNL     1     -37.755  25.049   2.966  0.00  0.00    +0.134 C 
ATOM      8  C   UNL     1     -33.650  27.615   4.429  0.00  0.00    +0.227 C 
ATOM      9  C   UNL     1     -37.152  26.199   2.503  0.00  0.00    +0.185 C 
ATOM     10  H   UNL     1     -34.063  25.951   5.514  0.00  0.00    +0.156 HD
ENDROOT
BRANCH   7  12
ATOM     11  N   UNL     1     -40.386  23.018   1.603  0.00  0.00    -0.312 N 
ATOM     12  C   UNL     1     -38.941  24.531   2.353  0.00  0.00    +0.043 C 
ATOM     13  C   UNL     1     -40.052  25.216   1.783  0.00  0.00    +0.017 C 
ATOM     14  C   UNL     1     -40.942  24.245   1.321  0.00  0.00    +0.048 C 
ATOM     15  C   UNL     1     -39.178  23.180   2.226  0.00  0.00    +0.064 C 
ATOM     16  C   UNL     1     -40.384  26.575   1.616  0.00  0.00    +0.001 C 
ATOM     17  C   UNL     1     -42.154  24.566   0.697  0.00  0.00    +0.015 C 
ATOM     18  C   UNL     1     -41.592  26.912   0.994  0.00  0.00    +0.000 C 
ATOM     19  C   UNL     1     -42.462  25.921   0.544  0.00  0.00    +0.001 C 
ATOM     20  H   UNL     1     -40.797  22.149   1.388  0.00  0.00    +0.152 HD
ENDBRANCH   7  12
BRANCH   8  21
ATOM     21  C   UNL     1     -32.431  27.766   5.347  0.00  0.00    +0.077 C 
ATOM     22  C   UNL     1     -32.771  27.168   6.714  0.00  0.00    +0.010 C 
BRANCH  21  23
ATOM     23  C   UNL     1     -31.997  29.232   5.507  0.00  0.00    +0.009 C 
ATOM     24  C   UNL     1     -31.512  29.545   6.917  0.00  0.00    +0.001 C 
ENDBRANCH  21  23
ENDBRANCH   8  21
BRANCH   5  25
ATOM     25  C   UNL     1     -35.605  24.097   5.744  0.00  0.00    +0.064 C 
BRANCH  25  26
ATOM     26  C   UNL     1     -34.708  22.929   5.302  0.00  0.00    +0.034 C 
BRANCH  26  27
ATOM     27  C   UNL     1     -35.444  21.595   5.266  0.00  0.00    +0.129 C 
BRANCH  27  28
ATOM     28  N   UNL     1     -35.105  20.873   4.039  0.00  0.00    -0.240 NA
BRANCH  28  31
ATOM     29  N   UNL     1     -35.652  22.216   2.124  0.00  0.00    -0.370 N 
ATOM     30  N   UNL     1     -36.848  20.337   2.608  0.00  0.00    -0.370 N 
ATOM     31  C   UNL     1     -35.805  21.151   2.984  0.00  0.00    +0.189 C 
ATOM     32  H   UNL     1     -34.940  22.876   2.281  0.00  0.00    +0.159 HD
ATOM     33  H   UNL     1     -36.255  22.316   1.353  0.00  0.00    +0.159 HD
ATOM     34  H   UNL     1     -37.065  19.537   3.140  0.00  0.00    +0.159 HD
ATOM     35  H   UNL     1     -37.376  20.552   1.807  0.00  0.00    +0.159 HD
ENDBRANCH  28  31
ENDBRANCH  27  28
ENDBRANCH  26  27
ENDBRANCH  25  26
ENDBRANCH   5  25
TORSDOF 8
ENDMDL
MODEL 2
REMARK VINA RESULT:      -6.6      1.927      7.555
REMARK  Name = 194707
REMARK  8 active torsions:
REMARK  status: ('A' for Active; 'I' for Inactive)
REMARK    1  A    between atoms: C_5  and  C_25
REMARK    2  A    between atoms: C_7  and  C_12
REMARK    3  A    between atoms: C_8  and  C_21
REMARK    4  A    between atoms: C_21  and  C_23
REMARK    5  A    between atoms: C_25  and  C_26
REMARK    6  A    between atoms: C_26  and  C_27
REMARK    7  A    between atoms: C_27  and  N_28
REMARK    8  A    between atoms: N_28  and  C_31
REMARK                            x       y       z     vdW  Elec       q    Type
REMARK                         _______ _______ _______ _____ _____    ______ ____
ROOT
ATOM      1  O   UNL     1     -38.432  26.947   1.729  0.00  0.00    -0.275 OA
ATOM      2  N   UNL     1     -37.482  25.855   3.574  0.00  0.00    -0.268 N 
ATOM      3  N   UNL     1     -34.021  26.348   4.614  0.00  0.00    -0.406 NA
ATOM      4  N   UNL     1     -35.804  27.229   2.637  0.00  0.00    -0.247 NA
ATOM      5  C   UNL     1     -35.294  25.910   4.556  0.00  0.00    +0.140 C 
ATOM      6  C   UNL     1     -36.156  26.348   3.585  0.00  0.00    +0.156 C 
ATOM      7  C   UNL     1     -33.655  27.234   3.668  0.00  0.00    +0.134 C 
ATOM      8  C   UNL     1     -38.500  26.174   2.679  0.00  0.00    +0.227 C 
ATOM      9  C   UNL     1     -34.531  27.668   2.696  0.00  0.00    +0.185 C 
ATOM     10  H   UNL     1     -37.712  25.210   4.281  0.00  0.00    +0.156 HD
ENDROOT
BRANCH   7  12
ATOM     11  N   UNL     1     -30.226  28.091   3.027  0.00  0.00    -0.312 N 
ATOM     12  C   UNL     1     -32.303  27.706   3.715  0.00  0.00    +0.043 C 
ATOM     13  C   UNL     1     -31.610  28.399   4.749  0.00  0.00    +0.017 C 
ATOM     14  C   UNL     1     -30.311  28.628   4.292  0.00  0.00    +0.048 C 
ATOM     15  C   UNL     1     -31.423  27.532   2.671  0.00  0.00    +0.064 C 
ATOM     16  C   UNL     1     -31.968  28.853   6.034  0.00  0.00    +0.001 C 
ATOM     17  C   UNL     1     -29.346  29.292   5.059  0.00  0.00    +0.015 C 
ATOM     18  C   UNL     1     -31.014  29.519   6.812  0.00  0.00    +0.000 C 
ATOM     19  C   UNL     1     -29.725  29.734   6.330  0.00  0.00    +0.001 C 
ATOM     20  H   UNL     1     -29.420  28.107   2.462  0.00  0.00    +0.152 HD
ENDBRANCH   7  12
BRANCH   8  21
ATOM     21  C   UNL     1     -39.802  25.445   3.031  0.00  0.00    +0.077 C 
ATOM     22  C   UNL     1     -39.803  24.082   2.336  0.00  0.00    +0.010 C 
BRANCH  21  23
ATOM     23  C   UNL     1     -41.049  26.245   2.623  0.00  0.00    +0.009 C 
ATOM     24  C   UNL     1     -41.831  26.759   3.825  0.00  0.00    +0.001 C 
ENDBRANCH  21  23
ENDBRANCH   8  21
BRANCH   5  25
ATOM     25  C   UNL     1     -35.703  24.931   5.604  0.00  0.00    +0.064 C 
BRANCH  25  26
ATOM     26  C   UNL     1     -34.848  23.652   5.570  0.00  0.00    +0.034 C 
BRANCH  26  27
ATOM     27  C   UNL     1     -35.632  22.426   5.118  0.00  0.00    +0.129 C 
BRANCH  27  28
ATOM     28  N   UNL     1     -36.704  22.828   4.206  0.00  0.00    -0.240 NA
BRANCH  28  31
ATOM     29  N   UNL     1     -35.898  23.028   1.952  0.00  0.00    -0.370 N 
ATOM     30  N   UNL     1     -37.246  21.292   2.557  0.00  0.00    -0.370 N 
ATOM     31  C   UNL     1     -36.602  22.434   2.975  0.00  0.00    +0.189 C 
ATOM     32  H   UNL     1     -35.391  23.855   2.120  0.00  0.00    +0.159 HD
ATOM     33  H   UNL     1     -35.901  22.626   1.054  0.00  0.00    +0.159 HD
ATOM     34  H   UNL     1     -37.787  20.771   3.193  0.00  0.00    +0.159 HD
ATOM     35  H   UNL     1     -37.166  20.997   1.622  0.00  0.00    +0.159 HD
ENDBRANCH  28  31
ENDBRANCH  27  28
ENDBRANCH  26  27
ENDBRANCH  25  26
ENDBRANCH   5  25
TORSDOF 8
ENDMDL
MODEL 3
REMARK VINA RESULT:      -6.6      4.252      8.946
REMARK  Name = 194707
REMARK  8 active torsions:
REMARK  status: ('A' for Active; 'I' for Inactive)
REMARK    1  A    between atoms: C_5  and  C_25
REMARK    2  A    between atoms: C_7  and  C_12
REMARK    3  A    between atoms: C_8  and  C_21
REMARK    4  A    between atoms: C_21  and  C_23
REMARK    5  A    between atoms: C_25  and  C_26
REMARK    6  A    between atoms: C_26  and  C_27
REMARK    7  A    between atoms: C_27  and  N_28
REMARK    8  A    between atoms: N_28  and  C_31
REMARK                            x       y       z     vdW  Elec       q    Type
REMARK                         _______ _______ _______ _____ _____    ______ ____
ROOT
ATOM      1  O   UNL     1     -39.122  20.111  -0.412  0.00  0.00    -0.275 OA
ATOM      2  N   UNL     1     -37.934  21.106   1.348  0.00  0.00    -0.268 N 
ATOM      3  N   UNL     1     -34.410  20.429   2.004  0.00  0.00    -0.406 NA
ATOM      4  N   UNL     1     -36.430  19.686   0.206  0.00  0.00    -0.247 NA
ATOM      5  C   UNL     1     -35.660  20.924   2.093  0.00  0.00    +0.140 C 
ATOM      6  C   UNL     1     -36.639  20.553   1.208  0.00  0.00    +0.156 C 
ATOM      7  C   UNL     1     -34.187  19.557   1.002  0.00  0.00    +0.134 C 
ATOM      8  C   UNL     1     -39.053  20.859   0.558  0.00  0.00    +0.227 C 
ATOM      9  C   UNL     1     -35.179  19.192   0.117  0.00  0.00    +0.185 C 
ATOM     10  H   UNL     1     -38.058  21.739   2.091  0.00  0.00    +0.156 HD
ENDROOT
BRANCH   7  12
ATOM     11  N   UNL     1     -31.195  17.576   1.158  0.00  0.00    -0.312 N 
ATOM     12  C   UNL     1     -32.863  19.021   0.898  0.00  0.00    +0.043 C 
ATOM     13  C   UNL     1     -31.698  19.567   0.287  0.00  0.00    +0.017 C 
ATOM     14  C   UNL     1     -30.667  18.642   0.465  0.00  0.00    +0.048 C 
ATOM     15  C   UNL     1     -32.519  17.795   1.424  0.00  0.00    +0.064 C 
ATOM     16  C   UNL     1     -31.423  20.765  -0.400  0.00  0.00    +0.001 C 
ATOM     17  C   UNL     1     -29.369  18.856  -0.013  0.00  0.00    +0.015 C 
ATOM     18  C   UNL     1     -30.130  20.994  -0.885  0.00  0.00    +0.000 C 
ATOM     19  C   UNL     1     -29.121  20.052  -0.694  0.00  0.00    +0.001 C 
ATOM     20  H   UNL     1     -30.691  16.772   1.424  0.00  0.00    +0.152 HD
ENDBRANCH   7  12
BRANCH   8  21
ATOM     21  C   UNL     1     -40.259  21.683   1.025  0.00  0.00    +0.077 C 
ATOM     22  C   UNL     1     -40.950  22.278  -0.203  0.00  0.00    +0.010 C 
BRANCH  21  23
ATOM     23  C   UNL     1     -39.860  22.804   1.999  0.00  0.00    +0.009 C 
ATOM     24  C   UNL     1     -40.268  24.183   1.499  0.00  0.00    +0.001 C 
ENDBRANCH  21  23
ENDBRANCH   8  21
BRANCH   5  25
ATOM     25  C   UNL     1     -35.911  21.890   3.200  0.00  0.00    +0.064 C 
BRANCH  25  26
ATOM     26  C   UNL     1     -35.123  23.199   3.019  0.00  0.00    +0.034 C 
BRANCH  26  27
ATOM     27  C   UNL     1     -34.809  23.891   4.341  0.00  0.00    +0.129 C 
BRANCH  27  28
ATOM     28  N   UNL     1     -36.041  24.083   5.106  0.00  0.00    -0.240 NA
BRANCH  28  31
ATOM     29  N   UNL     1     -36.356  26.465   5.151  0.00  0.00    -0.370 N 
ATOM     30  N   UNL     1     -37.945  25.097   4.257  0.00  0.00    -0.370 N 
ATOM     31  C   UNL     1     -36.714  25.166   4.866  0.00  0.00    +0.189 C 
ATOM     32  H   UNL     1     -35.495  26.653   5.589  0.00  0.00    +0.159 HD
ATOM     33  H   UNL     1     -36.961  27.205   4.917  0.00  0.00    +0.159 HD
ATOM     34  H   UNL     1     -38.320  24.224   4.000  0.00  0.00    +0.159 HD
ATOM     35  H   UNL     1     -38.452  25.921   4.077  0.00  0.00    +0.159 HD
ENDBRANCH  28  31
ENDBRANCH  27  28
ENDBRANCH  26  27
ENDBRANCH  25  26
ENDBRANCH   5  25
TORSDOF 8
ENDMDL
MODEL 4
REMARK VINA RESULT:      -6.4      2.902      5.932
REMARK  Name = 194707
REMARK  8 active torsions:
REMARK  status: ('A' for Active; 'I' for Inactive)
REMARK    1  A    between atoms: C_5  and  C_25
REMARK    2  A    between atoms: C_7  and  C_12
REMARK    3  A    between atoms: C_8  and  C_21
REMARK    4  A    between atoms: C_21  and  C_23
REMARK    5  A    between atoms: C_25  and  C_26
REMARK    6  A    between atoms: C_26  and  C_27
REMARK    7  A    between atoms: C_27  and  N_28
REMARK    8  A    between atoms: N_28  and  C_31
REMARK                            x       y       z     vdW  Elec       q    Type
REMARK                         _______ _______ _______ _____ _____    ______ ____
ROOT
ATOM      1  O   UNL     1     -34.724  19.998  -0.272  0.00  0.00    -0.275 OA
ATOM      2  N   UNL     1     -34.774  20.497   2.019  0.00  0.00    -0.268 N 
ATOM      3  N   UNL     1     -37.158  22.830   3.496  0.00  0.00    -0.406 NA
ATOM      4  N   UNL     1     -36.488  21.758   0.992  0.00  0.00    -0.247 NA
ATOM      5  C   UNL     1     -36.155  21.942   3.346  0.00  0.00    +0.140 C 
ATOM      6  C   UNL     1     -35.837  21.426   2.117  0.00  0.00    +0.156 C 
ATOM      7  C   UNL     1     -37.821  23.171   2.374  0.00  0.00    +0.134 C 
ATOM      8  C   UNL     1     -34.302  19.864   0.872  0.00  0.00    +0.227 C 
ATOM      9  C   UNL     1     -37.492  22.644   1.143  0.00  0.00    +0.185 C 
ATOM     10  H   UNL     1     -34.315  20.271   2.859  0.00  0.00    +0.156 HD
ENDROOT
BRANCH   7  12
ATOM     11  N   UNL     1     -40.037  25.818   3.367  0.00  0.00    -0.312 N 
ATOM     12  C   UNL     1     -38.887  24.116   2.518  0.00  0.00    +0.043 C 
ATOM     13  C   UNL     1     -40.084  24.270   1.761  0.00  0.00    +0.017 C 
ATOM     14  C   UNL     1     -40.785  25.343   2.314  0.00  0.00    +0.048 C 
ATOM     15  C   UNL     1     -38.890  25.083   3.499  0.00  0.00    +0.064 C 
ATOM     16  C   UNL     1     -40.637  23.596   0.655  0.00  0.00    +0.001 C 
ATOM     17  C   UNL     1     -42.019  25.777   1.814  0.00  0.00    +0.015 C 
ATOM     18  C   UNL     1     -41.869  24.019   0.143  0.00  0.00    +0.000 C 
ATOM     19  C   UNL     1     -42.547  25.093   0.714  0.00  0.00    +0.001 C 
ATOM     20  H   UNL     1     -40.291  26.575   3.943  0.00  0.00    +0.152 HD
ENDBRANCH   7  12
BRANCH   8  21
ATOM     21  C   UNL     1     -33.152  18.903   1.198  0.00  0.00    +0.077 C 
ATOM     22  C   UNL     1     -31.864  19.456   0.585  0.00  0.00    +0.010 C 
BRANCH  21  23
ATOM     23  C   UNL     1     -33.414  17.480   0.679  0.00  0.00    +0.009 C 
ATOM     24  C   UNL     1     -32.172  16.844   0.070  0.00  0.00    +0.001 C 
ENDBRANCH  21  23
ENDBRANCH   8  21
BRANCH   5  25
ATOM     25  C   UNL     1     -35.421  21.560   4.586  0.00  0.00    +0.064 C 
BRANCH  25  26
ATOM     26  C   UNL     1     -35.281  22.738   5.565  0.00  0.00    +0.034 C 
BRANCH  26  27
ATOM     27  C   UNL     1     -34.294  23.796   5.085  0.00  0.00    +0.129 C 
BRANCH  27  28
ATOM     28  N   UNL     1     -34.661  25.103   5.633  0.00  0.00    -0.240 NA
BRANCH  28  31
ATOM     29  N   UNL     1     -36.459  26.680   5.409  0.00  0.00    -0.370 N 
ATOM     30  N   UNL     1     -35.489  25.751   3.567  0.00  0.00    -0.370 N 
ATOM     31  C   UNL     1     -35.497  25.813   4.941  0.00  0.00    +0.189 C 
ATOM     32  H   UNL     1     -36.569  26.816   6.377  0.00  0.00    +0.159 HD
ATOM     33  H   UNL     1     -37.037  27.163   4.775  0.00  0.00    +0.159 HD
ATOM     34  H   UNL     1     -34.847  25.166   3.104  0.00  0.00    +0.159 HD
ATOM     35  H   UNL     1     -36.126  26.291   3.047  0.00  0.00    +0.159 HD
ENDBRANCH  28  31
ENDBRANCH  27  28
ENDBRANCH  26  27
ENDBRANCH  25  26
ENDBRANCH   5  25
TORSDOF 8
ENDMDL
MODEL 5
REMARK VINA RESULT:      -6.4      3.723      8.587
REMARK  Name = 194707
REMARK  8 active torsions:
REMARK  status: ('A' for Active; 'I' for Inactive)
REMARK    1  A    between atoms: C_5  and  C_25
REMARK    2  A    between atoms: C_7  and  C_12
REMARK    3  A    between atoms: C_8  and  C_21
REMARK    4  A    between atoms: C_21  and  C_23
REMARK    5  A    between atoms: C_25  and  C_26
REMARK    6  A    between atoms: C_26  and  C_27
REMARK    7  A    between atoms: C_27  and  N_28
REMARK    8  A    between atoms: N_28  and  C_31
REMARK                            x       y       z     vdW  Elec       q    Type
REMARK                         _______ _______ _______ _____ _____    ______ ____
ROOT
ATOM      1  O   UNL     1     -36.007  17.996  -0.086  0.00  0.00    -0.275 OA
ATOM      2  N   UNL     1     -37.764  19.471   0.402  0.00  0.00    -0.268 N 
ATOM      3  N   UNL     1     -37.434  22.259   2.730  0.00  0.00    -0.406 NA
ATOM      4  N   UNL     1     -35.896  20.167   1.670  0.00  0.00    -0.247 NA
ATOM      5  C   UNL     1     -37.941  21.381   1.843  0.00  0.00    +0.140 C 
ATOM      6  C   UNL     1     -37.179  20.362   1.332  0.00  0.00    +0.156 C 
ATOM      7  C   UNL     1     -36.146  22.074   3.078  0.00  0.00    +0.134 C 
ATOM      8  C   UNL     1     -37.163  18.383  -0.226  0.00  0.00    +0.227 C 
ATOM      9  C   UNL     1     -35.390  21.046   2.557  0.00  0.00    +0.185 C 
ATOM     10  H   UNL     1     -38.706  19.638   0.172  0.00  0.00    +0.156 HD
ENDROOT
BRANCH   7  12
ATOM     11  N   UNL     1     -35.035  23.840   6.002  0.00  0.00    -0.312 N 
ATOM     12  C   UNL     1     -35.595  22.998   4.023  0.00  0.00    +0.043 C 
ATOM     13  C   UNL     1     -34.932  24.241   3.810  0.00  0.00    +0.017 C 
ATOM     14  C   UNL     1     -34.592  24.747   5.067  0.00  0.00    +0.048 C 
ATOM     15  C   UNL     1     -35.642  22.781   5.382  0.00  0.00    +0.064 C 
ATOM     16  C   UNL     1     -34.589  24.985   2.664  0.00  0.00    +0.001 C 
ATOM     17  C   UNL     1     -33.922  25.965   5.235  0.00  0.00    +0.015 C 
ATOM     18  C   UNL     1     -33.919  26.204   2.816  0.00  0.00    +0.000 C 
ATOM     19  C   UNL     1     -33.591  26.684   4.082  0.00  0.00    +0.001 C 
ATOM     20  H   UNL     1     -34.931  23.939   6.977  0.00  0.00    +0.152 HD
ENDBRANCH   7  12
BRANCH   8  21
ATOM     21  C   UNL     1     -38.132  17.689  -1.190  0.00  0.00    +0.077 C 
ATOM     22  C   UNL     1     -39.314  18.624  -1.452  0.00  0.00    +0.010 C 
BRANCH  21  23
ATOM     23  C   UNL     1     -38.637  16.343  -0.644  0.00  0.00    +0.009 C 
ATOM     24  C   UNL     1     -38.165  15.161  -1.481  0.00  0.00    +0.001 C 
ENDBRANCH  21  23
ENDBRANCH   8  21
BRANCH   5  25
ATOM     25  C   UNL     1     -39.366  21.584   1.454  0.00  0.00    +0.064 C 
BRANCH  25  26
ATOM     26  C   UNL     1     -39.568  22.870   0.635  0.00  0.00    +0.034 C 
BRANCH  26  27
ATOM     27  C   UNL     1     -40.469  23.883   1.333  0.00  0.00    +0.129 C 
BRANCH  27  28
ATOM     28  N   UNL     1     -39.674  25.022   1.793  0.00  0.00    -0.240 NA
BRANCH  28  31
ATOM     29  N   UNL     1     -40.645  25.977   3.772  0.00  0.00    -0.370 N 
ATOM     30  N   UNL     1     -38.684  24.819   3.879  0.00  0.00    -0.370 N 
ATOM     31  C   UNL     1     -39.695  25.274   3.065  0.00  0.00    +0.189 C 
ATOM     32  H   UNL     1     -41.424  26.357   3.306  0.00  0.00    +0.159 HD
ATOM     33  H   UNL     1     -40.545  26.100   4.743  0.00  0.00    +0.159 HD
ATOM     34  H   UNL     1     -37.940  24.300   3.497  0.00  0.00    +0.159 HD
ATOM     35  H   UNL     1     -38.705  25.013   4.843  0.00  0.00    +0.159 HD
ENDBRANCH  28  31
ENDBRANCH  27  28
ENDBRANCH  26  27
ENDBRANCH  25  26
ENDBRANCH   5  25
TORSDOF 8
ENDMDL
MODEL 6
REMARK VINA RESULT:      -6.4      4.893      6.989
REMARK  Name = 194707
REMARK  8 active torsions:
REMARK  status: ('A' for Active; 'I' for Inactive)
REMARK    1  A    between atoms: C_5  and  C_25
REMARK    2  A    between atoms: C_7  and  C_12
REMARK    3  A    between atoms: C_8  and  C_21
REMARK    4  A    between atoms: C_21  and  C_23
REMARK    5  A    between atoms: C_25  and  C_26
REMARK    6  A    between atoms: C_26  and  C_27
REMARK    7  A    between atoms: C_27  and  N_28
REMARK    8  A    between atoms: N_28  and  C_31
REMARK                            x       y       z     vdW  Elec       q    Type
REMARK                         _______ _______ _______ _____ _____    ______ ____
ROOT
ATOM      1  O   UNL     1     -37.372  23.426   3.738  0.00  0.00    -0.275 OA
ATOM      2  N   UNL     1     -35.734  21.824   3.237  0.00  0.00    -0.268 N 
ATOM      3  N   UNL     1     -36.080  19.406   0.527  0.00  0.00    -0.406 NA
ATOM      4  N   UNL     1     -37.502  21.519   1.700  0.00  0.00    -0.247 NA
ATOM      5  C   UNL     1     -35.592  20.100   1.575  0.00  0.00    +0.140 C 
ATOM      6  C   UNL     1     -36.297  21.130   2.139  0.00  0.00    +0.156 C 
ATOM      7  C   UNL     1     -37.290  19.788   0.076  0.00  0.00    +0.134 C 
ATOM      8  C   UNL     1     -36.288  22.890   3.942  0.00  0.00    +0.227 C 
ATOM      9  C   UNL     1     -37.990  20.826   0.652  0.00  0.00    +0.185 C 
ATOM     10  H   UNL     1     -34.849  21.517   3.537  0.00  0.00    +0.156 HD
ENDROOT
BRANCH   7  12
ATOM     11  N   UNL     1     -38.569  18.685  -3.095  0.00  0.00    -0.312 N 
ATOM     12  C   UNL     1     -37.822  19.057  -1.035  0.00  0.00    +0.043 C 
ATOM     13  C   UNL     1     -38.190  17.684  -1.138  0.00  0.00    +0.017 C 
ATOM     14  C   UNL     1     -38.654  17.479  -2.438  0.00  0.00    +0.048 C 
ATOM     15  C   UNL     1     -38.068  19.644  -2.256  0.00  0.00    +0.064 C 
ATOM     16  C   UNL     1     -38.171  16.596  -0.244  0.00  0.00    +0.001 C 
ATOM     17  C   UNL     1     -39.103  16.232  -2.892  0.00  0.00    +0.015 C 
ATOM     18  C   UNL     1     -38.616  15.344  -0.683  0.00  0.00    +0.000 C 
ATOM     19  C   UNL     1     -39.074  15.167  -1.987  0.00  0.00    +0.001 C 
ATOM     20  H   UNL     1     -38.831  18.837  -4.032  0.00  0.00    +0.152 HD
ENDBRANCH   7  12
BRANCH   8  21
ATOM     21  C   UNL     1     -35.342  23.379   5.046  0.00  0.00    +0.077 C 
ATOM     22  C   UNL     1     -35.379  22.376   6.200  0.00  0.00    +0.010 C 
BRANCH  21  23
ATOM     23  C   UNL     1     -35.713  24.781   5.555  0.00  0.00    +0.009 C 
ATOM     24  C   UNL     1     -34.518  25.725   5.587  0.00  0.00    +0.001 C 
ENDBRANCH  21  23
ENDBRANCH   8  21
BRANCH   5  25
ATOM     25  C   UNL     1     -34.251  19.681   2.076  0.00  0.00    +0.064 C 
BRANCH  25  26
ATOM     26  C   UNL     1     -33.286  19.330   0.931  0.00  0.00    +0.034 C 
BRANCH  26  27
ATOM     27  C   UNL     1     -32.563  18.006   1.149  0.00  0.00    +0.129 C 
BRANCH  27  28
ATOM     28  N   UNL     1     -32.602  17.209  -0.078  0.00  0.00    -0.240 NA
BRANCH  28  31
ATOM     29  N   UNL     1     -33.135  14.888  -0.393  0.00  0.00    -0.370 N 
ATOM     30  N   UNL     1     -34.748  16.381   0.210  0.00  0.00    -0.370 N 
ATOM     31  C   UNL     1     -33.419  16.202  -0.095  0.00  0.00    +0.189 C 
ATOM     32  H   UNL     1     -32.216  14.625  -0.628  0.00  0.00    +0.159 HD
ATOM     33  H   UNL     1     -33.850  14.212  -0.370  0.00  0.00    +0.159 HD
ATOM     34  H   UNL     1     -35.084  17.277   0.441  0.00  0.00    +0.159 HD
ATOM     35  H   UNL     1     -35.364  15.613   0.196  0.00  0.00    +0.159 HD
ENDBRANCH  28  31
ENDBRANCH  27  28
ENDBRANCH  26  27
ENDBRANCH  25  26
ENDBRANCH   5  25
TORSDOF 8
ENDMDL
MODEL 7
REMARK VINA RESULT:      -6.3      2.630      5.678
REMARK  Name = 194707
REMARK  8 active torsions:
REMARK  status: ('A' for Active; 'I' for Inactive)
REMARK    1  A    between atoms: C_5  and  C_25
REMARK    2  A    between atoms: C_7  and  C_12
REMARK    3  A    between atoms: C_8  and  C_21
REMARK    4  A    between atoms: C_21  and  C_23
REMARK    5  A    between atoms: C_25  and  C_26
REMARK    6  A    between atoms: C_26  and  C_27
REMARK    7  A    between atoms: C_27  and  N_28
REMARK    8  A    between atoms: N_28  and  C_31
REMARK                            x       y       z     vdW  Elec       q    Type
REMARK                         _______ _______ _______ _____ _____    ______ ____
ROOT
ATOM      1  O   UNL     1     -33.504  30.302   4.135  0.00  0.00    -0.275 OA
ATOM      2  N   UNL     1     -35.114  29.508   2.626  0.00  0.00    -0.268 N 
ATOM      3  N   UNL     1     -36.168  26.018   2.493  0.00  0.00    -0.406 NA
ATOM      4  N   UNL     1     -34.405  27.665   3.923  0.00  0.00    -0.247 NA
ATOM      5  C   UNL     1     -36.056  27.336   2.235  0.00  0.00    +0.140 C 
ATOM      6  C   UNL     1     -35.190  28.131   2.940  0.00  0.00    +0.156 C 
ATOM      7  C   UNL     1     -35.385  25.538   3.479  0.00  0.00    +0.134 C 
ATOM      8  C   UNL     1     -34.305  30.472   3.222  0.00  0.00    +0.227 C 
ATOM      9  C   UNL     1     -34.518  26.347   4.181  0.00  0.00    +0.185 C 
ATOM     10  H   UNL     1     -35.702  29.822   1.902  0.00  0.00    +0.156 HD
ENDROOT
BRANCH   7  12
ATOM     11  N   UNL     1     -35.882  22.294   4.938  0.00  0.00    -0.312 N 
ATOM     12  C   UNL     1     -35.492  24.138   3.762  0.00  0.00    +0.043 C 
ATOM     13  C   UNL     1     -35.249  23.013   2.923  0.00  0.00    +0.017 C 
ATOM     14  C   UNL     1     -35.500  21.870   3.685  0.00  0.00    +0.048 C 
ATOM     15  C   UNL     1     -35.880  23.661   4.994  0.00  0.00    +0.064 C 
ATOM     16  C   UNL     1     -34.836  22.859   1.585  0.00  0.00    +0.001 C 
ATOM     17  C   UNL     1     -35.359  20.575   3.173  0.00  0.00    +0.015 C 
ATOM     18  C   UNL     1     -34.691  21.570   1.059  0.00  0.00    +0.000 C 
ATOM     19  C   UNL     1     -34.950  20.447   1.842  0.00  0.00    +0.001 C 
ATOM     20  H   UNL     1     -36.121  21.699   5.685  0.00  0.00    +0.152 HD
ENDBRANCH   7  12
BRANCH   8  21
ATOM     21  C   UNL     1     -34.547  31.858   2.611  0.00  0.00    +0.077 C 
ATOM     22  C   UNL     1     -35.856  31.822   1.820  0.00  0.00    +0.010 C 
BRANCH  21  23
ATOM     23  C   UNL     1     -33.393  32.304   1.699  0.00  0.00    +0.009 C 
ATOM     24  C   UNL     1     -32.351  33.133   2.439  0.00  0.00    +0.001 C 
ENDBRANCH  21  23
ENDBRANCH   8  21
BRANCH   5  25
ATOM     25  C   UNL     1     -36.923  27.871   1.146  0.00  0.00    +0.064 C 
BRANCH  25  26
ATOM     26  C   UNL     1     -37.837  26.789   0.546  0.00  0.00    +0.034 C 
BRANCH  26  27
ATOM     27  C   UNL     1     -39.288  26.924   0.992  0.00  0.00    +0.129 C 
BRANCH  27  28
ATOM     28  N   UNL     1     -39.738  25.674   1.605  0.00  0.00    -0.240 NA
BRANCH  28  31
ATOM     29  N   UNL     1     -39.011  24.981   3.788  0.00  0.00    -0.370 N 
ATOM     30  N   UNL     1     -40.805  26.366   3.544  0.00  0.00    -0.370 N 
ATOM     31  C   UNL     1     -39.820  25.655   2.899  0.00  0.00    +0.189 C 
ATOM     32  H   UNL     1     -38.265  24.433   3.455  0.00  0.00    +0.159 HD
ATOM     33  H   UNL     1     -39.179  25.048   4.755  0.00  0.00    +0.159 HD
ATOM     34  H   UNL     1     -41.452  26.894   3.022  0.00  0.00    +0.159 HD
ATOM     35  H   UNL     1     -40.862  26.348   4.526  0.00  0.00    +0.159 HD
ENDBRANCH  28  31
ENDBRANCH  27  28
ENDBRANCH  26  27
ENDBRANCH  25  26
ENDBRANCH   5  25
TORSDOF 8
ENDMDL
MODEL 8
REMARK VINA RESULT:      -6.3      4.461      6.772
REMARK  Name = 194707
REMARK  8 active torsions:
REMARK  status: ('A' for Active; 'I' for Inactive)
REMARK    1  A    between atoms: C_5  and  C_25
REMARK    2  A    between atoms: C_7  and  C_12
REMARK    3  A    between atoms: C_8  and  C_21
REMARK    4  A    between atoms: C_21  and  C_23
REMARK    5  A    between atoms: C_25  and  C_26
REMARK    6  A    between atoms: C_26  and  C_27
REMARK    7  A    between atoms: C_27  and  N_28
REMARK    8  A    between atoms: N_28  and  C_31
REMARK                            x       y       z     vdW  Elec       q    Type
REMARK                         _______ _______ _______ _____ _____    ______ ____
ROOT
ATOM      1  O   UNL     1     -33.635  26.996   5.302  0.00  0.00    -0.275 OA
ATOM      2  N   UNL     1     -34.865  26.715   3.325  0.00  0.00    -0.268 N 
ATOM      3  N   UNL     1     -35.823  29.493   1.164  0.00  0.00    -0.406 NA
ATOM      4  N   UNL     1     -34.435  29.026   3.556  0.00  0.00    -0.247 NA
ATOM      5  C   UNL     1     -35.673  28.254   1.671  0.00  0.00    +0.140 C 
ATOM      6  C   UNL     1     -34.992  28.038   2.841  0.00  0.00    +0.156 C 
ATOM      7  C   UNL     1     -35.266  30.495   1.873  0.00  0.00    +0.134 C 
ATOM      8  C   UNL     1     -34.218  26.293   4.483  0.00  0.00    +0.227 C 
ATOM      9  C   UNL     1     -34.584  30.266   3.048  0.00  0.00    +0.185 C 
ATOM     10  H   UNL     1     -35.284  26.010   2.780  0.00  0.00    +0.156 HD
ENDROOT
BRANCH   7  12
ATOM     11  N   UNL     1     -34.868  33.709   0.318  0.00  0.00    -0.312 N 
ATOM     12  C   UNL     1     -35.421  31.818   1.347  0.00  0.00    +0.043 C 
ATOM     13  C   UNL     1     -36.549  32.688   1.371  0.00  0.00    +0.017 C 
ATOM     14  C   UNL     1     -36.175  33.865   0.720  0.00  0.00    +0.048 C 
ATOM     15  C   UNL     1     -34.404  32.477   0.692  0.00  0.00    +0.064 C 
ATOM     16  C   UNL     1     -37.855  32.584   1.888  0.00  0.00    +0.001 C 
ATOM     17  C   UNL     1     -37.047  34.948   0.558  0.00  0.00    +0.015 C 
ATOM     18  C   UNL     1     -38.739  33.658   1.734  0.00  0.00    +0.000 C 
ATOM     19  C   UNL     1     -38.339  34.821   1.078  0.00  0.00    +0.001 C 
ATOM     20  H   UNL     1     -34.343  34.385  -0.168  0.00  0.00    +0.152 HD
ENDBRANCH   7  12
BRANCH   8  21
ATOM     21  C   UNL     1     -34.281  24.768   4.633  0.00  0.00    +0.077 C 
ATOM     22  C   UNL     1     -34.541  24.152   3.258  0.00  0.00    +0.010 C 
BRANCH  21  23
ATOM     23  C   UNL     1     -35.369  24.322   5.624  0.00  0.00    +0.009 C 
ATOM     24  C   UNL     1     -35.358  22.818   5.864  0.00  0.00    +0.001 C 
ENDBRANCH  21  23
ENDBRANCH   8  21
BRANCH   5  25
ATOM     25  C   UNL     1     -36.285  27.142   0.888  0.00  0.00    +0.064 C 
BRANCH  25  26
ATOM     26  C   UNL     1     -37.798  27.337   0.688  0.00  0.00    +0.034 C 
BRANCH  26  27
ATOM     27  C   UNL     1     -38.636  26.486   1.634  0.00  0.00    +0.129 C 
BRANCH  27  28
ATOM     28  N   UNL     1     -37.762  25.648   2.456  0.00  0.00    -0.240 NA
BRANCH  28  31
ATOM     29  N   UNL     1     -37.946  23.368   3.190  0.00  0.00    -0.370 N 
ATOM     30  N   UNL     1     -39.454  24.935   3.872  0.00  0.00    -0.370 N 
ATOM     31  C   UNL     1     -38.329  24.689   3.120  0.00  0.00    +0.189 C 
ATOM     32  H   UNL     1     -37.153  23.059   2.696  0.00  0.00    +0.159 HD
ATOM     33  H   UNL     1     -38.465  22.733   3.733  0.00  0.00    +0.159 HD
ATOM     34  H   UNL     1     -39.833  25.842   3.908  0.00  0.00    +0.159 HD
ATOM     35  H   UNL     1     -39.880  24.203   4.374  0.00  0.00    +0.159 HD
ENDBRANCH  28  31
ENDBRANCH  27  28
ENDBRANCH  26  27
ENDBRANCH  25  26
ENDBRANCH   5  25
TORSDOF 8
ENDMDL
MODEL 9
REMARK VINA RESULT:      -6.2      2.222      8.081
REMARK  Name = 194707
REMARK  8 active torsions:
REMARK  status: ('A' for Active; 'I' for Inactive)
REMARK    1  A    between atoms: C_5  and  C_25
REMARK    2  A    between atoms: C_7  and  C_12
REMARK    3  A    between atoms: C_8  and  C_21
REMARK    4  A    between atoms: C_21  and  C_23
REMARK    5  A    between atoms: C_25  and  C_26
REMARK    6  A    between atoms: C_26  and  C_27
REMARK    7  A    between atoms: C_27  and  N_28
REMARK    8  A    between atoms: N_28  and  C_31
REMARK                            x       y       z     vdW  Elec       q    Type
REMARK                         _______ _______ _______ _____ _____    ______ ____
ROOT
ATOM      1  O   UNL     1     -36.513  27.658   1.206  0.00  0.00    -0.275 OA
ATOM      2  N   UNL     1     -36.246  26.369   3.148  0.00  0.00    -0.268 N 
ATOM      3  N   UNL     1     -33.489  26.845   5.488  0.00  0.00    -0.406 NA
ATOM      4  N   UNL     1     -34.457  27.911   3.082  0.00  0.00    -0.247 NA
ATOM      5  C   UNL     1     -34.605  26.374   4.898  0.00  0.00    +0.140 C 
ATOM      6  C   UNL     1     -35.068  26.903   3.721  0.00  0.00    +0.156 C 
ATOM      7  C   UNL     1     -32.866  27.859   4.856  0.00  0.00    +0.134 C 
ATOM      8  C   UNL     1     -36.871  26.766   1.968  0.00  0.00    +0.227 C 
ATOM      9  C   UNL     1     -33.342  28.383   3.673  0.00  0.00    +0.185 C 
ATOM     10  H   UNL     1     -36.673  25.631   3.639  0.00  0.00    +0.156 HD
ENDROOT
BRANCH   7  12
ATOM     11  N   UNL     1     -30.388  29.272   7.039  0.00  0.00    -0.312 N 
ATOM     12  C   UNL     1     -31.677  28.367   5.471  0.00  0.00    +0.043 C 
ATOM     13  C   UNL     1     -30.350  28.462   4.961  0.00  0.00    +0.017 C 
ATOM     14  C   UNL     1     -29.563  29.033   5.963  0.00  0.00    +0.048 C 
ATOM     15  C   UNL     1     -31.666  28.874   6.751  0.00  0.00    +0.064 C 
ATOM     16  C   UNL     1     -29.744  28.116   3.737  0.00  0.00    +0.001 C 
ATOM     17  C   UNL     1     -28.194  29.276   5.802  0.00  0.00    +0.015 C 
ATOM     18  C   UNL     1     -28.376  28.352   3.561  0.00  0.00    +0.000 C 
ATOM     19  C   UNL     1     -27.615  28.923   4.579  0.00  0.00    +0.001 C 
ATOM     20  H   UNL     1     -30.101  29.673   7.891  0.00  0.00    +0.152 HD
ENDBRANCH   7  12
BRANCH   8  21
ATOM     21  C   UNL     1     -38.146  25.952   1.712  0.00  0.00    +0.077 C 
ATOM     22  C   UNL     1     -38.883  26.563   0.519  0.00  0.00    +0.010 C 
BRANCH  21  23
ATOM     23  C   UNL     1     -39.071  25.912   2.939  0.00  0.00    +0.009 C 
ATOM     24  C   UNL     1     -39.982  24.692   2.942  0.00  0.00    +0.001 C 
ENDBRANCH  21  23
ENDBRANCH   8  21
BRANCH   5  25
ATOM     25  C   UNL     1     -35.298  25.254   5.596  0.00  0.00    +0.064 C 
BRANCH  25  26
ATOM     26  C   UNL     1     -34.633  23.895   5.319  0.00  0.00    +0.034 C 
BRANCH  26  27
ATOM     27  C   UNL     1     -35.641  22.786   5.041  0.00  0.00    +0.129 C 
BRANCH  27  28
ATOM     28  N   UNL     1     -36.700  23.285   4.163  0.00  0.00    -0.240 NA
BRANCH  28  31
ATOM     29  N   UNL     1     -37.806  21.820   2.613  0.00  0.00    -0.370 N 
ATOM     30  N   UNL     1     -35.914  22.938   2.009  0.00  0.00    -0.370 N 
ATOM     31  C   UNL     1     -36.827  22.702   3.011  0.00  0.00    +0.189 C 
ATOM     32  H   UNL     1     -38.522  21.565   3.239  0.00  0.00    +0.159 HD
ATOM     33  H   UNL     1     -37.790  21.443   1.704  0.00  0.00    +0.159 HD
ATOM     34  H   UNL     1     -35.161  23.552   2.164  0.00  0.00    +0.159 HD
ATOM     35  H   UNL     1     -36.015  22.493   1.137  0.00  0.00    +0.159 HD
ENDBRANCH  28  31
ENDBRANCH  27  28
ENDBRANCH  26  27
ENDBRANCH  25  26
ENDBRANCH   5  25
TORSDOF 8
ENDMDL
