MODEL 1
REMARK VINA RESULT:      -6.8      0.000      0.000
REMARK  Name = 54681538
REMARK  8 active torsions:
REMARK  status: ('A' for Active; 'I' for Inactive)
REMARK    1  A    between atoms: C_1  and  C_4
REMARK    2  A    between atoms: C_1  and  C_19
REMARK    3  A    between atoms: C_1  and  C_33
REMARK    4  A    between atoms: C_5  and  O_13
REMARK    5  A    between atoms: C_12  and  O_15
REMARK    6  A    between atoms: C_20  and  O_28
REMARK    7  A    between atoms: C_27  and  O_30
REMARK    8  A    between atoms: C_33  and  O_34
REMARK                            x       y       z     vdW  Elec       q    Type
REMARK                         _______ _______ _______ _____ _____    ______ ____
ROOT
ATOM      1  C   UNL     1     -36.390  25.862   2.985  0.00  0.00    +0.162 C 
ENDROOT
BRANCH   1   4
ATOM      2  O   UNL     1     -37.270  22.195   2.651  0.00  0.00    -0.421 OA
ATOM      3  O   UNL     1     -38.341  23.977   3.574  0.00  0.00    -0.245 OA
ATOM      4  C   UNL     1     -36.221  24.421   2.586  0.00  0.00    +0.102 A 
ATOM      5  C   UNL     1     -35.162  23.909   1.931  0.00  0.00    +0.140 A 
ATOM      6  C   UNL     1     -35.099  22.483   1.599  0.00  0.00    +0.068 A 
ATOM      7  C   UNL     1     -37.359  23.540   2.980  0.00  0.00    +0.345 A 
ATOM      8  C   UNL     1     -36.160  21.665   1.971  0.00  0.00    +0.155 A 
ATOM      9  C   UNL     1     -34.023  21.892   0.923  0.00  0.00    +0.009 C 
ATOM     10  C   UNL     1     -36.179  20.298   1.695  0.00  0.00    +0.074 C 
ATOM     11  C   UNL     1     -34.025  20.522   0.638  0.00  0.00    +0.037 C 
ATOM     12  C   UNL     1     -35.103  19.726   1.024  0.00  0.00    +0.137 C 
BRANCH   5  13
ATOM     13  O   UNL     1     -34.067  24.640   1.518  0.00  0.00    -0.505 OA
ATOM     14  H   UNL     1     -34.019  25.557   1.705  0.00  0.00    +0.292 HD
ENDBRANCH   5  13
BRANCH  12  15
ATOM     15  O   UNL     1     -35.101  18.395   0.744  0.00  0.00    -0.505 OA
ATOM     16  H   UNL     1     -34.300  17.963   0.526  0.00  0.00    +0.292 HD
ENDBRANCH  12  15
ENDBRANCH   1   4
BRANCH   1  19
ATOM     17  O   UNL     1     -34.302  26.447   6.069  0.00  0.00    -0.421 OA
ATOM     18  O   UNL     1     -36.272  25.371   5.706  0.00  0.00    -0.245 OA
ATOM     19  C   UNL     1     -35.245  26.355   3.798  0.00  0.00    +0.102 A 
ATOM     20  C   UNL     1     -34.196  27.056   3.328  0.00  0.00    +0.140 A 
ATOM     21  C   UNL     1     -33.125  27.501   4.224  0.00  0.00    +0.068 A 
ATOM     22  C   UNL     1     -35.332  26.012   5.247  0.00  0.00    +0.345 A 
ATOM     23  C   UNL     1     -33.212  27.181   5.574  0.00  0.00    +0.155 A 
ATOM     24  C   UNL     1     -32.012  28.235   3.794  0.00  0.00    +0.009 C 
ATOM     25  C   UNL     1     -32.236  27.567   6.494  0.00  0.00    +0.074 C 
ATOM     26  C   UNL     1     -31.024  28.630   4.704  0.00  0.00    +0.037 C 
ATOM     27  C   UNL     1     -31.137  28.296   6.053  0.00  0.00    +0.137 C 
BRANCH  20  28
ATOM     28  O   UNL     1     -34.022  27.416   2.008  0.00  0.00    -0.505 OA
ATOM     29  H   UNL     1     -33.604  26.825   1.412  0.00  0.00    +0.292 HD
ENDBRANCH  20  28
BRANCH  27  30
ATOM     30  O   UNL     1     -30.175  28.682   6.933  0.00  0.00    -0.505 OA
ATOM     31  H   UNL     1     -30.410  29.151   7.709  0.00  0.00    +0.292 HD
ENDBRANCH  27  30
ENDBRANCH   1  19
BRANCH   1  33
ATOM     32  O   UNL     1     -36.215  26.256   0.589  0.00  0.00    -0.250 OA
ATOM     33  C   UNL     1     -36.491  26.668   1.709  0.00  0.00    +0.322 C 
BRANCH  33  34
ATOM     34  O   UNL     1     -36.962  27.925   1.931  0.00  0.00    -0.480 OA
ATOM     35  H   UNL     1     -36.503  28.501   2.510  0.00  0.00    +0.295 HD
ENDBRANCH  33  34
ENDBRANCH   1  33
TORSDOF 8
ENDMDL
MODEL 2
REMARK VINA RESULT:      -6.5      4.127      7.320
REMARK  Name = 54681538
REMARK  8 active torsions:
REMARK  status: ('A' for Active; 'I' for Inactive)
REMARK    1  A    between atoms: C_1  and  C_4
REMARK    2  A    between atoms: C_1  and  C_19
REMARK    3  A    between atoms: C_1  and  C_33
REMARK    4  A    between atoms: C_5  and  O_13
REMARK    5  A    between atoms: C_12  and  O_15
REMARK    6  A    between atoms: C_20  and  O_28
REMARK    7  A    between atoms: C_27  and  O_30
REMARK    8  A    between atoms: C_33  and  O_34
REMARK                            x       y       z     vdW  Elec       q    Type
REMARK                         _______ _______ _______ _____ _____    ______ ____
ROOT
ATOM      1  C   UNL     1     -38.453  25.390   0.848  0.00  0.00    +0.162 C 
ENDROOT
BRANCH   1   4
ATOM      2  O   UNL     1     -37.110  22.249   2.478  0.00  0.00    -0.421 OA
ATOM      3  O   UNL     1     -38.381  22.624   0.630  0.00  0.00    -0.245 OA
ATOM      4  C   UNL     1     -37.706  24.553   1.850  0.00  0.00    +0.102 A 
ATOM      5  C   UNL     1     -37.022  25.025   2.909  0.00  0.00    +0.140 A 
ATOM      6  C   UNL     1     -36.335  24.114   3.829  0.00  0.00    +0.068 A 
ATOM      7  C   UNL     1     -37.770  23.085   1.589  0.00  0.00    +0.345 A 
ATOM      8  C   UNL     1     -36.400  22.747   3.585  0.00  0.00    +0.155 A 
ATOM      9  C   UNL     1     -35.611  24.545   4.949  0.00  0.00    +0.009 C 
ATOM     10  C   UNL     1     -35.776  21.812   4.411  0.00  0.00    +0.074 C 
ATOM     11  C   UNL     1     -34.980  23.621   5.789  0.00  0.00    +0.037 C 
ATOM     12  C   UNL     1     -35.063  22.255   5.520  0.00  0.00    +0.137 C 
BRANCH   5  13
ATOM     13  O   UNL     1     -36.898  26.361   3.230  0.00  0.00    -0.505 OA
ATOM     14  H   UNL     1     -36.143  26.662   3.697  0.00  0.00    +0.292 HD
ENDBRANCH   5  13
BRANCH  12  15
ATOM     15  O   UNL     1     -34.446  21.360   6.338  0.00  0.00    -0.505 OA
ATOM     16  H   UNL     1     -34.147  21.628   7.184  0.00  0.00    +0.292 HD
ENDBRANCH  12  15
ENDBRANCH   1   4
BRANCH   1  19
ATOM     17  O   UNL     1     -42.199  25.230   0.451  0.00  0.00    -0.421 OA
ATOM     18  O   UNL     1     -40.466  24.605  -0.882  0.00  0.00    -0.245 OA
ATOM     19  C   UNL     1     -39.884  25.562   1.218  0.00  0.00    +0.102 A 
ATOM     20  C   UNL     1     -40.337  26.088   2.372  0.00  0.00    +0.140 A 
ATOM     21  C   UNL     1     -41.773  26.219   2.629  0.00  0.00    +0.068 A 
ATOM     22  C   UNL     1     -40.846  25.094   0.178  0.00  0.00    +0.345 A 
ATOM     23  C   UNL     1     -42.665  25.784   1.655  0.00  0.00    +0.155 A 
ATOM     24  C   UNL     1     -42.303  26.761   3.807  0.00  0.00    +0.009 C 
ATOM     25  C   UNL     1     -44.048  25.872   1.819  0.00  0.00    +0.074 C 
ATOM     26  C   UNL     1     -43.688  26.857   3.988  0.00  0.00    +0.037 C 
ATOM     27  C   UNL     1     -44.559  26.413   2.994  0.00  0.00    +0.137 C 
BRANCH  20  28
ATOM     28  O   UNL     1     -39.530  26.542   3.395  0.00  0.00    -0.505 OA
ATOM     29  H   UNL     1     -39.603  26.167   4.251  0.00  0.00    +0.292 HD
ENDBRANCH  20  28
BRANCH  27  30
ATOM     30  O   UNL     1     -45.903  26.510   3.175  0.00  0.00    -0.505 OA
ATOM     31  H   UNL     1     -46.489  26.194   2.514  0.00  0.00    +0.292 HD
ENDBRANCH  27  30
ENDBRANCH   1  19
BRANCH   1  33
ATOM     32  O   UNL     1     -38.278  27.798   1.168  0.00  0.00    -0.250 OA
ATOM     33  C   UNL     1     -37.775  26.742   0.803  0.00  0.00    +0.322 C 
BRANCH  33  34
ATOM     34  O   UNL     1     -36.501  26.662   0.333  0.00  0.00    -0.480 OA
ATOM     35  H   UNL     1     -36.318  26.879  -0.560  0.00  0.00    +0.295 HD
ENDBRANCH  33  34
ENDBRANCH   1  33
TORSDOF 8
ENDMDL
MODEL 3
REMARK VINA RESULT:      -6.4      2.137      7.833
REMARK  Name = 54681538
REMARK  8 active torsions:
REMARK  status: ('A' for Active; 'I' for Inactive)
REMARK    1  A    between atoms: C_1  and  C_4
REMARK    2  A    between atoms: C_1  and  C_19
REMARK    3  A    between atoms: C_1  and  C_33
REMARK    4  A    between atoms: C_5  and  O_13
REMARK    5  A    between atoms: C_12  and  O_15
REMARK    6  A    between atoms: C_20  and  O_28
REMARK    7  A    between atoms: C_27  and  O_30
REMARK    8  A    between atoms: C_33  and  O_34
REMARK                            x       y       z     vdW  Elec       q    Type
REMARK                         _______ _______ _______ _____ _____    ______ ____
ROOT
ATOM      1  C   UNL     1     -36.769  22.167   1.048  0.00  0.00    +0.162 C 
ENDROOT
BRANCH   1   4
ATOM      2  O   UNL     1     -34.659  25.235   1.732  0.00  0.00    -0.421 OA
ATOM      3  O   UNL     1     -35.350  24.213  -0.179  0.00  0.00    -0.245 OA
ATOM      4  C   UNL     1     -36.060  23.215   1.862  0.00  0.00    +0.102 A 
ATOM      5  C   UNL     1     -36.036  23.278   3.207  0.00  0.00    +0.140 A 
ATOM      6  C   UNL     1     -35.304  24.342   3.899  0.00  0.00    +0.068 A 
ATOM      7  C   UNL     1     -35.343  24.239   1.048  0.00  0.00    +0.345 A 
ATOM      8  C   UNL     1     -34.634  25.293   3.136  0.00  0.00    +0.155 A 
ATOM      9  C   UNL     1     -35.239  24.458   5.294  0.00  0.00    +0.009 C 
ATOM     10  C   UNL     1     -33.913  26.338   3.715  0.00  0.00    +0.074 C 
ATOM     11  C   UNL     1     -34.520  25.499   5.890  0.00  0.00    +0.037 C 
ATOM     12  C   UNL     1     -33.857  26.438   5.101  0.00  0.00    +0.137 C 
BRANCH   5  13
ATOM     13  O   UNL     1     -36.671  22.385   4.045  0.00  0.00    -0.505 OA
ATOM     14  H   UNL     1     -37.294  22.694   4.673  0.00  0.00    +0.292 HD
ENDBRANCH   5  13
BRANCH  12  15
ATOM     15  O   UNL     1     -33.160  27.450   5.686  0.00  0.00    -0.505 OA
ATOM     16  H   UNL     1     -33.245  28.325   5.363  0.00  0.00    +0.292 HD
ENDBRANCH  12  15
ENDBRANCH   1   4
BRANCH   1  19
ATOM     17  O   UNL     1     -35.106  19.820  -1.389  0.00  0.00    -0.421 OA
ATOM     18  O   UNL     1     -36.713  21.414  -1.614  0.00  0.00    -0.245 OA
ATOM     19  C   UNL     1     -35.842  21.101   0.579  0.00  0.00    +0.102 A 
ATOM     20  C   UNL     1     -34.975  20.422   1.353  0.00  0.00    +0.140 A 
ATOM     21  C   UNL     1     -34.113  19.382   0.784  0.00  0.00    +0.068 A 
ATOM     22  C   UNL     1     -35.936  20.809  -0.881  0.00  0.00    +0.345 A 
ATOM     23  C   UNL     1     -34.206  19.112  -0.576  0.00  0.00    +0.155 A 
ATOM     24  C   UNL     1     -33.195  18.640   1.539  0.00  0.00    +0.009 C 
ATOM     25  C   UNL     1     -33.422  18.137  -1.197  0.00  0.00    +0.074 C 
ATOM     26  C   UNL     1     -32.401  17.659   0.932  0.00  0.00    +0.037 C 
ATOM     27  C   UNL     1     -32.516  17.409  -0.434  0.00  0.00    +0.137 C 
BRANCH  20  28
ATOM     28  O   UNL     1     -34.810  20.622   2.707  0.00  0.00    -0.505 OA
ATOM     29  H   UNL     1     -34.449  19.941   3.241  0.00  0.00    +0.292 HD
ENDBRANCH  20  28
BRANCH  27  30
ATOM     30  O   UNL     1     -31.743  16.454  -1.019  0.00  0.00    -0.505 OA
ATOM     31  H   UNL     1     -31.346  15.787  -0.494  0.00  0.00    +0.292 HD
ENDBRANCH  27  30
ENDBRANCH   1  19
BRANCH   1  33
ATOM     32  O   UNL     1     -38.871  22.115   2.277  0.00  0.00    -0.250 OA
ATOM     33  C   UNL     1     -37.833  21.559   1.935  0.00  0.00    +0.322 C 
BRANCH  33  34
ATOM     34  O   UNL     1     -37.531  20.284   2.301  0.00  0.00    -0.480 OA
ATOM     35  H   UNL     1     -38.199  19.727   2.648  0.00  0.00    +0.295 HD
ENDBRANCH  33  34
ENDBRANCH   1  33
TORSDOF 8
ENDMDL
MODEL 4
REMARK VINA RESULT:      -6.4      1.402      7.253
REMARK  Name = 54681538
REMARK  8 active torsions:
REMARK  status: ('A' for Active; 'I' for Inactive)
REMARK    1  A    between atoms: C_1  and  C_4
REMARK    2  A    between atoms: C_1  and  C_19
REMARK    3  A    between atoms: C_1  and  C_33
REMARK    4  A    between atoms: C_5  and  O_13
REMARK    5  A    between atoms: C_12  and  O_15
REMARK    6  A    between atoms: C_20  and  O_28
REMARK    7  A    between atoms: C_27  and  O_30
REMARK    8  A    between atoms: C_33  and  O_34
REMARK                            x       y       z     vdW  Elec       q    Type
REMARK                         _______ _______ _______ _____ _____    ______ ____
ROOT
ATOM      1  C   UNL     1     -36.646  25.357   2.334  0.00  0.00    +0.162 C 
ENDROOT
BRANCH   1   4
ATOM      2  O   UNL     1     -33.566  27.490   2.876  0.00  0.00    -0.421 OA
ATOM      3  O   UNL     1     -34.835  27.022   1.048  0.00  0.00    -0.245 OA
ATOM      4  C   UNL     1     -35.517  26.005   3.089  0.00  0.00    +0.102 A 
ATOM      5  C   UNL     1     -35.271  25.860   4.405  0.00  0.00    +0.140 A 
ATOM      6  C   UNL     1     -34.133  26.534   5.037  0.00  0.00    +0.068 A 
ATOM      7  C   UNL     1     -34.634  26.865   2.249  0.00  0.00    +0.345 A 
ATOM      8  C   UNL     1     -33.311  27.332   4.250  0.00  0.00    +0.155 A 
ATOM      9  C   UNL     1     -33.824  26.419   6.399  0.00  0.00    +0.009 C 
ATOM     10  C   UNL     1     -32.207  28.008   4.772  0.00  0.00    +0.074 C 
ATOM     11  C   UNL     1     -32.721  27.089   6.939  0.00  0.00    +0.037 C 
ATOM     12  C   UNL     1     -31.913  27.883   6.126  0.00  0.00    +0.137 C 
BRANCH   5  13
ATOM     13  O   UNL     1     -36.030  25.094   5.265  0.00  0.00    -0.505 OA
ATOM     14  H   UNL     1     -35.686  24.292   5.606  0.00  0.00    +0.292 HD
ENDBRANCH   5  13
BRANCH  12  15
ATOM     15  O   UNL     1     -30.842  28.533   6.655  0.00  0.00    -0.505 OA
ATOM     16  H   UNL     1     -30.447  28.220   7.444  0.00  0.00    +0.292 HD
ENDBRANCH  12  15
ENDBRANCH   1   4
BRANCH   1  19
ATOM     17  O   UNL     1     -36.126  22.838  -0.423  0.00  0.00    -0.421 OA
ATOM     18  O   UNL     1     -36.974  24.948  -0.383  0.00  0.00    -0.245 OA
ATOM     19  C   UNL     1     -36.233  24.074   1.703  0.00  0.00    +0.102 A 
ATOM     20  C   UNL     1     -35.684  23.026   2.346  0.00  0.00    +0.140 A 
ATOM     21  C   UNL     1     -35.323  21.804   1.623  0.00  0.00    +0.068 A 
ATOM     22  C   UNL     1     -36.479  24.009   0.233  0.00  0.00    +0.345 A 
ATOM     23  C   UNL     1     -35.557  21.747   0.255  0.00  0.00    +0.155 A 
ATOM     24  C   UNL     1     -34.753  20.681   2.238  0.00  0.00    +0.009 C 
ATOM     25  C   UNL     1     -35.244  20.620  -0.508  0.00  0.00    +0.074 C 
ATOM     26  C   UNL     1     -34.433  19.543   1.488  0.00  0.00    +0.037 C 
ATOM     27  C   UNL     1     -34.679  19.514   0.116  0.00  0.00    +0.137 C 
BRANCH  20  28
ATOM     28  O   UNL     1     -35.412  22.991   3.698  0.00  0.00    -0.505 OA
ATOM     29  H   UNL     1     -36.112  23.052   4.318  0.00  0.00    +0.292 HD
ENDBRANCH  20  28
BRANCH  27  30
ATOM     30  O   UNL     1     -34.367  18.406  -0.608  0.00  0.00    -0.505 OA
ATOM     31  H   UNL     1     -34.871  17.623  -0.507  0.00  0.00    +0.292 HD
ENDBRANCH  27  30
ENDBRANCH   1  19
BRANCH   1  33
ATOM     32  O   UNL     1     -38.080  23.997   3.757  0.00  0.00    -0.250 OA
ATOM     33  C   UNL     1     -37.756  25.099   3.329  0.00  0.00    +0.322 C 
BRANCH  33  34
ATOM     34  O   UNL     1     -38.357  26.249   3.737  0.00  0.00    -0.480 OA
ATOM     35  H   UNL     1     -37.870  27.049   3.759  0.00  0.00    +0.295 HD
ENDBRANCH  33  34
ENDBRANCH   1  33
TORSDOF 8
ENDMDL
MODEL 5
REMARK VINA RESULT:      -6.3      2.624      7.197
REMARK  Name = 54681538
REMARK  8 active torsions:
REMARK  status: ('A' for Active; 'I' for Inactive)
REMARK    1  A    between atoms: C_1  and  C_4
REMARK    2  A    between atoms: C_1  and  C_19
REMARK    3  A    between atoms: C_1  and  C_33
REMARK    4  A    between atoms: C_5  and  O_13
REMARK    5  A    between atoms: C_12  and  O_15
REMARK    6  A    between atoms: C_20  and  O_28
REMARK    7  A    between atoms: C_27  and  O_30
REMARK    8  A    between atoms: C_33  and  O_34
REMARK                            x       y       z     vdW  Elec       q    Type
REMARK                         _______ _______ _______ _____ _____    ______ ____
ROOT
ATOM      1  C   UNL     1     -35.015  27.062   1.425  0.00  0.00    +0.162 C 
ENDROOT
BRANCH   1   4
ATOM      2  O   UNL     1     -31.463  28.353   1.653  0.00  0.00    -0.421 OA
ATOM      3  O   UNL     1     -32.446  26.700   0.438  0.00  0.00    -0.245 OA
ATOM      4  C   UNL     1     -33.876  27.928   1.892  0.00  0.00    +0.102 A 
ATOM      5  C   UNL     1     -33.968  28.925   2.792  0.00  0.00    +0.140 A 
ATOM      6  C   UNL     1     -32.787  29.701   3.181  0.00  0.00    +0.068 A 
ATOM      7  C   UNL     1     -32.562  27.600   1.265  0.00  0.00    +0.345 A 
ATOM      8  C   UNL     1     -31.564  29.390   2.597  0.00  0.00    +0.155 A 
ATOM      9  C   UNL     1     -32.820  30.746   4.114  0.00  0.00    +0.009 C 
ATOM     10  C   UNL     1     -30.392  30.078   2.911  0.00  0.00    +0.074 C 
ATOM     11  C   UNL     1     -31.654  31.447   4.441  0.00  0.00    +0.037 C 
ATOM     12  C   UNL     1     -30.441  31.112   3.840  0.00  0.00    +0.137 C 
BRANCH   5  13
ATOM     13  O   UNL     1     -35.135  29.309   3.420  0.00  0.00    -0.505 OA
ATOM     14  H   UNL     1     -35.946  29.294   2.951  0.00  0.00    +0.292 HD
ENDBRANCH   5  13
BRANCH  12  15
ATOM     15  O   UNL     1     -29.310  31.796   4.161  0.00  0.00    -0.505 OA
ATOM     16  H   UNL     1     -28.516  31.332   4.339  0.00  0.00    +0.292 HD
ENDBRANCH  12  15
ENDBRANCH   1   4
BRANCH   1  19
ATOM     17  O   UNL     1     -35.356  23.350   1.989  0.00  0.00    -0.421 OA
ATOM     18  O   UNL     1     -35.307  24.642   0.117  0.00  0.00    -0.245 OA
ATOM     19  C   UNL     1     -35.101  25.790   2.192  0.00  0.00    +0.102 A 
ATOM     20  C   UNL     1     -35.048  25.678   3.533  0.00  0.00    +0.140 A 
ATOM     21  C   UNL     1     -35.152  24.370   4.184  0.00  0.00    +0.068 A 
ATOM     22  C   UNL     1     -35.261  24.574   1.342  0.00  0.00    +0.345 A 
ATOM     23  C   UNL     1     -35.304  23.241   3.388  0.00  0.00    +0.155 A 
ATOM     24  C   UNL     1     -35.107  24.191   5.573  0.00  0.00    +0.009 C 
ATOM     25  C   UNL     1     -35.411  21.958   3.928  0.00  0.00    +0.074 C 
ATOM     26  C   UNL     1     -35.214  22.912   6.131  0.00  0.00    +0.037 C 
ATOM     27  C   UNL     1     -35.366  21.797   5.309  0.00  0.00    +0.137 C 
BRANCH  20  28
ATOM     28  O   UNL     1     -34.896  26.738   4.402  0.00  0.00    -0.505 OA
ATOM     29  H   UNL     1     -35.431  27.502   4.306  0.00  0.00    +0.292 HD
ENDBRANCH  20  28
BRANCH  27  30
ATOM     30  O   UNL     1     -35.469  20.556   5.856  0.00  0.00    -0.505 OA
ATOM     31  H   UNL     1     -35.301  20.432   6.770  0.00  0.00    +0.292 HD
ENDBRANCH  27  30
ENDBRANCH   1  19
BRANCH   1  33
ATOM     32  O   UNL     1     -36.585  28.875   1.005  0.00  0.00    -0.250 OA
ATOM     33  C   UNL     1     -36.287  27.858   1.620  0.00  0.00    +0.322 C 
BRANCH  33  34
ATOM     34  O   UNL     1     -37.106  27.298   2.550  0.00  0.00    -0.480 OA
ATOM     35  H   UNL     1     -36.774  27.090   3.401  0.00  0.00    +0.295 HD
ENDBRANCH  33  34
ENDBRANCH   1  33
TORSDOF 8
ENDMDL
MODEL 6
REMARK VINA RESULT:      -6.2      3.132      7.533
REMARK  Name = 54681538
REMARK  8 active torsions:
REMARK  status: ('A' for Active; 'I' for Inactive)
REMARK    1  A    between atoms: C_1  and  C_4
REMARK    2  A    between atoms: C_1  and  C_19
REMARK    3  A    between atoms: C_1  and  C_33
REMARK    4  A    between atoms: C_5  and  O_13
REMARK    5  A    between atoms: C_12  and  O_15
REMARK    6  A    between atoms: C_20  and  O_28
REMARK    7  A    between atoms: C_27  and  O_30
REMARK    8  A    between atoms: C_33  and  O_34
REMARK                            x       y       z     vdW  Elec       q    Type
REMARK                         _______ _______ _______ _____ _____    ______ ____
ROOT
ATOM      1  C   UNL     1     -35.840  20.999   0.252  0.00  0.00    +0.162 C 
ENDROOT
BRANCH   1   4
ATOM      2  O   UNL     1     -37.012  24.349   1.569  0.00  0.00    -0.421 OA
ATOM      3  O   UNL     1     -37.234  23.299  -0.436  0.00  0.00    -0.245 OA
ATOM      4  C   UNL     1     -36.033  22.114   1.244  0.00  0.00    +0.102 A 
ATOM      5  C   UNL     1     -35.577  22.123   2.511  0.00  0.00    +0.140 A 
ATOM      6  C   UNL     1     -35.817  23.270   3.390  0.00  0.00    +0.068 A 
ATOM      7  C   UNL     1     -36.801  23.278   0.713  0.00  0.00    +0.345 A 
ATOM      8  C   UNL     1     -36.530  24.354   2.890  0.00  0.00    +0.155 A 
ATOM      9  C   UNL     1     -35.365  23.339   4.715  0.00  0.00    +0.009 C 
ATOM     10  C   UNL     1     -36.801  25.486   3.660  0.00  0.00    +0.074 C 
ATOM     11  C   UNL     1     -35.628  24.466   5.500  0.00  0.00    +0.037 C 
ATOM     12  C   UNL     1     -36.345  25.539   4.973  0.00  0.00    +0.137 C 
BRANCH   5  13
ATOM     13  O   UNL     1     -34.865  21.095   3.095  0.00  0.00    -0.505 OA
ATOM     14  H   UNL     1     -34.982  20.902   4.004  0.00  0.00    +0.292 HD
ENDBRANCH   5  13
BRANCH  12  15
ATOM     15  O   UNL     1     -36.599  26.633   5.740  0.00  0.00    -0.505 OA
ATOM     16  H   UNL     1     -37.442  27.040   5.712  0.00  0.00    +0.292 HD
ENDBRANCH  12  15
ENDBRANCH   1   4
BRANCH   1  19
ATOM     17  O   UNL     1     -32.255  21.159  -0.904  0.00  0.00    -0.421 OA
ATOM     18  O   UNL     1     -34.078  22.459  -1.304  0.00  0.00    -0.245 OA
ATOM     19  C   UNL     1     -34.413  20.594   0.136  0.00  0.00    +0.102 A 
ATOM     20  C   UNL     1     -33.849  19.531   0.742  0.00  0.00    +0.140 A 
ATOM     21  C   UNL     1     -32.430  19.220   0.548  0.00  0.00    +0.068 A 
ATOM     22  C   UNL     1     -33.595  21.480  -0.742  0.00  0.00    +0.345 A 
ATOM     23  C   UNL     1     -31.673  20.047  -0.273  0.00  0.00    +0.155 A 
ATOM     24  C   UNL     1     -31.789  18.128   1.148  0.00  0.00    +0.009 C 
ATOM     25  C   UNL     1     -30.316  19.821  -0.511  0.00  0.00    +0.074 C 
ATOM     26  C   UNL     1     -30.429  17.886   0.920  0.00  0.00    +0.037 C 
ATOM     27  C   UNL     1     -29.695  18.732   0.091  0.00  0.00    +0.137 C 
BRANCH  20  28
ATOM     28  O   UNL     1     -34.517  18.659   1.574  0.00  0.00    -0.505 OA
ATOM     29  H   UNL     1     -34.739  18.921   2.447  0.00  0.00    +0.292 HD
ENDBRANCH  20  28
BRANCH  27  30
ATOM     30  O   UNL     1     -28.374  18.493  -0.127  0.00  0.00    -0.505 OA
ATOM     31  H   UNL     1     -27.725  18.978   0.344  0.00  0.00    +0.292 HD
ENDBRANCH  27  30
ENDBRANCH   1  19
BRANCH   1  33
ATOM     32  O   UNL     1     -36.906  18.816   0.086  0.00  0.00    -0.250 OA
ATOM     33  C   UNL     1     -36.662  19.826   0.737  0.00  0.00    +0.322 C 
BRANCH  33  34
ATOM     34  O   UNL     1     -37.092  19.993   2.016  0.00  0.00    -0.480 OA
ATOM     35  H   UNL     1     -37.408  20.829   2.298  0.00  0.00    +0.295 HD
ENDBRANCH  33  34
ENDBRANCH   1  33
TORSDOF 8
ENDMDL
MODEL 7
REMARK VINA RESULT:      -6.2      2.287      7.796
REMARK  Name = 54681538
REMARK  8 active torsions:
REMARK  status: ('A' for Active; 'I' for Inactive)
REMARK    1  A    between atoms: C_1  and  C_4
REMARK    2  A    between atoms: C_1  and  C_19
REMARK    3  A    between atoms: C_1  and  C_33
REMARK    4  A    between atoms: C_5  and  O_13
REMARK    5  A    between atoms: C_12  and  O_15
REMARK    6  A    between atoms: C_20  and  O_28
REMARK    7  A    between atoms: C_27  and  O_30
REMARK    8  A    between atoms: C_33  and  O_34
REMARK                            x       y       z     vdW  Elec       q    Type
REMARK                         _______ _______ _______ _____ _____    ______ ____
ROOT
ATOM      1  C   UNL     1     -32.757  27.896   2.614  0.00  0.00    +0.162 C 
ENDROOT
BRANCH   1   4
ATOM      2  O   UNL     1     -29.231  27.480   3.928  0.00  0.00    -0.421 OA
ATOM      3  O   UNL     1     -30.282  26.781   2.035  0.00  0.00    -0.245 OA
ATOM      4  C   UNL     1     -31.598  28.050   3.561  0.00  0.00    +0.102 A 
ATOM      5  C   UNL     1     -31.627  28.711   4.734  0.00  0.00    +0.140 A 
ATOM      6  C   UNL     1     -30.436  28.790   5.583  0.00  0.00    +0.068 A 
ATOM      7  C   UNL     1     -30.342  27.388   3.101  0.00  0.00    +0.345 A 
ATOM      8  C   UNL     1     -29.268  28.169   5.153  0.00  0.00    +0.155 A 
ATOM      9  C   UNL     1     -30.405  29.460   6.814  0.00  0.00    +0.009 C 
ATOM     10  C   UNL     1     -28.091  28.195   5.901  0.00  0.00    +0.074 C 
ATOM     11  C   UNL     1     -29.233  29.495   7.578  0.00  0.00    +0.037 C 
ATOM     12  C   UNL     1     -28.077  28.863   7.122  0.00  0.00    +0.137 C 
BRANCH   5  13
ATOM     13  O   UNL     1     -32.734  29.359   5.240  0.00  0.00    -0.505 OA
ATOM     14  H   UNL     1     -33.302  29.833   4.666  0.00  0.00    +0.292 HD
ENDBRANCH   5  13
BRANCH  12  15
ATOM     15  O   UNL     1     -26.940  28.901   7.867  0.00  0.00    -0.505 OA
ATOM     16  H   UNL     1     -26.151  28.519   7.537  0.00  0.00    +0.292 HD
ENDBRANCH  12  15
ENDBRANCH   1   4
BRANCH   1  19
ATOM     17  O   UNL     1     -34.297  24.672   1.411  0.00  0.00    -0.421 OA
ATOM     18  O   UNL     1     -33.445  26.486   0.335  0.00  0.00    -0.245 OA
ATOM     19  C   UNL     1     -33.387  26.552   2.713  0.00  0.00    +0.102 A 
ATOM     20  C   UNL     1     -33.676  25.905   3.859  0.00  0.00    +0.140 A 
ATOM     21  C   UNL     1     -34.308  24.583   3.838  0.00  0.00    +0.068 A 
ATOM     22  C   UNL     1     -33.701  25.925   1.396  0.00  0.00    +0.345 A 
ATOM     23  C   UNL     1     -34.600  24.005   2.609  0.00  0.00    +0.155 A 
ATOM     24  C   UNL     1     -34.635  23.864   4.996  0.00  0.00    +0.009 C 
ATOM     25  C   UNL     1     -35.201  22.749   2.501  0.00  0.00    +0.074 C 
ATOM     26  C   UNL     1     -35.238  22.604   4.905  0.00  0.00    +0.037 C 
ATOM     27  C   UNL     1     -35.521  22.048   3.658  0.00  0.00    +0.137 C 
BRANCH  20  28
ATOM     28  O   UNL     1     -33.421  26.397   5.122  0.00  0.00    -0.505 OA
ATOM     29  H   UNL     1     -33.826  26.002   5.869  0.00  0.00    +0.292 HD
ENDBRANCH  20  28
BRANCH  27  30
ATOM     30  O   UNL     1     -36.108  20.824   3.576  0.00  0.00    -0.505 OA
ATOM     31  H   UNL     1     -36.215  20.303   4.348  0.00  0.00    +0.292 HD
ENDBRANCH  27  30
ENDBRANCH   1  19
BRANCH   1  33
ATOM     32  O   UNL     1     -33.677  30.149   2.702  0.00  0.00    -0.250 OA
ATOM     33  C   UNL     1     -33.771  28.959   2.977  0.00  0.00    +0.322 C 
BRANCH  33  34
ATOM     34  O   UNL     1     -34.846  28.442   3.630  0.00  0.00    -0.480 OA
ATOM     35  H   UNL     1     -35.451  29.014   4.062  0.00  0.00    +0.295 HD
ENDBRANCH  33  34
ENDBRANCH   1  33
TORSDOF 8
ENDMDL
MODEL 8
REMARK VINA RESULT:      -6.2      1.771      2.339
REMARK  Name = 54681538
REMARK  8 active torsions:
REMARK  status: ('A' for Active; 'I' for Inactive)
REMARK    1  A    between atoms: C_1  and  C_4
REMARK    2  A    between atoms: C_1  and  C_19
REMARK    3  A    between atoms: C_1  and  C_33
REMARK    4  A    between atoms: C_5  and  O_13
REMARK    5  A    between atoms: C_12  and  O_15
REMARK    6  A    between atoms: C_20  and  O_28
REMARK    7  A    between atoms: C_27  and  O_30
REMARK    8  A    between atoms: C_33  and  O_34
REMARK                            x       y       z     vdW  Elec       q    Type
REMARK                         _______ _______ _______ _____ _____    ______ ____
ROOT
ATOM      1  C   UNL     1     -36.537  24.965   3.899  0.00  0.00    +0.162 C 
ENDROOT
BRANCH   1   4
ATOM      2  O   UNL     1     -35.465  21.336   3.789  0.00  0.00    -0.421 OA
ATOM      3  O   UNL     1     -36.300  22.665   5.435  0.00  0.00    -0.245 OA
ATOM      4  C   UNL     1     -36.013  23.686   3.304  0.00  0.00    +0.102 A 
ATOM      5  C   UNL     1     -35.622  23.520   2.026  0.00  0.00    +0.140 A 
ATOM      6  C   UNL     1     -35.118  22.227   1.555  0.00  0.00    +0.068 A 
ATOM      7  C   UNL     1     -35.946  22.547   4.266  0.00  0.00    +0.345 A 
ATOM      8  C   UNL     1     -35.054  21.169   2.455  0.00  0.00    +0.155 A 
ATOM      9  C   UNL     1     -34.693  21.994   0.240  0.00  0.00    +0.009 C 
ATOM     10  C   UNL     1     -34.586  19.907   2.089  0.00  0.00    +0.074 C 
ATOM     11  C   UNL     1     -34.221  20.735  -0.144  0.00  0.00    +0.037 C 
ATOM     12  C   UNL     1     -34.167  19.692   0.780  0.00  0.00    +0.137 C 
BRANCH   5  13
ATOM     13  O   UNL     1     -35.652  24.507   1.063  0.00  0.00    -0.505 OA
ATOM     14  H   UNL     1     -35.611  25.408   1.314  0.00  0.00    +0.292 HD
ENDBRANCH   5  13
BRANCH  12  15
ATOM     15  O   UNL     1     -33.708  18.469   0.402  0.00  0.00    -0.505 OA
ATOM     16  H   UNL     1     -34.167  17.977  -0.250  0.00  0.00    +0.292 HD
ENDBRANCH  12  15
ENDBRANCH   1   4
BRANCH   1  19
ATOM     17  O   UNL     1     -33.622  27.201   4.745  0.00  0.00    -0.421 OA
ATOM     18  O   UNL     1     -34.513  25.362   5.743  0.00  0.00    -0.245 OA
ATOM     19  C   UNL     1     -35.577  26.090   3.743  0.00  0.00    +0.102 A 
ATOM     20  C   UNL     1     -35.583  26.992   2.742  0.00  0.00    +0.140 A 
ATOM     21  C   UNL     1     -34.591  28.069   2.692  0.00  0.00    +0.068 A 
ATOM     22  C   UNL     1     -34.548  26.171   4.820  0.00  0.00    +0.345 A 
ATOM     23  C   UNL     1     -33.636  28.141   3.700  0.00  0.00    +0.155 A 
ATOM     24  C   UNL     1     -34.549  29.036   1.680  0.00  0.00    +0.009 C 
ATOM     25  C   UNL     1     -32.656  29.135   3.729  0.00  0.00    +0.074 C 
ATOM     26  C   UNL     1     -33.573  30.040   1.693  0.00  0.00    +0.037 C 
ATOM     27  C   UNL     1     -32.628  30.088   2.717  0.00  0.00    +0.137 C 
BRANCH  20  28
ATOM     28  O   UNL     1     -36.486  26.999   1.700  0.00  0.00    -0.505 OA
ATOM     29  H   UNL     1     -37.397  26.860   1.869  0.00  0.00    +0.292 HD
ENDBRANCH  20  28
BRANCH  27  30
ATOM     30  O   UNL     1     -31.683  31.066   2.725  0.00  0.00    -0.505 OA
ATOM     31  H   UNL     1     -31.858  31.884   3.148  0.00  0.00    +0.292 HD
ENDBRANCH  27  30
ENDBRANCH   1  19
BRANCH   1  33
ATOM     32  O   UNL     1     -38.268  24.693   2.207  0.00  0.00    -0.250 OA
ATOM     33  C   UNL     1     -37.827  25.295   3.179  0.00  0.00    +0.322 C 
BRANCH  33  34
ATOM     34  O   UNL     1     -38.484  26.337   3.755  0.00  0.00    -0.480 OA
ATOM     35  H   UNL     1     -39.143  26.798   3.273  0.00  0.00    +0.295 HD
ENDBRANCH  33  34
ENDBRANCH   1  33
TORSDOF 8
ENDMDL
MODEL 9
REMARK VINA RESULT:      -6.1      1.473      2.107
REMARK  Name = 54681538
REMARK  8 active torsions:
REMARK  status: ('A' for Active; 'I' for Inactive)
REMARK    1  A    between atoms: C_1  and  C_4
REMARK    2  A    between atoms: C_1  and  C_19
REMARK    3  A    between atoms: C_1  and  C_33
REMARK    4  A    between atoms: C_5  and  O_13
REMARK    5  A    between atoms: C_12  and  O_15
REMARK    6  A    between atoms: C_20  and  O_28
REMARK    7  A    between atoms: C_27  and  O_30
REMARK    8  A    between atoms: C_33  and  O_34
REMARK                            x       y       z     vdW  Elec       q    Type
REMARK                         _______ _______ _______ _____ _____    ______ ____
ROOT
ATOM      1  C   UNL     1     -36.644  23.797   2.185  0.00  0.00    +0.162 C 
ENDROOT
BRANCH   1   4
ATOM      2  O   UNL     1     -36.271  20.119   1.370  0.00  0.00    -0.421 OA
ATOM      3  O   UNL     1     -37.972  21.359   2.232  0.00  0.00    -0.245 OA
ATOM      4  C   UNL     1     -35.975  22.541   1.697  0.00  0.00    +0.102 A 
ATOM      5  C   UNL     1     -34.723  22.460   1.207  0.00  0.00    +0.140 A 
ATOM      6  C   UNL     1     -34.168  21.177   0.768  0.00  0.00    +0.068 A 
ATOM      7  C   UNL     1     -36.825  21.318   1.795  0.00  0.00    +0.345 A 
ATOM      8  C   UNL     1     -34.962  20.039   0.863  0.00  0.00    +0.155 A 
ATOM      9  C   UNL     1     -32.873  21.029   0.254  0.00  0.00    +0.009 C 
ATOM     10  C   UNL     1     -34.511  18.780   0.468  0.00  0.00    +0.074 C 
ATOM     11  C   UNL     1     -32.404  19.773  -0.147  0.00  0.00    +0.037 C 
ATOM     12  C   UNL     1     -33.222  18.650  -0.040  0.00  0.00    +0.137 C 
BRANCH   5  13
ATOM     13  O   UNL     1     -33.864  23.530   1.071  0.00  0.00    -0.505 OA
ATOM     14  H   UNL     1     -34.205  24.401   1.027  0.00  0.00    +0.292 HD
ENDBRANCH   5  13
BRANCH  12  15
ATOM     15  O   UNL     1     -32.762  17.431  -0.431  0.00  0.00    -0.505 OA
ATOM     16  H   UNL     1     -32.788  17.189  -1.336  0.00  0.00    +0.292 HD
ENDBRANCH  12  15
ENDBRANCH   1   4
BRANCH   1  19
ATOM     17  O   UNL     1     -35.126  24.676   5.522  0.00  0.00    -0.421 OA
ATOM     18  O   UNL     1     -36.587  23.067   4.853  0.00  0.00    -0.245 OA
ATOM     19  C   UNL     1     -35.799  24.540   3.159  0.00  0.00    +0.102 A 
ATOM     20  C   UNL     1     -35.010  25.592   2.868  0.00  0.00    +0.140 A 
ATOM     21  C   UNL     1     -34.225  26.256   3.911  0.00  0.00    +0.068 A 
ATOM     22  C   UNL     1     -35.882  24.026   4.557  0.00  0.00    +0.345 A 
ATOM     23  C   UNL     1     -34.308  25.775   5.213  0.00  0.00    +0.155 A 
ATOM     24  C   UNL     1     -33.390  27.355   3.670  0.00  0.00    +0.009 C 
ATOM     25  C   UNL     1     -33.593  26.350   6.266  0.00  0.00    +0.074 C 
ATOM     26  C   UNL     1     -32.667  27.943   4.715  0.00  0.00    +0.037 C 
ATOM     27  C   UNL     1     -32.770  27.441   6.011  0.00  0.00    +0.137 C 
BRANCH  20  28
ATOM     28  O   UNL     1     -34.861  26.135   1.609  0.00  0.00    -0.505 OA
ATOM     29  H   UNL     1     -34.892  27.065   1.493  0.00  0.00    +0.292 HD
ENDBRANCH  20  28
BRANCH  27  30
ATOM     30  O   UNL     1     -32.065  28.017   7.022  0.00  0.00    -0.505 OA
ATOM     31  H   UNL     1     -32.263  28.892   7.291  0.00  0.00    +0.292 HD
ENDBRANCH  27  30
ENDBRANCH   1  19
BRANCH   1  33
ATOM     32  O   UNL     1     -36.387  24.508  -0.130  0.00  0.00    -0.250 OA
ATOM     33  C   UNL     1     -36.901  24.663   0.971  0.00  0.00    +0.322 C 
BRANCH  33  34
ATOM     34  O   UNL     1     -37.811  25.643   1.223  0.00  0.00    -0.480 OA
ATOM     35  H   UNL     1     -37.660  26.254   1.917  0.00  0.00    +0.295 HD
ENDBRANCH  33  34
ENDBRANCH   1  33
TORSDOF 8
ENDMDL
