MODEL 1
REMARK VINA RESULT:      -5.5      0.000      0.000
REMARK  Name = 5460185
REMARK  10 active torsions:
REMARK  status: ('A' for Active; 'I' for Inactive)
REMARK    1  A    between atoms: C_3  and  C_8
REMARK    2  A    between atoms: C_4  and  C_20
REMARK    3  A    between atoms: C_8  and  C_9
REMARK    4  A    between atoms: C_9  and  C_10
REMARK    5  A    between atoms: C_10  and  C_13
REMARK    6  A    between atoms: C_10  and  N_16
REMARK    7  A    between atoms: C_20  and  CA_21
REMARK    8  A    between atoms: CA_21  and  N_22
REMARK    9  A    between atoms: CA_21  and  C_27
REMARK   10  A    between atoms: C_27  and  O_28
REMARK                            x       y       z     vdW  Elec       q    Type
REMARK                         _______ _______ _______ _____ _____    ______ ____
ROOT
ATOM      1  N   UNL     1     -35.061  23.404   3.909  0.00  0.00    -0.321 N 
ATOM      2  N   UNL     1     -35.926  21.828   5.212  0.00  0.00    -0.317 N 
ATOM      3  C   UNL     1     -35.626  22.182   4.004  0.00  0.00    +0.143 C 
ATOM      4  C   UNL     1     -34.988  23.891   5.184  0.00  0.00    +0.036 C 
ATOM      5  C   UNL     1     -35.528  22.900   5.971  0.00  0.00    +0.069 C 
ATOM      6  H   UNL     1     -34.762  23.855   3.086  0.00  0.00    +0.148 HD
ATOM      7  H   UNL     1     -36.341  20.988   5.516  0.00  0.00    +0.148 HD
ENDROOT
BRANCH   3   8
ATOM      8  C   UNL     1     -35.857  21.355   2.763  0.00  0.00    +0.039 C 
BRANCH   8   9
ATOM      9  C   UNL     1     -36.806  22.025   1.760  0.00  0.00    -0.008 C 
BRANCH   9  10
ATOM     10  C   UNL     1     -38.214  22.338   2.284  0.00  0.00    +0.024 C 
BRANCH  10  13
ATOM     11  O   UNL     1     -40.353  21.202   2.206  0.00  0.00    -0.278 OA
ATOM     12  N   UNL     1     -38.714  20.557   0.729  0.00  0.00    -0.330 N 
ATOM     13  C   UNL     1     -39.215  21.325   1.758  0.00  0.00    +0.200 C 
ATOM     14  H   UNL     1     -39.277  19.866   0.311  0.00  0.00    +0.145 HD
ATOM     15  H   UNL     1     -37.792  20.699   0.413  0.00  0.00    +0.145 HD
ENDBRANCH  10  13
BRANCH  10  16
ATOM     16  N   UNL     1     -38.615  23.711   1.862  0.00  0.00    +0.393 N 
ATOM     17  C   UNL     1     -39.418  23.661   0.557  0.00  0.00    -0.095 C 
ATOM     18  C   UNL     1     -37.378  24.587   1.634  0.00  0.00    -0.095 C 
ATOM     19  C   UNL     1     -39.484  24.372   2.937  0.00  0.00    -0.095 C 
ENDBRANCH  10  16
ENDBRANCH   9  10
ENDBRANCH   8   9
ENDBRANCH   3   8
BRANCH   4  20
ATOM     20  C   UNL     1     -34.424  25.212   5.499  0.00  0.00    +0.031 C 
BRANCH  20  21
ATOM     21  CA  UNL     1     -35.329  26.401   5.081  0.00  0.00    +0.041 C 
BRANCH  21  22
ATOM     22  N   UNL     1     -36.733  25.992   5.010  0.00  0.00    +0.389 N 
ATOM     23  H1  UNL     1     -37.148  26.351   4.150  0.00  0.00    -0.088 HD
ATOM     24  H2  UNL     1     -37.237  26.366   5.813  0.00  0.00    -0.088 HD
ATOM     25  H3  UNL     1     -36.791  24.973   5.016  0.00  0.00    -0.088 HD
ENDBRANCH  21  22
BRANCH  21  27
ATOM     26  OXT UNL     1     -34.420  26.250   2.818  0.00  0.00    -0.253 OA
ATOM     27  C   UNL     1     -34.950  26.907   3.703  0.00  0.00    +0.293 C 
BRANCH  27  28
ATOM     28  O   UNL     1     -35.307  28.209   3.558  0.00  0.00    -0.482 OA
ATOM     29  H   UNL     1     -36.136  28.429   3.180  0.00  0.00    +0.295 HD
ENDBRANCH  27  28
ENDBRANCH  21  27
ENDBRANCH  20  21
ENDBRANCH   4  20
TORSDOF 10
ENDMDL
MODEL 2
REMARK VINA RESULT:      -5.3      4.547      8.421
REMARK  Name = 5460185
REMARK  10 active torsions:
REMARK  status: ('A' for Active; 'I' for Inactive)
REMARK    1  A    between atoms: C_3  and  C_8
REMARK    2  A    between atoms: C_4  and  C_20
REMARK    3  A    between atoms: C_8  and  C_9
REMARK    4  A    between atoms: C_9  and  C_10
REMARK    5  A    between atoms: C_10  and  C_13
REMARK    6  A    between atoms: C_10  and  N_16
REMARK    7  A    between atoms: C_20  and  CA_21
REMARK    8  A    between atoms: CA_21  and  N_22
REMARK    9  A    between atoms: CA_21  and  C_27
REMARK   10  A    between atoms: C_27  and  O_28
REMARK                            x       y       z     vdW  Elec       q    Type
REMARK                         _______ _______ _______ _____ _____    ______ ____
ROOT
ATOM      1  N   UNL     1     -34.455  25.599   6.056  0.00  0.00    -0.321 N 
ATOM      2  N   UNL     1     -33.914  27.173   4.586  0.00  0.00    -0.317 N 
ATOM      3  C   UNL     1     -33.677  26.658   5.750  0.00  0.00    +0.143 C 
ATOM      4  C   UNL     1     -35.280  25.409   4.983  0.00  0.00    +0.036 C 
ATOM      5  C   UNL     1     -34.927  26.392   4.089  0.00  0.00    +0.069 C 
ATOM      6  H   UNL     1     -34.434  25.070   6.886  0.00  0.00    +0.148 HD
ATOM      7  H   UNL     1     -33.472  27.942   4.158  0.00  0.00    +0.148 HD
ENDROOT
BRANCH   3   8
ATOM      8  C   UNL     1     -32.638  27.144   6.731  0.00  0.00    +0.039 C 
BRANCH   8   9
ATOM      9  C   UNL     1     -32.012  28.487   6.330  0.00  0.00    -0.008 C 
BRANCH   9  10
ATOM     10  C   UNL     1     -30.755  28.400   5.454  0.00  0.00    +0.024 C 
BRANCH  10  13
ATOM     11  O   UNL     1     -28.613  27.430   6.040  0.00  0.00    -0.278 OA
ATOM     12  N   UNL     1     -29.518  29.016   7.436  0.00  0.00    -0.330 N 
ATOM     13  C   UNL     1     -29.518  28.215   6.314  0.00  0.00    +0.200 C 
ATOM     14  H   UNL     1     -28.763  28.979   8.067  0.00  0.00    +0.145 HD
ATOM     15  H   UNL     1     -30.273  29.625   7.605  0.00  0.00    +0.145 HD
ENDBRANCH  10  13
BRANCH  10  16
ATOM     16  N   UNL     1     -30.622  29.640   4.638  0.00  0.00    +0.393 N 
ATOM     17  C   UNL     1     -29.145  29.974   4.403  0.00  0.00    -0.095 C 
ATOM     18  C   UNL     1     -31.277  30.827   5.354  0.00  0.00    -0.095 C 
ATOM     19  C   UNL     1     -31.299  29.464   3.275  0.00  0.00    -0.095 C 
ENDBRANCH  10  16
ENDBRANCH   9  10
ENDBRANCH   8   9
ENDBRANCH   3   8
BRANCH   4  20
ATOM     20  C   UNL     1     -36.285  24.337   4.934  0.00  0.00    +0.031 C 
BRANCH  20  21
ATOM     21  CA  UNL     1     -35.725  22.965   4.475  0.00  0.00    +0.041 C 
BRANCH  21  22
ATOM     22  N   UNL     1     -36.725  22.220   3.708  0.00  0.00    +0.389 N 
ATOM     23  H1  UNL     1     -36.967  22.743   2.866  0.00  0.00    -0.088 HD
ATOM     24  H2  UNL     1     -37.560  22.088   4.277  0.00  0.00    -0.088 HD
ATOM     25  H3  UNL     1     -36.345  21.310   3.445  0.00  0.00    -0.088 HD
ENDBRANCH  21  22
BRANCH  21  27
ATOM     26  OXT UNL     1     -35.238  22.493   6.822  0.00  0.00    -0.253 OA
ATOM     27  C   UNL     1     -35.360  22.105   5.669  0.00  0.00    +0.293 C 
BRANCH  27  28
ATOM     28  O   UNL     1     -35.208  20.809   5.295  0.00  0.00    -0.482 OA
ATOM     29  H   UNL     1     -34.419  20.532   4.872  0.00  0.00    +0.295 HD
ENDBRANCH  27  28
ENDBRANCH  21  27
ENDBRANCH  20  21
ENDBRANCH   4  20
TORSDOF 10
ENDMDL
MODEL 3
REMARK VINA RESULT:      -5.3      2.181      3.074
REMARK  Name = 5460185
REMARK  10 active torsions:
REMARK  status: ('A' for Active; 'I' for Inactive)
REMARK    1  A    between atoms: C_3  and  C_8
REMARK    2  A    between atoms: C_4  and  C_20
REMARK    3  A    between atoms: C_8  and  C_9
REMARK    4  A    between atoms: C_9  and  C_10
REMARK    5  A    between atoms: C_10  and  C_13
REMARK    6  A    between atoms: C_10  and  N_16
REMARK    7  A    between atoms: C_20  and  CA_21
REMARK    8  A    between atoms: CA_21  and  N_22
REMARK    9  A    between atoms: CA_21  and  C_27
REMARK   10  A    between atoms: C_27  and  O_28
REMARK                            x       y       z     vdW  Elec       q    Type
REMARK                         _______ _______ _______ _____ _____    ______ ____
ROOT
ATOM      1  N   UNL     1     -35.493  22.701   3.887  0.00  0.00    -0.321 N 
ATOM      2  N   UNL     1     -35.183  20.975   5.249  0.00  0.00    -0.317 N 
ATOM      3  C   UNL     1     -35.236  21.383   4.022  0.00  0.00    +0.143 C 
ATOM      4  C   UNL     1     -35.619  23.197   5.155  0.00  0.00    +0.036 C 
ATOM      5  C   UNL     1     -35.423  22.113   5.978  0.00  0.00    +0.069 C 
ATOM      6  H   UNL     1     -35.574  23.205   3.045  0.00  0.00    +0.148 HD
ATOM      7  H   UNL     1     -35.009  20.064   5.582  0.00  0.00    +0.148 HD
ENDROOT
BRANCH   3   8
ATOM      8  C   UNL     1     -35.039  20.520   2.800  0.00  0.00    +0.039 C 
BRANCH   8   9
ATOM      9  C   UNL     1     -36.357  20.135   2.114  0.00  0.00    -0.008 C 
BRANCH   9  10
ATOM     10  C   UNL     1     -36.746  20.984   0.897  0.00  0.00    +0.024 C 
BRANCH  10  13
ATOM     11  O   UNL     1     -38.296  22.814   0.544  0.00  0.00    -0.278 OA
ATOM     12  N   UNL     1     -38.656  21.399   2.319  0.00  0.00    -0.330 N 
ATOM     13  C   UNL     1     -37.964  21.836   1.210  0.00  0.00    +0.200 C 
ATOM     14  H   UNL     1     -39.464  21.876   2.615  0.00  0.00    +0.145 HD
ATOM     15  H   UNL     1     -38.341  20.609   2.816  0.00  0.00    +0.145 HD
ENDBRANCH  10  13
BRANCH  10  16
ATOM     16  N   UNL     1     -37.036  20.097  -0.265  0.00  0.00    +0.393 N 
ATOM     17  C   UNL     1     -36.609  20.769  -1.575  0.00  0.00    -0.095 C 
ATOM     18  C   UNL     1     -38.535  19.790  -0.347  0.00  0.00    -0.095 C 
ATOM     19  C   UNL     1     -36.278  18.773  -0.134  0.00  0.00    -0.095 C 
ENDBRANCH  10  16
ENDBRANCH   9  10
ENDBRANCH   8   9
ENDBRANCH   3   8
BRANCH   4  20
ATOM     20  C   UNL     1     -35.904  24.613   5.429  0.00  0.00    +0.031 C 
BRANCH  20  21
ATOM     21  CA  UNL     1     -36.211  25.454   4.162  0.00  0.00    +0.041 C 
BRANCH  21  22
ATOM     22  N   UNL     1     -35.996  26.880   4.414  0.00  0.00    +0.389 N 
ATOM     23  H1  UNL     1     -36.767  27.416   4.014  0.00  0.00    -0.088 HD
ATOM     24  H2  UNL     1     -35.119  27.172   3.984  0.00  0.00    -0.088 HD
ATOM     25  H3  UNL     1     -35.953  27.045   5.420  0.00  0.00    -0.088 HD
ENDBRANCH  21  22
BRANCH  21  27
ATOM     26  OXT UNL     1     -38.287  24.246   3.716  0.00  0.00    -0.253 OA
ATOM     27  C   UNL     1     -37.661  25.296   3.749  0.00  0.00    +0.293 C 
BRANCH  27  28
ATOM     28  O   UNL     1     -38.203  26.501   3.439  0.00  0.00    -0.482 OA
ATOM     29  H   UNL     1     -38.170  26.816   2.557  0.00  0.00    +0.295 HD
ENDBRANCH  27  28
ENDBRANCH  21  27
ENDBRANCH  20  21
ENDBRANCH   4  20
TORSDOF 10
ENDMDL
MODEL 4
REMARK VINA RESULT:      -5.3      5.440      9.135
REMARK  Name = 5460185
REMARK  10 active torsions:
REMARK  status: ('A' for Active; 'I' for Inactive)
REMARK    1  A    between atoms: C_3  and  C_8
REMARK    2  A    between atoms: C_4  and  C_20
REMARK    3  A    between atoms: C_8  and  C_9
REMARK    4  A    between atoms: C_9  and  C_10
REMARK    5  A    between atoms: C_10  and  C_13
REMARK    6  A    between atoms: C_10  and  N_16
REMARK    7  A    between atoms: C_20  and  CA_21
REMARK    8  A    between atoms: CA_21  and  N_22
REMARK    9  A    between atoms: CA_21  and  C_27
REMARK   10  A    between atoms: C_27  and  O_28
REMARK                            x       y       z     vdW  Elec       q    Type
REMARK                         _______ _______ _______ _____ _____    ______ ____
ROOT
ATOM      1  N   UNL     1     -32.831  27.391   6.482  0.00  0.00    -0.321 N 
ATOM      2  N   UNL     1     -32.372  28.623   4.693  0.00  0.00    -0.317 N 
ATOM      3  C   UNL     1     -32.209  28.472   5.968  0.00  0.00    +0.143 C 
ATOM      4  C   UNL     1     -33.460  26.779   5.434  0.00  0.00    +0.036 C 
ATOM      5  C   UNL     1     -33.163  27.558   4.341  0.00  0.00    +0.069 C 
ATOM      6  H   UNL     1     -32.831  27.100   7.423  0.00  0.00    +0.148 HD
ATOM      7  H   UNL     1     -32.013  29.334   4.112  0.00  0.00    +0.148 HD
ENDROOT
BRANCH   3   8
ATOM      8  C   UNL     1     -31.408  29.384   6.865  0.00  0.00    +0.039 C 
BRANCH   8   9
ATOM      9  C   UNL     1     -29.939  29.510   6.440  0.00  0.00    -0.008 C 
BRANCH   9  10
ATOM     10  C   UNL     1     -29.296  28.234   5.880  0.00  0.00    +0.024 C 
BRANCH  10  13
ATOM     11  O   UNL     1     -28.064  26.395   6.865  0.00  0.00    -0.278 OA
ATOM     12  N   UNL     1     -28.124  28.399   7.987  0.00  0.00    -0.330 N 
ATOM     13  C   UNL     1     -28.437  27.563   6.937  0.00  0.00    +0.200 C 
ATOM     14  H   UNL     1     -27.570  28.070   8.731  0.00  0.00    +0.145 HD
ATOM     15  H   UNL     1     -28.454  29.328   7.992  0.00  0.00    +0.145 HD
ENDBRANCH  10  13
BRANCH  10  16
ATOM     16  N   UNL     1     -28.462  28.569   4.691  0.00  0.00    +0.393 N 
ATOM     17  C   UNL     1     -28.491  27.423   3.673  0.00  0.00    -0.095 C 
ATOM     18  C   UNL     1     -27.006  28.810   5.105  0.00  0.00    -0.095 C 
ATOM     19  C   UNL     1     -28.986  29.835   4.005  0.00  0.00    -0.095 C 
ENDBRANCH  10  16
ENDBRANCH   9  10
ENDBRANCH   8   9
ENDBRANCH   3   8
BRANCH   4  20
ATOM     20  C   UNL     1     -34.254  25.551   5.592  0.00  0.00    +0.031 C 
BRANCH  20  21
ATOM     21  CA  UNL     1     -35.581  25.548   4.788  0.00  0.00    +0.041 C 
BRANCH  21  22
ATOM     22  N   UNL     1     -36.502  26.567   5.293  0.00  0.00    +0.389 N 
ATOM     23  H1  UNL     1     -37.436  26.166   5.384  0.00  0.00    -0.088 HD
ATOM     24  H2  UNL     1     -36.531  27.352   4.644  0.00  0.00    -0.088 HD
ATOM     25  H3  UNL     1     -36.182  26.893   6.206  0.00  0.00    -0.088 HD
ENDBRANCH  21  22
BRANCH  21  27
ATOM     26  OXT UNL     1     -35.940  23.286   5.638  0.00  0.00    -0.253 OA
ATOM     27  C   UNL     1     -36.289  24.214   4.922  0.00  0.00    +0.293 C 
BRANCH  27  28
ATOM     28  O   UNL     1     -37.403  24.185   4.148  0.00  0.00    -0.482 OA
ATOM     29  H   UNL     1     -37.696  24.964   3.718  0.00  0.00    +0.295 HD
ENDBRANCH  27  28
ENDBRANCH  21  27
ENDBRANCH  20  21
ENDBRANCH   4  20
TORSDOF 10
ENDMDL
MODEL 5
REMARK VINA RESULT:      -5.2      4.075      8.008
REMARK  Name = 5460185
REMARK  10 active torsions:
REMARK  status: ('A' for Active; 'I' for Inactive)
REMARK    1  A    between atoms: C_3  and  C_8
REMARK    2  A    between atoms: C_4  and  C_20
REMARK    3  A    between atoms: C_8  and  C_9
REMARK    4  A    between atoms: C_9  and  C_10
REMARK    5  A    between atoms: C_10  and  C_13
REMARK    6  A    between atoms: C_10  and  N_16
REMARK    7  A    between atoms: C_20  and  CA_21
REMARK    8  A    between atoms: CA_21  and  N_22
REMARK    9  A    between atoms: CA_21  and  C_27
REMARK   10  A    between atoms: C_27  and  O_28
REMARK                            x       y       z     vdW  Elec       q    Type
REMARK                         _______ _______ _______ _____ _____    ______ ____
ROOT
ATOM      1  N   UNL     1     -34.772  24.949   4.790  0.00  0.00    -0.321 N 
ATOM      2  N   UNL     1     -35.560  26.970   4.319  0.00  0.00    -0.317 N 
ATOM      3  C   UNL     1     -34.603  26.285   4.859  0.00  0.00    +0.143 C 
ATOM      4  C   UNL     1     -35.957  24.747   4.139  0.00  0.00    +0.036 C 
ATOM      5  C   UNL     1     -36.424  26.009   3.859  0.00  0.00    +0.069 C 
ATOM      6  H   UNL     1     -34.164  24.256   5.139  0.00  0.00    +0.148 HD
ATOM      7  H   UNL     1     -35.646  27.950   4.252  0.00  0.00    +0.148 HD
ENDROOT
BRANCH   3   8
ATOM      8  C   UNL     1     -33.377  26.861   5.525  0.00  0.00    +0.039 C 
BRANCH   8   9
ATOM      9  C   UNL     1     -32.588  27.813   4.615  0.00  0.00    -0.008 C 
BRANCH   9  10
ATOM     10  C   UNL     1     -31.362  28.478   5.254  0.00  0.00    +0.024 C 
BRANCH  10  13
ATOM     11  O   UNL     1     -32.486  30.535   5.869  0.00  0.00    -0.278 OA
ATOM     12  N   UNL     1     -31.314  29.400   7.488  0.00  0.00    -0.330 N 
ATOM     13  C   UNL     1     -31.790  29.580   6.207  0.00  0.00    +0.200 C 
ATOM     14  H   UNL     1     -31.530  30.055   8.191  0.00  0.00    +0.145 HD
ATOM     15  H   UNL     1     -30.758  28.615   7.700  0.00  0.00    +0.145 HD
ENDBRANCH  10  13
BRANCH  10  16
ATOM     16  N   UNL     1     -30.484  29.044   4.191  0.00  0.00    +0.393 N 
ATOM     17  C   UNL     1     -29.699  27.930   3.490  0.00  0.00    -0.095 C 
ATOM     18  C   UNL     1     -29.481  30.036   4.792  0.00  0.00    -0.095 C 
ATOM     19  C   UNL     1     -31.319  29.780   3.138  0.00  0.00    -0.095 C 
ENDBRANCH  10  16
ENDBRANCH   9  10
ENDBRANCH   8   9
ENDBRANCH   3   8
BRANCH   4  20
ATOM     20  C   UNL     1     -36.495  23.405   3.866  0.00  0.00    +0.031 C 
BRANCH  20  21
ATOM     21  CA  UNL     1     -35.485  22.255   4.119  0.00  0.00    +0.041 C 
BRANCH  21  22
ATOM     22  N   UNL     1     -35.821  21.077   3.318  0.00  0.00    +0.389 N 
ATOM     23  H1  UNL     1     -36.368  20.427   3.882  0.00  0.00    -0.088 HD
ATOM     24  H2  UNL     1     -34.964  20.621   3.008  0.00  0.00    -0.088 HD
ATOM     25  H3  UNL     1     -36.367  21.363   2.504  0.00  0.00    -0.088 HD
ENDBRANCH  21  22
BRANCH  21  27
ATOM     26  OXT UNL     1     -35.899  22.498   6.514  0.00  0.00    -0.253 OA
ATOM     27  C   UNL     1     -35.516  21.820   5.571  0.00  0.00    +0.293 C 
BRANCH  27  28
ATOM     28  O   UNL     1     -35.081  20.541   5.696  0.00  0.00    -0.482 OA
ATOM     29  H   UNL     1     -35.695  19.850   5.848  0.00  0.00    +0.295 HD
ENDBRANCH  27  28
ENDBRANCH  21  27
ENDBRANCH  20  21
ENDBRANCH   4  20
TORSDOF 10
ENDMDL
MODEL 6
REMARK VINA RESULT:      -5.2      3.620      7.616
REMARK  Name = 5460185
REMARK  10 active torsions:
REMARK  status: ('A' for Active; 'I' for Inactive)
REMARK    1  A    between atoms: C_3  and  C_8
REMARK    2  A    between atoms: C_4  and  C_20
REMARK    3  A    between atoms: C_8  and  C_9
REMARK    4  A    between atoms: C_9  and  C_10
REMARK    5  A    between atoms: C_10  and  C_13
REMARK    6  A    between atoms: C_10  and  N_16
REMARK    7  A    between atoms: C_20  and  CA_21
REMARK    8  A    between atoms: CA_21  and  N_22
REMARK    9  A    between atoms: CA_21  and  C_27
REMARK   10  A    between atoms: C_27  and  O_28
REMARK                            x       y       z     vdW  Elec       q    Type
REMARK                         _______ _______ _______ _____ _____    ______ ____
ROOT
ATOM      1  N   UNL     1     -34.016  25.506   4.185  0.00  0.00    -0.321 N 
ATOM      2  N   UNL     1     -35.504  27.091   4.636  0.00  0.00    -0.317 N 
ATOM      3  C   UNL     1     -34.455  26.760   3.953  0.00  0.00    +0.143 C 
ATOM      4  C   UNL     1     -34.866  24.969   5.112  0.00  0.00    +0.036 C 
ATOM      5  C   UNL     1     -35.775  25.966   5.375  0.00  0.00    +0.069 C 
ATOM      6  H   UNL     1     -33.239  25.065   3.771  0.00  0.00    +0.148 HD
ATOM      7  H   UNL     1     -35.993  27.946   4.627  0.00  0.00    +0.148 HD
ENDROOT
BRANCH   3   8
ATOM      8  C   UNL     1     -33.734  27.645   2.966  0.00  0.00    +0.039 C 
BRANCH   8   9
ATOM      9  C   UNL     1     -32.864  28.715   3.639  0.00  0.00    -0.008 C 
BRANCH   9  10
ATOM     10  C   UNL     1     -31.791  28.190   4.601  0.00  0.00    +0.024 C 
BRANCH  10  13
ATOM     11  O   UNL     1     -32.122  29.881   6.305  0.00  0.00    -0.278 OA
ATOM     12  N   UNL     1     -32.190  27.670   6.927  0.00  0.00    -0.330 N 
ATOM     13  C   UNL     1     -32.049  28.690   6.011  0.00  0.00    +0.200 C 
ATOM     14  H   UNL     1     -32.361  27.878   7.874  0.00  0.00    +0.145 HD
ATOM     15  H   UNL     1     -32.119  26.732   6.633  0.00  0.00    +0.145 HD
ENDBRANCH  10  13
BRANCH  10  16
ATOM     16  N   UNL     1     -30.443  28.638   4.146  0.00  0.00    +0.393 N 
ATOM     17  C   UNL     1     -29.937  27.750   3.004  0.00  0.00    -0.095 C 
ATOM     18  C   UNL     1     -29.435  28.563   5.298  0.00  0.00    -0.095 C 
ATOM     19  C   UNL     1     -30.497  30.084   3.644  0.00  0.00    -0.095 C 
ENDBRANCH  10  16
ENDBRANCH   9  10
ENDBRANCH   8   9
ENDBRANCH   3   8
BRANCH   4  20
ATOM     20  C   UNL     1     -34.716  23.600   5.629  0.00  0.00    +0.031 C 
BRANCH  20  21
ATOM     21  CA  UNL     1     -35.834  22.626   5.171  0.00  0.00    +0.041 C 
BRANCH  21  22
ATOM     22  N   UNL     1     -35.922  21.472   6.067  0.00  0.00    +0.389 N 
ATOM     23  H1  UNL     1     -35.636  20.630   5.567  0.00  0.00    -0.088 HD
ATOM     24  H2  UNL     1     -36.883  21.366   6.390  0.00  0.00    -0.088 HD
ATOM     25  H3  UNL     1     -35.308  21.616   6.869  0.00  0.00    -0.088 HD
ENDBRANCH  21  22
BRANCH  21  27
ATOM     26  OXT UNL     1     -35.183  22.741   2.819  0.00  0.00    -0.253 OA
ATOM     27  C   UNL     1     -35.541  22.083   3.786  0.00  0.00    +0.293 C 
BRANCH  27  28
ATOM     28  O   UNL     1     -35.702  20.736   3.758  0.00  0.00    -0.482 OA
ATOM     29  H   UNL     1     -35.297  20.202   4.412  0.00  0.00    +0.295 HD
ENDBRANCH  27  28
ENDBRANCH  21  27
ENDBRANCH  20  21
ENDBRANCH   4  20
TORSDOF 10
ENDMDL
MODEL 7
REMARK VINA RESULT:      -5.2      4.698      5.987
REMARK  Name = 5460185
REMARK  10 active torsions:
REMARK  status: ('A' for Active; 'I' for Inactive)
REMARK    1  A    between atoms: C_3  and  C_8
REMARK    2  A    between atoms: C_4  and  C_20
REMARK    3  A    between atoms: C_8  and  C_9
REMARK    4  A    between atoms: C_9  and  C_10
REMARK    5  A    between atoms: C_10  and  C_13
REMARK    6  A    between atoms: C_10  and  N_16
REMARK    7  A    between atoms: C_20  and  CA_21
REMARK    8  A    between atoms: CA_21  and  N_22
REMARK    9  A    between atoms: CA_21  and  C_27
REMARK   10  A    between atoms: C_27  and  O_28
REMARK                            x       y       z     vdW  Elec       q    Type
REMARK                         _______ _______ _______ _____ _____    ______ ____
ROOT
ATOM      1  N   UNL     1     -32.579  27.505   6.821  0.00  0.00    -0.321 N 
ATOM      2  N   UNL     1     -33.062  27.453   4.655  0.00  0.00    -0.317 N 
ATOM      3  C   UNL     1     -33.314  26.965   5.827  0.00  0.00    +0.143 C 
ATOM      4  C   UNL     1     -31.768  28.436   6.234  0.00  0.00    +0.036 C 
ATOM      5  C   UNL     1     -32.085  28.386   4.897  0.00  0.00    +0.069 C 
ATOM      6  H   UNL     1     -32.617  27.274   7.778  0.00  0.00    +0.148 HD
ATOM      7  H   UNL     1     -33.474  27.213   3.793  0.00  0.00    +0.148 HD
ENDROOT
BRANCH   3   8
ATOM      8  C   UNL     1     -34.326  25.888   6.131  0.00  0.00    +0.039 C 
BRANCH   8   9
ATOM      9  C   UNL     1     -34.403  24.808   5.044  0.00  0.00    -0.008 C 
BRANCH   9  10
ATOM     10  C   UNL     1     -35.745  24.072   4.931  0.00  0.00    +0.024 C 
BRANCH  10  13
ATOM     11  O   UNL     1     -34.991  21.872   4.252  0.00  0.00    -0.278 OA
ATOM     12  N   UNL     1     -36.057  22.089   6.275  0.00  0.00    -0.330 N 
ATOM     13  C   UNL     1     -35.546  22.576   5.092  0.00  0.00    +0.200 C 
ATOM     14  H   UNL     1     -35.985  21.130   6.486  0.00  0.00    +0.145 HD
ATOM     15  H   UNL     1     -36.496  22.701   6.911  0.00  0.00    +0.145 HD
ENDBRANCH  10  13
BRANCH  10  16
ATOM     16  N   UNL     1     -36.367  24.359   3.607  0.00  0.00    +0.393 N 
ATOM     17  C   UNL     1     -37.284  23.207   3.181  0.00  0.00    -0.095 C 
ATOM     18  C   UNL     1     -35.288  24.538   2.533  0.00  0.00    -0.095 C 
ATOM     19  C   UNL     1     -37.202  25.642   3.671  0.00  0.00    -0.095 C 
ENDBRANCH  10  16
ENDBRANCH   9  10
ENDBRANCH   8   9
ENDBRANCH   3   8
BRANCH   4  20
ATOM     20  C   UNL     1     -30.809  29.248   6.998  0.00  0.00    +0.031 C 
BRANCH  20  21
ATOM     21  CA  UNL     1     -29.323  28.897   6.722  0.00  0.00    +0.041 C 
BRANCH  21  22
ATOM     22  N   UNL     1     -29.058  27.484   7.001  0.00  0.00    +0.389 N 
ATOM     23  H1  UNL     1     -29.196  26.938   6.150  0.00  0.00    -0.088 HD
ATOM     24  H2  UNL     1     -29.696  27.155   7.724  0.00  0.00    -0.088 HD
ATOM     25  H3  UNL     1     -28.095  27.375   7.321  0.00  0.00    -0.088 HD
ENDBRANCH  21  22
BRANCH  21  27
ATOM     26  OXT UNL     1     -28.267  29.547   8.827  0.00  0.00    -0.253 OA
ATOM     27  C   UNL     1     -28.404  29.700   7.622  0.00  0.00    +0.293 C 
BRANCH  27  28
ATOM     28  O   UNL     1     -27.712  30.618   6.900  0.00  0.00    -0.482 OA
ATOM     29  H   UNL     1     -26.889  30.938   7.215  0.00  0.00    +0.295 HD
ENDBRANCH  27  28
ENDBRANCH  21  27
ENDBRANCH  20  21
ENDBRANCH   4  20
TORSDOF 10
ENDMDL
MODEL 8
REMARK VINA RESULT:      -5.1      2.420      4.265
REMARK  Name = 5460185
REMARK  10 active torsions:
REMARK  status: ('A' for Active; 'I' for Inactive)
REMARK    1  A    between atoms: C_3  and  C_8
REMARK    2  A    between atoms: C_4  and  C_20
REMARK    3  A    between atoms: C_8  and  C_9
REMARK    4  A    between atoms: C_9  and  C_10
REMARK    5  A    between atoms: C_10  and  C_13
REMARK    6  A    between atoms: C_10  and  N_16
REMARK    7  A    between atoms: C_20  and  CA_21
REMARK    8  A    between atoms: CA_21  and  N_22
REMARK    9  A    between atoms: CA_21  and  C_27
REMARK   10  A    between atoms: C_27  and  O_28
REMARK                            x       y       z     vdW  Elec       q    Type
REMARK                         _______ _______ _______ _____ _____    ______ ____
ROOT
ATOM      1  N   UNL     1     -35.954  25.255   3.410  0.00  0.00    -0.321 N 
ATOM      2  N   UNL     1     -35.306  27.340   3.815  0.00  0.00    -0.317 N 
ATOM      3  C   UNL     1     -36.028  26.560   3.076  0.00  0.00    +0.143 C 
ATOM      4  C   UNL     1     -35.099  25.182   4.474  0.00  0.00    +0.036 C 
ATOM      5  C   UNL     1     -34.712  26.481   4.705  0.00  0.00    +0.069 C 
ATOM      6  H   UNL     1     -36.422  24.506   2.976  0.00  0.00    +0.148 HD
ATOM      7  H   UNL     1     -35.208  28.319   3.754  0.00  0.00    +0.148 HD
ENDROOT
BRANCH   3   8
ATOM      8  C   UNL     1     -36.900  27.000   1.925  0.00  0.00    +0.039 C 
BRANCH   8   9
ATOM      9  C   UNL     1     -37.711  25.851   1.310  0.00  0.00    -0.008 C 
BRANCH   9  10
ATOM     10  C   UNL     1     -39.218  25.875   1.596  0.00  0.00    +0.024 C 
BRANCH  10  13
ATOM     11  O   UNL     1     -38.923  24.477   3.554  0.00  0.00    -0.278 OA
ATOM     12  N   UNL     1     -40.462  26.181   3.646  0.00  0.00    -0.330 N 
ATOM     13  C   UNL     1     -39.497  25.423   3.019  0.00  0.00    +0.200 C 
ATOM     14  H   UNL     1     -40.723  25.978   4.573  0.00  0.00    +0.145 HD
ATOM     15  H   UNL     1     -40.890  26.927   3.165  0.00  0.00    +0.145 HD
ENDBRANCH  10  13
BRANCH  10  16
ATOM     16  N   UNL     1     -39.928  24.983   0.636  0.00  0.00    +0.393 N 
ATOM     17  C   UNL     1     -40.140  25.694  -0.705  0.00  0.00    -0.095 C 
ATOM     18  C   UNL     1     -41.300  24.580   1.190  0.00  0.00    -0.095 C 
ATOM     19  C   UNL     1     -39.116  23.709   0.383  0.00  0.00    -0.095 C 
ENDBRANCH  10  16
ENDBRANCH   9  10
ENDBRANCH   8   9
ENDBRANCH   3   8
BRANCH   4  20
ATOM     20  C   UNL     1     -34.757  23.912   5.132  0.00  0.00    +0.031 C 
BRANCH  20  21
ATOM     21  CA  UNL     1     -35.858  22.824   5.018  0.00  0.00    +0.041 C 
BRANCH  21  22
ATOM     22  N   UNL     1     -35.894  21.988   6.219  0.00  0.00    +0.389 N 
ATOM     23  H1  UNL     1     -36.557  22.381   6.888  0.00  0.00    -0.088 HD
ATOM     24  H2  UNL     1     -34.966  21.955   6.639  0.00  0.00    -0.088 HD
ATOM     25  H3  UNL     1     -36.186  21.043   5.967  0.00  0.00    -0.088 HD
ENDBRANCH  21  22
BRANCH  21  27
ATOM     26  OXT UNL     1     -35.514  22.230   2.674  0.00  0.00    -0.253 OA
ATOM     27  C   UNL     1     -35.582  21.899   3.849  0.00  0.00    +0.293 C 
BRANCH  27  28
ATOM     28  O   UNL     1     -35.386  20.628   4.282  0.00  0.00    -0.482 OA
ATOM     29  H   UNL     1     -35.910  19.930   3.940  0.00  0.00    +0.295 HD
ENDBRANCH  27  28
ENDBRANCH  21  27
ENDBRANCH  20  21
ENDBRANCH   4  20
TORSDOF 10
ENDMDL
MODEL 9
REMARK VINA RESULT:      -5.1      1.897      2.229
REMARK  Name = 5460185
REMARK  10 active torsions:
REMARK  status: ('A' for Active; 'I' for Inactive)
REMARK    1  A    between atoms: C_3  and  C_8
REMARK    2  A    between atoms: C_4  and  C_20
REMARK    3  A    between atoms: C_8  and  C_9
REMARK    4  A    between atoms: C_9  and  C_10
REMARK    5  A    between atoms: C_10  and  C_13
REMARK    6  A    between atoms: C_10  and  N_16
REMARK    7  A    between atoms: C_20  and  CA_21
REMARK    8  A    between atoms: CA_21  and  N_22
REMARK    9  A    between atoms: CA_21  and  C_27
REMARK   10  A    between atoms: C_27  and  O_28
REMARK                            x       y       z     vdW  Elec       q    Type
REMARK                         _______ _______ _______ _____ _____    ______ ____
ROOT
ATOM      1  N   UNL     1     -35.406  22.954   4.192  0.00  0.00    -0.321 N 
ATOM      2  N   UNL     1     -35.320  21.202   5.553  0.00  0.00    -0.317 N 
ATOM      3  C   UNL     1     -35.347  21.613   4.326  0.00  0.00    +0.143 C 
ATOM      4  C   UNL     1     -35.417  23.464   5.461  0.00  0.00    +0.036 C 
ATOM      5  C   UNL     1     -35.363  22.363   6.283  0.00  0.00    +0.069 C 
ATOM      6  H   UNL     1     -35.435  23.464   3.351  0.00  0.00    +0.148 HD
ATOM      7  H   UNL     1     -35.276  20.275   5.885  0.00  0.00    +0.148 HD
ENDROOT
BRANCH   3   8
ATOM      8  C   UNL     1     -35.320  20.730   3.103  0.00  0.00    +0.039 C 
BRANCH   8   9
ATOM      9  C   UNL     1     -36.110  21.310   1.922  0.00  0.00    -0.008 C 
BRANCH   9  10
ATOM     10  C   UNL     1     -37.254  20.434   1.394  0.00  0.00    +0.024 C 
BRANCH  10  13
ATOM     11  O   UNL     1     -36.073  19.847  -0.639  0.00  0.00    -0.278 OA
ATOM     12  N   UNL     1     -37.125  18.178   0.539  0.00  0.00    -0.330 N 
ATOM     13  C   UNL     1     -36.747  19.485   0.323  0.00  0.00    +0.200 C 
ATOM     14  H   UNL     1     -36.852  17.474  -0.093  0.00  0.00    +0.145 HD
ATOM     15  H   UNL     1     -37.669  17.947   1.328  0.00  0.00    +0.145 HD
ENDBRANCH  10  13
BRANCH  10  16
ATOM     16  N   UNL     1     -38.332  21.298   0.833  0.00  0.00    +0.393 N 
ATOM     17  C   UNL     1     -39.148  20.531  -0.213  0.00  0.00    -0.095 C 
ATOM     18  C   UNL     1     -37.733  22.539   0.162  0.00  0.00    -0.095 C 
ATOM     19  C   UNL     1     -39.283  21.760   1.942  0.00  0.00    -0.095 C 
ENDBRANCH  10  16
ENDBRANCH   9  10
ENDBRANCH   8   9
ENDBRANCH   3   8
BRANCH   4  20
ATOM     20  C   UNL     1     -35.476  24.907   5.736  0.00  0.00    +0.031 C 
BRANCH  20  21
ATOM     21  CA  UNL     1     -34.538  25.761   4.842  0.00  0.00    +0.041 C 
BRANCH  21  22
ATOM     22  N   UNL     1     -33.872  26.802   5.626  0.00  0.00    +0.389 N 
ATOM     23  H1  UNL     1     -33.477  27.502   4.997  0.00  0.00    -0.088 HD
ATOM     24  H2  UNL     1     -33.126  26.385   6.182  0.00  0.00    -0.088 HD
ATOM     25  H3  UNL     1     -34.549  27.248   6.246  0.00  0.00    -0.088 HD
ENDBRANCH  21  22
BRANCH  21  27
ATOM     26  OXT UNL     1     -35.992  25.924   2.886  0.00  0.00    -0.253 OA
ATOM     27  C   UNL     1     -35.325  26.467   3.756  0.00  0.00    +0.293 C 
BRANCH  27  28
ATOM     28  O   UNL     1     -35.217  27.813   3.887  0.00  0.00    -0.482 OA
ATOM     29  H   UNL     1     -34.377  28.224   3.828  0.00  0.00    +0.295 HD
ENDBRANCH  27  28
ENDBRANCH  21  27
ENDBRANCH  20  21
ENDBRANCH   4  20
TORSDOF 10
ENDMDL
