MODEL 1
REMARK VINA RESULT:      -6.8      0.000      0.000
REMARK  Name = 20841333
REMARK  6 active torsions:
REMARK  status: ('A' for Active; 'I' for Inactive)
REMARK    1  A    between atoms: C_8  and  O_19
REMARK    2  A    between atoms: C_14  and  C_17
REMARK    3  A    between atoms: O_19  and  C_25
REMARK    4  A    between atoms: C_21  and  O_32
REMARK    5  A    between atoms: C_22  and  N_28
REMARK    6  A    between atoms: C_23  and  O_34
REMARK                            x       y       z     vdW  Elec       q    Type
REMARK                         _______ _______ _______ _____ _____    ______ ____
ROOT
ATOM      1  O   UNL     1     -38.860  20.760  -0.813  0.00  0.00    -0.274 OA
ATOM      2  N   UNL     1     -38.291  18.524  -0.644  0.00  0.00    -0.275 N 
ATOM      3  N   UNL     1     -35.408  18.639  -0.130  0.00  0.00    -0.272 NA
ATOM      4  C   UNL     1     -37.574  17.439   0.013  0.00  0.00    +0.104 C 
ATOM      5  C   UNL     1     -38.212  16.150  -0.485  0.00  0.00    +0.045 C 
ATOM      6  C   UNL     1     -39.199  18.051  -1.676  0.00  0.00    +0.116 C 
ATOM      7  C   UNL     1     -38.899  16.588  -1.747  0.00  0.00    -0.027 C 
ATOM      8  C   UNL     1     -36.596  21.656   2.581  0.00  0.00    +0.138 C 
ATOM      9  C   UNL     1     -38.178  19.865  -0.316  0.00  0.00    +0.235 C 
ATOM     10  C   UNL     1     -37.156  20.229   0.701  0.00  0.00    +0.141 C 
ATOM     11  C   UNL     1     -36.160  17.638  -0.465  0.00  0.00    +0.145 C 
ATOM     12  C   UNL     1     -37.501  21.245   1.604  0.00  0.00    +0.026 C 
ATOM     13  C   UNL     1     -35.884  19.621   0.763  0.00  0.00    +0.066 C 
ATOM     14  C   UNL     1     -39.109  15.813  -2.818  0.00  0.00    -0.033 C 
ATOM     15  C   UNL     1     -35.339  21.065   2.654  0.00  0.00    +0.038 C 
ATOM     16  C   UNL     1     -34.988  20.061   1.750  0.00  0.00    +0.018 C 
ENDROOT
BRANCH  14  17
ATOM     17  C   UNL     1     -38.682  14.378  -2.911  0.00  0.00    +0.025 C 
ATOM     18  C   UNL     1     -39.801  13.439  -2.491  0.00  0.00    +0.005 C 
ENDBRANCH  14  17
BRANCH   8  19
ATOM     19  O   UNL     1     -36.940  22.636   3.461  0.00  0.00    -0.451 OA
BRANCH  19  25
ATOM     20  O   UNL     1     -36.330  24.359   1.951  0.00  0.00    -0.323 OA
ATOM     21  C   UNL     1     -36.122  25.398   4.659  0.00  0.00    +0.104 C 
ATOM     22  C   UNL     1     -35.117  25.774   3.536  0.00  0.00    -0.006 C 
ATOM     23  C   UNL     1     -37.458  24.942   4.027  0.00  0.00    +0.204 C 
ATOM     24  C   UNL     1     -35.031  24.651   2.479  0.00  0.00    +0.102 C 
ATOM     25  C   UNL     1     -37.279  23.903   2.918  0.00  0.00    +0.318 C 
ATOM     26  C   UNL     1     -35.580  24.331   5.627  0.00  0.00    +0.030 C 
ATOM     27  C   UNL     1     -34.164  25.030   1.278  0.00  0.00    +0.030 C 
BRANCH  22  28
ATOM     28  N   UNL     1     -33.794  26.093   4.084  0.00  0.00    +0.387 N 
ATOM     29  C   UNL     1     -33.460  27.486   3.836  0.00  0.00    -0.105 C 
ATOM     30  H   UNL     1     -33.096  25.496   3.641  0.00  0.00    -0.084 HD
ATOM     31  H   UNL     1     -33.809  25.933   5.091  0.00  0.00    -0.084 HD
ENDBRANCH  22  28
BRANCH  21  32
ATOM     32  O   UNL     1     -36.409  26.561   5.449  0.00  0.00    -0.386 OA
ATOM     33  H   UNL     1     -36.084  27.352   4.990  0.00  0.00    +0.210 HD
ENDBRANCH  21  32
BRANCH  23  34
ATOM     34  O   UNL     1     -38.130  26.073   3.454  0.00  0.00    -0.377 OA
ATOM     35  H   UNL     1     -37.473  26.711   3.134  0.00  0.00    +0.211 HD
ENDBRANCH  23  34
ENDBRANCH  19  25
ENDBRANCH   8  19
TORSDOF 6
ENDMDL
MODEL 2
REMARK VINA RESULT:      -6.5      2.324      9.737
REMARK  Name = 20841333
REMARK  6 active torsions:
REMARK  status: ('A' for Active; 'I' for Inactive)
REMARK    1  A    between atoms: C_8  and  O_19
REMARK    2  A    between atoms: C_14  and  C_17
REMARK    3  A    between atoms: O_19  and  C_25
REMARK    4  A    between atoms: C_21  and  O_32
REMARK    5  A    between atoms: C_22  and  N_28
REMARK    6  A    between atoms: C_23  and  O_34
REMARK                            x       y       z     vdW  Elec       q    Type
REMARK                         _______ _______ _______ _____ _____    ______ ____
ROOT
ATOM      1  O   UNL     1     -36.679  26.862   2.415  0.00  0.00    -0.274 OA
ATOM      2  N   UNL     1     -34.587  27.280   3.310  0.00  0.00    -0.275 N 
ATOM      3  N   UNL     1     -34.627  25.705   5.781  0.00  0.00    -0.272 NA
ATOM      4  C   UNL     1     -33.366  26.823   3.960  0.00  0.00    +0.104 C 
ATOM      5  C   UNL     1     -32.350  27.941   3.782  0.00  0.00    +0.045 C 
ATOM      6  C   UNL     1     -34.518  28.675   2.903  0.00  0.00    +0.116 C 
ATOM      7  C   UNL     1     -33.217  29.131   3.483  0.00  0.00    -0.027 C 
ATOM      8  C   UNL     1     -36.272  22.781   3.209  0.00  0.00    +0.138 C 
ATOM      9  C   UNL     1     -35.695  26.489   3.050  0.00  0.00    +0.235 C 
ATOM     10  C   UNL     1     -35.676  25.102   3.587  0.00  0.00    +0.141 C 
ATOM     11  C   UNL     1     -33.805  26.626   5.387  0.00  0.00    +0.145 C 
ATOM     12  C   UNL     1     -36.236  24.105   2.775  0.00  0.00    +0.026 C 
ATOM     13  C   UNL     1     -35.154  24.778   4.857  0.00  0.00    +0.066 C 
ATOM     14  C   UNL     1     -32.918  30.398   3.792  0.00  0.00    -0.033 C 
ATOM     15  C   UNL     1     -35.760  22.448   4.458  0.00  0.00    +0.038 C 
ATOM     16  C   UNL     1     -35.211  23.438   5.273  0.00  0.00    +0.018 C 
ENDROOT
BRANCH  14  17
ATOM     17  C   UNL     1     -31.658  30.816   4.490  0.00  0.00    +0.025 C 
ATOM     18  C   UNL     1     -31.812  30.749   6.001  0.00  0.00    +0.005 C 
ENDBRANCH  14  17
BRANCH   8  19
ATOM     19  O   UNL     1     -36.807  21.817   2.412  0.00  0.00    -0.451 OA
BRANCH  19  25
ATOM     20  O   UNL     1     -37.393  21.035   0.251  0.00  0.00    -0.323 OA
ATOM     21  C   UNL     1     -34.633  20.286   0.780  0.00  0.00    +0.104 C 
ATOM     22  C   UNL     1     -35.620  19.365   0.012  0.00  0.00    -0.006 C 
ATOM     23  C   UNL     1     -35.106  21.755   0.676  0.00  0.00    +0.204 C 
ATOM     24  C   UNL     1     -37.078  19.650   0.436  0.00  0.00    +0.102 C 
ATOM     25  C   UNL     1     -36.588  21.938   1.014  0.00  0.00    +0.318 C 
ATOM     26  C   UNL     1     -34.437  19.875   2.250  0.00  0.00    +0.030 C 
ATOM     27  C   UNL     1     -38.100  18.872  -0.392  0.00  0.00    +0.030 C 
BRANCH  22  28
ATOM     28  N   UNL     1     -35.280  17.949   0.187  0.00  0.00    +0.387 N 
ATOM     29  C   UNL     1     -34.832  17.371  -1.069  0.00  0.00    -0.105 C 
ATOM     30  H   UNL     1     -36.105  17.445   0.513  0.00  0.00    -0.084 HD
ATOM     31  H   UNL     1     -34.528  17.874   0.870  0.00  0.00    -0.084 HD
ENDBRANCH  22  28
BRANCH  21  32
ATOM     32  O   UNL     1     -33.341  20.220   0.159  0.00  0.00    -0.386 OA
ATOM     33  H   UNL     1     -32.963  21.111   0.103  0.00  0.00    +0.210 HD
ENDBRANCH  21  32
BRANCH  23  34
ATOM     34  O   UNL     1     -34.908  22.231  -0.663  0.00  0.00    -0.377 OA
ATOM     35  H   UNL     1     -35.568  21.830  -1.250  0.00  0.00    +0.211 HD
ENDBRANCH  23  34
ENDBRANCH  19  25
ENDBRANCH   8  19
TORSDOF 6
ENDMDL
MODEL 3
REMARK VINA RESULT:      -6.5      2.960     10.405
REMARK  Name = 20841333
REMARK  6 active torsions:
REMARK  status: ('A' for Active; 'I' for Inactive)
REMARK    1  A    between atoms: C_8  and  O_19
REMARK    2  A    between atoms: C_14  and  C_17
REMARK    3  A    between atoms: O_19  and  C_25
REMARK    4  A    between atoms: C_21  and  O_32
REMARK    5  A    between atoms: C_22  and  N_28
REMARK    6  A    between atoms: C_23  and  O_34
REMARK                            x       y       z     vdW  Elec       q    Type
REMARK                         _______ _______ _______ _____ _____    ______ ____
ROOT
ATOM      1  O   UNL     1     -35.462  28.234   2.663  0.00  0.00    -0.274 OA
ATOM      2  N   UNL     1     -33.344  28.365   3.584  0.00  0.00    -0.275 N 
ATOM      3  N   UNL     1     -33.606  26.749   6.015  0.00  0.00    -0.272 NA
ATOM      4  C   UNL     1     -32.196  27.744   4.232  0.00  0.00    +0.104 C 
ATOM      5  C   UNL     1     -31.046  28.730   4.090  0.00  0.00    +0.045 C 
ATOM      6  C   UNL     1     -33.096  29.750   3.213  0.00  0.00    +0.116 C 
ATOM      7  C   UNL     1     -31.754  30.026   3.814  0.00  0.00    -0.027 C 
ATOM      8  C   UNL     1     -35.576  24.117   3.358  0.00  0.00    +0.138 C 
ATOM      9  C   UNL     1     -34.539  27.726   3.296  0.00  0.00    +0.235 C 
ATOM     10  C   UNL     1     -34.699  26.335   3.799  0.00  0.00    +0.141 C 
ATOM     11  C   UNL     1     -32.671  27.570   5.651  0.00  0.00    +0.145 C 
ATOM     12  C   UNL     1     -35.371  25.436   2.957  0.00  0.00    +0.026 C 
ATOM     13  C   UNL     1     -34.235  25.918   5.064  0.00  0.00    +0.066 C 
ATOM     14  C   UNL     1     -31.303  31.238   4.157  0.00  0.00    -0.033 C 
ATOM     15  C   UNL     1     -35.123  23.692   4.602  0.00  0.00    +0.038 C 
ATOM     16  C   UNL     1     -34.464  24.586   5.447  0.00  0.00    +0.018 C 
ENDROOT
BRANCH  14  17
ATOM     17  C   UNL     1     -30.008  31.478   4.875  0.00  0.00    +0.025 C 
ATOM     18  C   UNL     1     -29.090  32.387   4.073  0.00  0.00    +0.005 C 
ENDBRANCH  14  17
BRANCH   8  19
ATOM     19  O   UNL     1     -36.219  23.246   2.533  0.00  0.00    -0.451 OA
BRANCH  19  25
ATOM     20  O   UNL     1     -34.666  21.583   1.866  0.00  0.00    -0.323 OA
ATOM     21  C   UNL     1     -37.239  20.970   0.659  0.00  0.00    +0.104 C 
ATOM     22  C   UNL     1     -35.891  20.747  -0.080  0.00  0.00    -0.006 C 
ATOM     23  C   UNL     1     -37.000  20.970   2.187  0.00  0.00    +0.204 C 
ATOM     24  C   UNL     1     -34.810  21.717   0.447  0.00  0.00    +0.102 C 
ATOM     25  C   UNL     1     -35.846  21.878   2.618  0.00  0.00    +0.318 C 
ATOM     26  C   UNL     1     -37.969  22.251   0.217  0.00  0.00    +0.030 C 
ATOM     27  C   UNL     1     -33.428  21.444  -0.144  0.00  0.00    +0.030 C 
BRANCH  22  28
ATOM     28  N   UNL     1     -36.049  20.863  -1.533  0.00  0.00    +0.387 N 
ATOM     29  C   UNL     1     -35.830  19.579  -2.177  0.00  0.00    -0.105 C 
ATOM     30  H   UNL     1     -35.371  21.538  -1.890  0.00  0.00    -0.084 HD
ATOM     31  H   UNL     1     -36.998  21.176  -1.736  0.00  0.00    -0.084 HD
ENDBRANCH  22  28
BRANCH  21  32
ATOM     32  O   UNL     1     -38.123  19.875   0.375  0.00  0.00    -0.386 OA
ATOM     33  H   UNL     1     -37.663  19.223  -0.176  0.00  0.00    +0.210 HD
ENDBRANCH  21  32
BRANCH  23  34
ATOM     34  O   UNL     1     -36.688  19.640   2.625  0.00  0.00    -0.377 OA
ATOM     35  H   UNL     1     -37.125  19.469   3.474  0.00  0.00    +0.211 HD
ENDBRANCH  23  34
ENDBRANCH  19  25
ENDBRANCH   8  19
TORSDOF 6
ENDMDL
MODEL 4
REMARK VINA RESULT:      -6.4      2.608      9.859
REMARK  Name = 20841333
REMARK  6 active torsions:
REMARK  status: ('A' for Active; 'I' for Inactive)
REMARK    1  A    between atoms: C_8  and  O_19
REMARK    2  A    between atoms: C_14  and  C_17
REMARK    3  A    between atoms: O_19  and  C_25
REMARK    4  A    between atoms: C_21  and  O_32
REMARK    5  A    between atoms: C_22  and  N_28
REMARK    6  A    between atoms: C_23  and  O_34
REMARK                            x       y       z     vdW  Elec       q    Type
REMARK                         _______ _______ _______ _____ _____    ______ ____
ROOT
ATOM      1  O   UNL     1     -36.421  27.319   2.089  0.00  0.00    -0.274 OA
ATOM      2  N   UNL     1     -34.405  27.471   3.213  0.00  0.00    -0.275 N 
ATOM      3  N   UNL     1     -34.778  25.606   5.443  0.00  0.00    -0.272 NA
ATOM      4  C   UNL     1     -33.282  26.850   3.904  0.00  0.00    +0.104 C 
ATOM      5  C   UNL     1     -32.188  27.906   3.964  0.00  0.00    +0.045 C 
ATOM      6  C   UNL     1     -34.212  28.897   3.001  0.00  0.00    +0.116 C 
ATOM      7  C   UNL     1     -32.949  29.183   3.748  0.00  0.00    -0.027 C 
ATOM      8  C   UNL     1     -36.337  23.152   2.375  0.00  0.00    +0.138 C 
ATOM      9  C   UNL     1     -35.527  26.800   2.755  0.00  0.00    +0.235 C 
ATOM     10  C   UNL     1     -35.644  25.360   3.106  0.00  0.00    +0.141 C 
ATOM     11  C   UNL     1     -33.868  26.509   5.248  0.00  0.00    +0.145 C 
ATOM     12  C   UNL     1     -36.181  24.514   2.123  0.00  0.00    +0.026 C 
ATOM     13  C   UNL     1     -35.268  24.842   4.363  0.00  0.00    +0.066 C 
ATOM     14  C   UNL     1     -32.606  30.376   4.246  0.00  0.00    -0.033 C 
ATOM     15  C   UNL     1     -35.970  22.630   3.610  0.00  0.00    +0.038 C 
ATOM     16  C   UNL     1     -35.445  23.469   4.594  0.00  0.00    +0.018 C 
ENDROOT
BRANCH  14  17
ATOM     17  C   UNL     1     -31.397  30.613   5.101  0.00  0.00    +0.025 C 
ATOM     18  C   UNL     1     -31.679  30.292   6.560  0.00  0.00    +0.005 C 
ENDBRANCH  14  17
BRANCH   8  19
ATOM     19  O   UNL     1     -36.850  22.336   1.414  0.00  0.00    -0.451 OA
BRANCH  19  25
ATOM     20  O   UNL     1     -37.631  20.116   1.122  0.00  0.00    -0.323 OA
ATOM     21  C   UNL     1     -39.724  21.944   0.265  0.00  0.00    +0.104 C 
ATOM     22  C   UNL     1     -39.429  20.605  -0.464  0.00  0.00    -0.006 C 
ATOM     23  C   UNL     1     -39.215  21.864   1.723  0.00  0.00    +0.204 C 
ATOM     24  C   UNL     1     -37.954  20.189  -0.272  0.00  0.00    +0.102 C 
ATOM     25  C   UNL     1     -37.778  21.347   1.834  0.00  0.00    +0.318 C 
ATOM     26  C   UNL     1     -39.135  23.170  -0.456  0.00  0.00    +0.030 C 
ATOM     27  C   UNL     1     -37.646  18.807  -0.848  0.00  0.00    +0.030 C 
BRANCH  22  28
ATOM     28  N   UNL     1     -39.783  20.677  -1.885  0.00  0.00    +0.387 N 
ATOM     29  C   UNL     1     -40.906  19.804  -2.179  0.00  0.00    -0.105 C 
ATOM     30  H   UNL     1     -38.979  20.391  -2.445  0.00  0.00    -0.084 HD
ATOM     31  H   UNL     1     -40.045  21.637  -2.110  0.00  0.00    -0.084 HD
ENDBRANCH  22  28
BRANCH  21  32
ATOM     32  O   UNL     1     -41.143  22.148   0.329  0.00  0.00    -0.386 OA
ATOM     33  H   UNL     1     -41.593  21.443  -0.161  0.00  0.00    +0.210 HD
ENDBRANCH  21  32
BRANCH  23  34
ATOM     34  O   UNL     1     -40.052  20.976   2.477  0.00  0.00    -0.377 OA
ATOM     35  H   UNL     1     -40.860  21.441   2.743  0.00  0.00    +0.211 HD
ENDBRANCH  23  34
ENDBRANCH  19  25
ENDBRANCH   8  19
TORSDOF 6
ENDMDL
MODEL 5
REMARK VINA RESULT:      -6.4      5.379     11.602
REMARK  Name = 20841333
REMARK  6 active torsions:
REMARK  status: ('A' for Active; 'I' for Inactive)
REMARK    1  A    between atoms: C_8  and  O_19
REMARK    2  A    between atoms: C_14  and  C_17
REMARK    3  A    between atoms: O_19  and  C_25
REMARK    4  A    between atoms: C_21  and  O_32
REMARK    5  A    between atoms: C_22  and  N_28
REMARK    6  A    between atoms: C_23  and  O_34
REMARK                            x       y       z     vdW  Elec       q    Type
REMARK                         _______ _______ _______ _____ _____    ______ ____
ROOT
ATOM      1  O   UNL     1     -33.524  30.795   1.595  0.00  0.00    -0.274 OA
ATOM      2  N   UNL     1     -35.274  32.245   1.162  0.00  0.00    -0.275 N 
ATOM      3  N   UNL     1     -36.612  30.964  -1.109  0.00  0.00    -0.272 NA
ATOM      4  C   UNL     1     -36.674  32.491   0.845  0.00  0.00    +0.104 C 
ATOM      5  C   UNL     1     -36.923  33.961   1.151  0.00  0.00    +0.045 C 
ATOM      6  C   UNL     1     -34.541  33.467   1.452  0.00  0.00    +0.116 C 
ATOM      7  C   UNL     1     -35.537  34.540   1.143  0.00  0.00    -0.027 C 
ATOM      8  C   UNL     1     -36.083  27.510   1.269  0.00  0.00    +0.138 C 
ATOM      9  C   UNL     1     -34.682  30.994   1.233  0.00  0.00    +0.235 C 
ATOM     10  C   UNL     1     -35.515  29.828   0.835  0.00  0.00    +0.141 C 
ATOM     11  C   UNL     1     -36.746  32.158  -0.622  0.00  0.00    +0.145 C 
ATOM     12  C   UNL     1     -35.351  28.653   1.584  0.00  0.00    +0.026 C 
ATOM     13  C   UNL     1     -36.414  29.862  -0.251  0.00  0.00    +0.066 C 
ATOM     14  C   UNL     1     -35.229  35.796   0.801  0.00  0.00    -0.033 C 
ATOM     15  C   UNL     1     -36.974  27.530   0.201  0.00  0.00    +0.038 C 
ATOM     16  C   UNL     1     -37.132  28.694  -0.553  0.00  0.00    +0.018 C 
ENDROOT
BRANCH  14  17
ATOM     17  C   UNL     1     -36.238  36.819   0.371  0.00  0.00    +0.025 C 
ATOM     18  C   UNL     1     -35.634  38.214   0.338  0.00  0.00    +0.005 C 
ENDBRANCH  14  17
BRANCH   8  19
ATOM     19  O   UNL     1     -35.927  26.376   2.005  0.00  0.00    -0.451 OA
BRANCH  19  25
ATOM     20  O   UNL     1     -36.116  26.403   4.368  0.00  0.00    -0.323 OA
ATOM     21  C   UNL     1     -36.508  23.672   3.449  0.00  0.00    +0.104 C 
ATOM     22  C   UNL     1     -35.744  24.016   4.757  0.00  0.00    -0.006 C 
ATOM     23  C   UNL     1     -37.463  24.833   3.086  0.00  0.00    +0.204 C 
ATOM     24  C   UNL     1     -35.114  25.424   4.670  0.00  0.00    +0.102 C 
ATOM     25  C   UNL     1     -36.787  26.206   3.122  0.00  0.00    +0.318 C 
ATOM     26  C   UNL     1     -35.575  23.339   2.271  0.00  0.00    +0.030 C 
ATOM     27  C   UNL     1     -34.473  25.870   5.984  0.00  0.00    +0.030 C 
BRANCH  22  28
ATOM     28  N   UNL     1     -34.736  22.999   5.074  0.00  0.00    +0.387 N 
ATOM     29  C   UNL     1     -35.140  22.220   6.232  0.00  0.00    -0.105 C 
ATOM     30  H   UNL     1     -33.847  23.460   5.272  0.00  0.00    -0.084 HD
ATOM     31  H   UNL     1     -34.638  22.374   4.275  0.00  0.00    -0.084 HD
ENDBRANCH  22  28
BRANCH  21  32
ATOM     32  O   UNL     1     -37.324  22.512   3.667  0.00  0.00    -0.386 OA
ATOM     33  H   UNL     1     -38.227  22.789   3.888  0.00  0.00    +0.210 HD
ENDBRANCH  21  32
BRANCH  23  34
ATOM     34  O   UNL     1     -38.555  24.866   4.016  0.00  0.00    -0.377 OA
ATOM     35  H   UNL     1     -38.686  23.982   4.393  0.00  0.00    +0.211 HD
ENDBRANCH  23  34
ENDBRANCH  19  25
ENDBRANCH   8  19
TORSDOF 6
ENDMDL
MODEL 6
REMARK VINA RESULT:      -6.4      6.287     10.125
REMARK  Name = 20841333
REMARK  6 active torsions:
REMARK  status: ('A' for Active; 'I' for Inactive)
REMARK    1  A    between atoms: C_8  and  O_19
REMARK    2  A    between atoms: C_14  and  C_17
REMARK    3  A    between atoms: O_19  and  C_25
REMARK    4  A    between atoms: C_21  and  O_32
REMARK    5  A    between atoms: C_22  and  N_28
REMARK    6  A    between atoms: C_23  and  O_34
REMARK                            x       y       z     vdW  Elec       q    Type
REMARK                         _______ _______ _______ _____ _____    ______ ____
ROOT
ATOM      1  O   UNL     1     -36.460  27.118   0.828  0.00  0.00    -0.274 OA
ATOM      2  N   UNL     1     -35.902  26.560   3.002  0.00  0.00    -0.275 N 
ATOM      3  N   UNL     1     -33.554  28.240   3.507  0.00  0.00    -0.272 NA
ATOM      4  C   UNL     1     -35.491  26.938   4.348  0.00  0.00    +0.104 C 
ATOM      5  C   UNL     1     -35.771  25.729   5.229  0.00  0.00    +0.045 C 
ATOM      6  C   UNL     1     -36.233  25.148   2.893  0.00  0.00    +0.116 C 
ATOM      7  C   UNL     1     -35.852  24.606   4.234  0.00  0.00    -0.027 C 
ATOM      8  C   UNL     1     -35.983  31.178   1.681  0.00  0.00    +0.138 C 
ATOM      9  C   UNL     1     -36.020  27.431   1.932  0.00  0.00    +0.235 C 
ATOM     10  C   UNL     1     -35.574  28.833   2.149  0.00  0.00    +0.141 C 
ATOM     11  C   UNL     1     -34.025  27.234   4.175  0.00  0.00    +0.145 C 
ATOM     12  C   UNL     1     -36.339  29.838   1.538  0.00  0.00    +0.026 C 
ATOM     13  C   UNL     1     -34.430  29.167   2.904  0.00  0.00    +0.066 C 
ATOM     14  C   UNL     1     -35.524  23.333   4.482  0.00  0.00    -0.033 C 
ATOM     15  C   UNL     1     -34.857  31.521   2.422  0.00  0.00    +0.038 C 
ATOM     16  C   UNL     1     -34.088  30.524   3.022  0.00  0.00    +0.018 C 
ENDROOT
BRANCH  14  17
ATOM     17  C   UNL     1     -35.021  22.839   5.806  0.00  0.00    +0.025 C 
ATOM     18  C   UNL     1     -35.209  21.337   5.944  0.00  0.00    +0.005 C 
ENDBRANCH  14  17
BRANCH   8  19
ATOM     19  O   UNL     1     -36.734  32.149   1.094  0.00  0.00    -0.451 OA
BRANCH  19  25
ATOM     20  O   UNL     1     -39.068  31.884   1.417  0.00  0.00    -0.323 OA
ATOM     21  C   UNL     1     -38.600  34.495   0.228  0.00  0.00    +0.104 C 
ATOM     22  C   UNL     1     -39.818  33.608  -0.149  0.00  0.00    -0.006 C 
ATOM     23  C   UNL     1     -38.083  34.099   1.631  0.00  0.00    +0.204 C 
ATOM     24  C   UNL     1     -39.495  32.113   0.069  0.00  0.00    +0.102 C 
ATOM     25  C   UNL     1     -37.886  32.591   1.798  0.00  0.00    +0.318 C 
ATOM     26  C   UNL     1     -37.465  34.442  -0.811  0.00  0.00    +0.030 C 
ATOM     27  C   UNL     1     -40.705  31.206  -0.149  0.00  0.00    +0.030 C 
BRANCH  22  28
ATOM     28  N   UNL     1     -40.264  33.863  -1.522  0.00  0.00    +0.387 N 
ATOM     29  C   UNL     1     -41.561  34.520  -1.525  0.00  0.00    -0.105 C 
ATOM     30  H   UNL     1     -40.336  32.976  -2.021  0.00  0.00    -0.084 HD
ATOM     31  H   UNL     1     -39.586  34.472  -1.980  0.00  0.00    -0.084 HD
ENDBRANCH  22  28
BRANCH  21  32
ATOM     32  O   UNL     1     -39.017  35.866   0.309  0.00  0.00    -0.386 OA
ATOM     33  H   UNL     1     -38.362  36.431  -0.130  0.00  0.00    +0.210 HD
ENDBRANCH  21  32
BRANCH  23  34
ATOM     34  O   UNL     1     -39.023  34.524   2.628  0.00  0.00    -0.377 OA
ATOM     35  H   UNL     1     -39.332  35.420   2.420  0.00  0.00    +0.211 HD
ENDBRANCH  23  34
ENDBRANCH  19  25
ENDBRANCH   8  19
TORSDOF 6
ENDMDL
MODEL 7
REMARK VINA RESULT:      -6.3      1.507      2.183
REMARK  Name = 20841333
REMARK  6 active torsions:
REMARK  status: ('A' for Active; 'I' for Inactive)
REMARK    1  A    between atoms: C_8  and  O_19
REMARK    2  A    between atoms: C_14  and  C_17
REMARK    3  A    between atoms: O_19  and  C_25
REMARK    4  A    between atoms: C_21  and  O_32
REMARK    5  A    between atoms: C_22  and  N_28
REMARK    6  A    between atoms: C_23  and  O_34
REMARK                            x       y       z     vdW  Elec       q    Type
REMARK                         _______ _______ _______ _____ _____    ______ ____
ROOT
ATOM      1  O   UNL     1     -38.546  20.033  -1.177  0.00  0.00    -0.274 OA
ATOM      2  N   UNL     1     -38.280  17.777  -0.740  0.00  0.00    -0.275 N 
ATOM      3  N   UNL     1     -35.367  17.460  -0.788  0.00  0.00    -0.272 NA
ATOM      4  C   UNL     1     -37.606  16.684  -0.052  0.00  0.00    +0.104 C 
ATOM      5  C   UNL     1     -38.511  15.470  -0.202  0.00  0.00    +0.045 C 
ATOM      6  C   UNL     1     -39.441  17.332  -1.496  0.00  0.00    +0.116 C 
ATOM      7  C   UNL     1     -39.374  15.843  -1.373  0.00  0.00    -0.027 C 
ATOM      8  C   UNL     1     -35.524  20.979   1.547  0.00  0.00    +0.138 C 
ATOM      9  C   UNL     1     -37.912  19.110  -0.669  0.00  0.00    +0.235 C 
ATOM     10  C   UNL     1     -36.660  19.427   0.068  0.00  0.00    +0.141 C 
ATOM     11  C   UNL     1     -36.308  16.568  -0.807  0.00  0.00    +0.145 C 
ATOM     12  C   UNL     1     -36.662  20.602   0.835  0.00  0.00    +0.026 C 
ATOM     13  C   UNL     1     -35.503  18.622  -0.001  0.00  0.00    +0.066 C 
ATOM     14  C   UNL     1     -39.909  14.978  -2.241  0.00  0.00    -0.033 C 
ATOM     15  C   UNL     1     -34.378  20.195   1.488  0.00  0.00    +0.038 C 
ATOM     16  C   UNL     1     -34.368  19.032   0.717  0.00  0.00    +0.018 C 
ENDROOT
BRANCH  14  17
ATOM     17  C   UNL     1     -39.721  13.491  -2.168  0.00  0.00    +0.025 C 
ATOM     18  C   UNL     1     -40.837  12.829  -1.376  0.00  0.00    +0.005 C 
ENDBRANCH  14  17
BRANCH   8  19
ATOM     19  O   UNL     1     -35.536  22.115   2.298  0.00  0.00    -0.451 OA
BRANCH  19  25
ATOM     20  O   UNL     1     -37.564  22.692   3.382  0.00  0.00    -0.323 OA
ATOM     21  C   UNL     1     -35.418  24.268   4.552  0.00  0.00    +0.104 C 
ATOM     22  C   UNL     1     -36.842  24.838   4.312  0.00  0.00    -0.006 C 
ATOM     23  C   UNL     1     -35.486  22.726   4.650  0.00  0.00    +0.204 C 
ATOM     24  C   UNL     1     -37.536  24.104   3.142  0.00  0.00    +0.102 C 
ATOM     25  C   UNL     1     -36.277  22.082   3.509  0.00  0.00    +0.318 C 
ATOM     26  C   UNL     1     -34.399  24.706   3.485  0.00  0.00    +0.030 C 
ATOM     27  C   UNL     1     -38.992  24.528   2.955  0.00  0.00    +0.030 C 
BRANCH  22  28
ATOM     28  N   UNL     1     -36.810  26.287   4.088  0.00  0.00    +0.387 N 
ATOM     29  C   UNL     1     -36.592  26.584   2.683  0.00  0.00    -0.105 C 
ATOM     30  H   UNL     1     -36.054  26.694   4.639  0.00  0.00    -0.084 HD
ATOM     31  H   UNL     1     -37.706  26.682   4.372  0.00  0.00    -0.084 HD
ENDBRANCH  22  28
BRANCH  21  32
ATOM     32  O   UNL     1     -34.922  24.744   5.812  0.00  0.00    -0.386 OA
ATOM     33  H   UNL     1     -34.464  24.024   6.273  0.00  0.00    +0.210 HD
ENDBRANCH  21  32
BRANCH  23  34
ATOM     34  O   UNL     1     -36.121  22.349   5.880  0.00  0.00    -0.377 OA
ATOM     35  H   UNL     1     -37.007  22.000   5.693  0.00  0.00    +0.211 HD
ENDBRANCH  23  34
ENDBRANCH  19  25
ENDBRANCH   8  19
TORSDOF 6
ENDMDL
MODEL 8
REMARK VINA RESULT:      -6.3      4.562     12.012
REMARK  Name = 20841333
REMARK  6 active torsions:
REMARK  status: ('A' for Active; 'I' for Inactive)
REMARK    1  A    between atoms: C_8  and  O_19
REMARK    2  A    between atoms: C_14  and  C_17
REMARK    3  A    between atoms: O_19  and  C_25
REMARK    4  A    between atoms: C_21  and  O_32
REMARK    5  A    between atoms: C_22  and  N_28
REMARK    6  A    between atoms: C_23  and  O_34
REMARK                            x       y       z     vdW  Elec       q    Type
REMARK                         _______ _______ _______ _____ _____    ______ ____
ROOT
ATOM      1  O   UNL     1     -32.728  29.628   2.038  0.00  0.00    -0.274 OA
ATOM      2  N   UNL     1     -30.697  30.461   2.769  0.00  0.00    -0.275 N 
ATOM      3  N   UNL     1     -31.169  30.861   5.634  0.00  0.00    -0.272 NA
ATOM      4  C   UNL     1     -29.611  30.496   3.739  0.00  0.00    +0.104 C 
ATOM      5  C   UNL     1     -28.452  31.201   3.048  0.00  0.00    +0.045 C 
ATOM      6  C   UNL     1     -30.418  31.258   1.585  0.00  0.00    +0.116 C 
ATOM      7  C   UNL     1     -29.134  31.941   1.933  0.00  0.00    -0.027 C 
ATOM      8  C   UNL     1     -32.902  27.020   5.296  0.00  0.00    +0.138 C 
ATOM      9  C   UNL     1     -31.863  29.724   2.906  0.00  0.00    +0.235 C 
ATOM     10  C   UNL     1     -32.067  29.015   4.197  0.00  0.00    +0.141 C 
ATOM     11  C   UNL     1     -30.206  31.283   4.876  0.00  0.00    +0.145 C 
ATOM     12  C   UNL     1     -32.663  27.747   4.131  0.00  0.00    +0.026 C 
ATOM     13  C   UNL     1     -31.714  29.573   5.444  0.00  0.00    +0.066 C 
ATOM     14  C   UNL     1     -28.713  33.097   1.407  0.00  0.00    -0.033 C 
ATOM     15  C   UNL     1     -32.558  27.558   6.531  0.00  0.00    +0.038 C 
ATOM     16  C   UNL     1     -31.975  28.824   6.602  0.00  0.00    +0.018 C 
ENDROOT
BRANCH  14  17
ATOM     17  C   UNL     1     -27.485  33.829   1.862  0.00  0.00    +0.025 C 
ATOM     18  C   UNL     1     -27.550  35.302   1.494  0.00  0.00    +0.005 C 
ENDBRANCH  14  17
BRANCH   8  19
ATOM     19  O   UNL     1     -33.472  25.786   5.225  0.00  0.00    -0.451 OA
BRANCH  19  25
ATOM     20  O   UNL     1     -35.186  24.406   6.106  0.00  0.00    -0.323 OA
ATOM     21  C   UNL     1     -35.768  24.911   3.302  0.00  0.00    +0.104 C 
ATOM     22  C   UNL     1     -36.040  23.542   3.982  0.00  0.00    -0.006 C 
ATOM     23  C   UNL     1     -35.737  26.026   4.375  0.00  0.00    +0.204 C 
ATOM     24  C   UNL     1     -35.083  23.322   5.175  0.00  0.00    +0.102 C 
ATOM     25  C   UNL     1     -34.845  25.687   5.572  0.00  0.00    +0.318 C 
ATOM     26  C   UNL     1     -34.482  24.926   2.457  0.00  0.00    +0.030 C 
ATOM     27  C   UNL     1     -35.403  22.055   5.967  0.00  0.00    +0.030 C 
BRANCH  22  28
ATOM     28  N   UNL     1     -35.956  22.438   3.020  0.00  0.00    +0.387 N 
ATOM     29  C   UNL     1     -37.284  22.000   2.625  0.00  0.00    -0.105 C 
ATOM     30  H   UNL     1     -35.458  21.658   3.449  0.00  0.00    -0.084 HD
ATOM     31  H   UNL     1     -35.457  22.762   2.192  0.00  0.00    -0.084 HD
ENDBRANCH  22  28
BRANCH  21  32
ATOM     32  O   UNL     1     -36.849  25.222   2.410  0.00  0.00    -0.386 OA
ATOM     33  H   UNL     1     -36.647  26.041   1.931  0.00  0.00    +0.210 HD
ENDBRANCH  21  32
BRANCH  23  34
ATOM     34  O   UNL     1     -37.063  26.250   4.875  0.00  0.00    -0.377 OA
ATOM     35  H   UNL     1     -37.711  25.938   4.224  0.00  0.00    +0.211 HD
ENDBRANCH  23  34
ENDBRANCH  19  25
ENDBRANCH   8  19
TORSDOF 6
ENDMDL
MODEL 9
REMARK VINA RESULT:      -6.3      4.170     11.441
REMARK  Name = 20841333
REMARK  6 active torsions:
REMARK  status: ('A' for Active; 'I' for Inactive)
REMARK    1  A    between atoms: C_8  and  O_19
REMARK    2  A    between atoms: C_14  and  C_17
REMARK    3  A    between atoms: O_19  and  C_25
REMARK    4  A    between atoms: C_21  and  O_32
REMARK    5  A    between atoms: C_22  and  N_28
REMARK    6  A    between atoms: C_23  and  O_34
REMARK                            x       y       z     vdW  Elec       q    Type
REMARK                         _______ _______ _______ _____ _____    ______ ____
ROOT
ATOM      1  O   UNL     1     -36.310  30.309   2.198  0.00  0.00    -0.274 OA
ATOM      2  N   UNL     1     -34.301  31.450   2.065  0.00  0.00    -0.275 N 
ATOM      3  N   UNL     1     -32.794  30.349   4.324  0.00  0.00    -0.272 NA
ATOM      4  C   UNL     1     -32.845  31.475   2.114  0.00  0.00    +0.104 C 
ATOM      5  C   UNL     1     -32.425  32.794   1.484  0.00  0.00    +0.045 C 
ATOM      6  C   UNL     1     -34.869  32.721   1.645  0.00  0.00    +0.116 C 
ATOM      7  C   UNL     1     -33.676  33.620   1.580  0.00  0.00    -0.027 C 
ATOM      8  C   UNL     1     -34.292  26.702   2.800  0.00  0.00    +0.138 C 
ATOM      9  C   UNL     1     -35.088  30.343   2.337  0.00  0.00    +0.235 C 
ATOM     10  C   UNL     1     -34.394  29.126   2.835  0.00  0.00    +0.141 C 
ATOM     11  C   UNL     1     -32.562  31.392   3.591  0.00  0.00    +0.145 C 
ATOM     12  C   UNL     1     -34.877  27.892   2.372  0.00  0.00    +0.026 C 
ATOM     13  C   UNL     1     -33.318  29.174   3.747  0.00  0.00    +0.066 C 
ATOM     14  C   UNL     1     -33.711  34.952   1.702  0.00  0.00    -0.033 C 
ATOM     15  C   UNL     1     -33.231  26.735   3.698  0.00  0.00    +0.038 C 
ATOM     16  C   UNL     1     -32.754  27.959   4.168  0.00  0.00    +0.018 C 
ENDROOT
BRANCH  14  17
ATOM     17  C   UNL     1     -32.490  35.822   1.761  0.00  0.00    +0.025 C 
ATOM     18  C   UNL     1     -31.909  35.867   3.165  0.00  0.00    +0.005 C 
ENDBRANCH  14  17
BRANCH   8  19
ATOM     19  O   UNL     1     -34.759  25.509   2.341  0.00  0.00    -0.451 OA
BRANCH  19  25
ATOM     20  O   UNL     1     -35.095  23.200   2.764  0.00  0.00    -0.323 OA
ATOM     21  C   UNL     1     -37.636  24.574   3.102  0.00  0.00    +0.104 C 
ATOM     22  C   UNL     1     -37.524  23.160   2.469  0.00  0.00    -0.006 C 
ATOM     23  C   UNL     1     -36.404  24.839   4.000  0.00  0.00    +0.204 C 
ATOM     24  C   UNL     1     -36.139  22.962   1.813  0.00  0.00    +0.102 C 
ATOM     25  C   UNL     1     -35.075  24.521   3.311  0.00  0.00    +0.318 C 
ATOM     26  C   UNL     1     -37.809  25.694   2.062  0.00  0.00    +0.030 C 
ATOM     27  C   UNL     1     -35.923  21.539   1.299  0.00  0.00    +0.030 C 
BRANCH  22  28
ATOM     28  N   UNL     1     -38.608  22.913   1.512  0.00  0.00    +0.387 N 
ATOM     29  C   UNL     1     -39.454  21.823   1.968  0.00  0.00    -0.105 C 
ATOM     30  H   UNL     1     -38.205  22.670   0.606  0.00  0.00    -0.084 HD
ATOM     31  H   UNL     1     -39.174  23.757   1.432  0.00  0.00    -0.084 HD
ENDBRANCH  22  28
BRANCH  21  32
ATOM     32  O   UNL     1     -38.791  24.622   3.954  0.00  0.00    -0.386 OA
ATOM     33  H   UNL     1     -38.652  25.284   4.649  0.00  0.00    +0.210 HD
ENDBRANCH  21  32
BRANCH  23  34
ATOM     34  O   UNL     1     -36.484  24.025   5.179  0.00  0.00    -0.377 OA
ATOM     35  H   UNL     1     -36.761  24.572   5.931  0.00  0.00    +0.211 HD
ENDBRANCH  23  34
ENDBRANCH  19  25
ENDBRANCH   8  19
TORSDOF 6
ENDMDL
