MODEL 1
REMARK VINA RESULT:      -6.7      0.000      0.000
REMARK  Name = 56842876
REMARK  3 active torsions:
REMARK  status: ('A' for Active; 'I' for Inactive)
REMARK    1  A    between atoms: C_8  and  O_23
REMARK    2  A    between atoms: C_12  and  O_25
REMARK    3  A    between atoms: C_19  and  O_27
REMARK                            x       y       z     vdW  Elec       q    Type
REMARK                         _______ _______ _______ _____ _____    ______ ____
ROOT
ATOM      1  O   UNL     1     -39.370  23.106   0.154  0.00  0.00    -0.450 OA
ATOM      2  O   UNL     1     -36.848  19.938   2.091  0.00  0.00    -0.296 OA
ATOM      3  O   UNL     1     -39.599  21.036   1.143  0.00  0.00    -0.250 OA
ATOM      4  C   UNL     1     -36.877  23.471   1.618  0.00  0.00    +0.040 C 
ATOM      5  C   UNL     1     -36.465  22.075   1.005  0.00  0.00    +0.064 C 
ATOM      6  C   UNL     1     -35.957  24.001   2.795  0.00  0.00    +0.034 C 
ATOM      7  C   UNL     1     -37.543  21.636  -0.047  0.00  0.00    +0.109 C 
ATOM      8  C   UNL     1     -37.395  24.466   0.532  0.00  0.00    +0.151 C 
ATOM      9  C   UNL     1     -36.024  22.885   3.917  0.00  0.00    +0.028 C 
ATOM     10  C   UNL     1     -37.581  22.619  -1.220  0.00  0.00    +0.054 C 
ATOM     11  C   UNL     1     -38.288  23.771  -0.526  0.00  0.00    +0.196 C 
ATOM     12  C   UNL     1     -36.553  25.301   3.441  0.00  0.00    +0.142 C 
ATOM     13  C   UNL     1     -36.382  21.076   2.167  0.00  0.00    +0.151 C 
ATOM     14  C   UNL     1     -35.591  21.503   3.397  0.00  0.00    +0.069 C 
ATOM     15  C   UNL     1     -35.091  22.030   0.299  0.00  0.00    +0.008 C 
ATOM     16  C   UNL     1     -34.503  24.294   2.354  0.00  0.00    +0.003 C 
ATOM     17  C   UNL     1     -38.951  21.837   0.491  0.00  0.00    +0.317 C 
ATOM     18  C   UNL     1     -35.367  23.307   5.225  0.00  0.00    -0.046 C 
ATOM     19  C   UNL     1     -35.834  25.729   4.735  0.00  0.00    +0.159 C 
ATOM     20  C   UNL     1     -38.364  22.074  -2.419  0.00  0.00    +0.004 C 
ATOM     21  C   UNL     1     -35.311  24.604   5.574  0.00  0.00    -0.003 C 
ATOM     22  C   UNL     1     -34.856  22.251   6.164  0.00  0.00    +0.026 C 
ENDROOT
BRANCH   8  23
ATOM     23  O   UNL     1     -36.315  25.112  -0.126  0.00  0.00    -0.381 OA
ATOM     24  H   UNL     1     -36.584  25.356  -1.025  0.00  0.00    +0.210 HD
ENDBRANCH   8  23
BRANCH  12  25
ATOM     25  O   UNL     1     -36.452  26.396   2.527  0.00  0.00    -0.382 OA
ATOM     26  H   UNL     1     -37.321  26.572   2.134  0.00  0.00    +0.210 HD
ENDBRANCH  12  25
BRANCH  19  27
ATOM     27  O   UNL     1     -36.743  26.484   5.539  0.00  0.00    -0.378 OA
ATOM     28  H   UNL     1     -37.582  26.591   5.064  0.00  0.00    +0.211 HD
ENDBRANCH  19  27
TORSDOF 3
ENDMDL
MODEL 2
REMARK VINA RESULT:      -6.6      2.400      4.352
REMARK  Name = 56842876
REMARK  3 active torsions:
REMARK  status: ('A' for Active; 'I' for Inactive)
REMARK    1  A    between atoms: C_8  and  O_23
REMARK    2  A    between atoms: C_12  and  O_25
REMARK    3  A    between atoms: C_19  and  O_27
REMARK                            x       y       z     vdW  Elec       q    Type
REMARK                         _______ _______ _______ _____ _____    ______ ____
ROOT
ATOM      1  O   UNL     1     -32.996  21.615  -0.301  0.00  0.00    -0.450 OA
ATOM      2  O   UNL     1     -33.634  25.937   0.730  0.00  0.00    -0.296 OA
ATOM      3  O   UNL     1     -31.825  23.599  -0.238  0.00  0.00    -0.250 OA
ATOM      4  C   UNL     1     -34.867  22.719   1.641  0.00  0.00    +0.040 C 
ATOM      5  C   UNL     1     -34.994  23.929   0.634  0.00  0.00    +0.064 C 
ATOM      6  C   UNL     1     -35.477  22.960   3.083  0.00  0.00    +0.034 C 
ATOM      7  C   UNL     1     -34.232  23.579  -0.691  0.00  0.00    +0.109 C 
ATOM      8  C   UNL     1     -35.066  21.339   0.937  0.00  0.00    +0.151 C 
ATOM      9  C   UNL     1     -34.707  24.218   3.661  0.00  0.00    +0.028 C 
ATOM     10  C   UNL     1     -34.884  22.380  -1.386  0.00  0.00    +0.054 C 
ATOM     11  C   UNL     1     -34.390  21.285  -0.456  0.00  0.00    +0.196 C 
ATOM     12  C   UNL     1     -35.144  21.768   4.048  0.00  0.00    +0.142 C 
ATOM     13  C   UNL     1     -34.382  25.157   1.321  0.00  0.00    +0.151 C 
ATOM     14  C   UNL     1     -34.827  25.451   2.748  0.00  0.00    +0.069 C 
ATOM     15  C   UNL     1     -36.436  24.329   0.242  0.00  0.00    +0.008 C 
ATOM     16  C   UNL     1     -37.010  23.172   3.076  0.00  0.00    +0.003 C 
ATOM     17  C   UNL     1     -32.864  22.983  -0.399  0.00  0.00    +0.317 C 
ATOM     18  C   UNL     1     -35.005  24.483   5.131  0.00  0.00    -0.046 C 
ATOM     19  C   UNL     1     -35.505  22.049   5.520  0.00  0.00    +0.159 C 
ATOM     20  C   UNL     1     -34.399  22.201  -2.829  0.00  0.00    +0.004 C 
ATOM     21  C   UNL     1     -35.349  23.475   5.951  0.00  0.00    -0.003 C 
ATOM     22  C   UNL     1     -34.829  25.872   5.677  0.00  0.00    +0.026 C 
ENDROOT
BRANCH   8  23
ATOM     23  O   UNL     1     -36.445  21.031   0.796  0.00  0.00    -0.381 OA
ATOM     24  H   UNL     1     -36.976  21.735   1.200  0.00  0.00    +0.210 HD
ENDBRANCH   8  23
BRANCH  12  25
ATOM     25  O   UNL     1     -35.872  20.600   3.658  0.00  0.00    -0.382 OA
ATOM     26  H   UNL     1     -36.473  20.821   2.930  0.00  0.00    +0.210 HD
ENDBRANCH  12  25
BRANCH  19  27
ATOM     27  O   UNL     1     -34.671  21.248   6.360  0.00  0.00    -0.378 OA
ATOM     28  H   UNL     1     -35.222  20.765   6.996  0.00  0.00    +0.211 HD
ENDBRANCH  19  27
TORSDOF 3
ENDMDL
MODEL 3
REMARK VINA RESULT:      -6.5      2.106      3.449
REMARK  Name = 56842876
REMARK  3 active torsions:
REMARK  status: ('A' for Active; 'I' for Inactive)
REMARK    1  A    between atoms: C_8  and  O_23
REMARK    2  A    between atoms: C_12  and  O_25
REMARK    3  A    between atoms: C_19  and  O_27
REMARK                            x       y       z     vdW  Elec       q    Type
REMARK                         _______ _______ _______ _____ _____    ______ ____
ROOT
ATOM      1  O   UNL     1     -40.798  25.055   2.298  0.00  0.00    -0.450 OA
ATOM      2  O   UNL     1     -38.626  22.516  -0.700  0.00  0.00    -0.296 OA
ATOM      3  O   UNL     1     -41.203  23.307   0.850  0.00  0.00    -0.250 OA
ATOM      4  C   UNL     1     -37.975  24.329   2.299  0.00  0.00    +0.040 C 
ATOM      5  C   UNL     1     -38.089  24.405   0.726  0.00  0.00    +0.064 C 
ATOM      6  C   UNL     1     -36.661  23.643   2.859  0.00  0.00    +0.034 C 
ATOM      7  C   UNL     1     -39.494  24.987   0.339  0.00  0.00    +0.109 C 
ATOM      8  C   UNL     1     -38.539  25.606   2.998  0.00  0.00    +0.151 C 
ATOM      9  C   UNL     1     -36.658  22.180   2.252  0.00  0.00    +0.028 C 
ATOM     10  C   UNL     1     -39.639  26.425   0.845  0.00  0.00    +0.054 C 
ATOM     11  C   UNL     1     -39.833  26.125   2.321  0.00  0.00    +0.196 C 
ATOM     12  C   UNL     1     -36.731  23.465   4.416  0.00  0.00    +0.142 C 
ATOM     13  C   UNL     1     -37.909  22.979   0.188  0.00  0.00    +0.151 C 
ATOM     14  C   UNL     1     -36.723  22.182   0.714  0.00  0.00    +0.069 C 
ATOM     15  C   UNL     1     -37.024  25.272   0.016  0.00  0.00    +0.008 C 
ATOM     16  C   UNL     1     -35.368  24.417   2.511  0.00  0.00    +0.003 C 
ATOM     17  C   UNL     1     -40.603  24.327   1.143  0.00  0.00    +0.317 C 
ATOM     18  C   UNL     1     -35.576  21.286   2.842  0.00  0.00    -0.046 C 
ATOM     19  C   UNL     1     -35.593  22.597   4.988  0.00  0.00    +0.159 C 
ATOM     20  C   UNL     1     -40.836  27.150   0.221  0.00  0.00    +0.004 C 
ATOM     21  C   UNL     1     -35.125  21.492   4.092  0.00  0.00    -0.003 C 
ATOM     22  C   UNL     1     -35.074  20.115   2.043  0.00  0.00    +0.026 C 
ENDROOT
BRANCH   8  23
ATOM     23  O   UNL     1     -37.575  26.648   3.014  0.00  0.00    -0.381 OA
ATOM     24  H   UNL     1     -37.277  26.827   2.108  0.00  0.00    +0.210 HD
ENDBRANCH   8  23
BRANCH  12  25
ATOM     25  O   UNL     1     -36.647  24.738   5.062  0.00  0.00    -0.382 OA
ATOM     26  H   UNL     1     -37.514  25.172   5.038  0.00  0.00    +0.210 HD
ENDBRANCH  12  25
BRANCH  19  27
ATOM     27  O   UNL     1     -36.034  22.006   6.212  0.00  0.00    -0.378 OA
ATOM     28  H   UNL     1     -35.458  21.258   6.436  0.00  0.00    +0.211 HD
ENDBRANCH  19  27
TORSDOF 3
ENDMDL
MODEL 4
REMARK VINA RESULT:      -6.4      1.936      2.722
REMARK  Name = 56842876
REMARK  3 active torsions:
REMARK  status: ('A' for Active; 'I' for Inactive)
REMARK    1  A    between atoms: C_8  and  O_23
REMARK    2  A    between atoms: C_12  and  O_25
REMARK    3  A    between atoms: C_19  and  O_27
REMARK                            x       y       z     vdW  Elec       q    Type
REMARK                         _______ _______ _______ _____ _____    ______ ____
ROOT
ATOM      1  O   UNL     1     -39.401  26.951   1.754  0.00  0.00    -0.450 OA
ATOM      2  O   UNL     1     -39.075  22.518   2.374  0.00  0.00    -0.296 OA
ATOM      3  O   UNL     1     -40.654  25.191   2.557  0.00  0.00    -0.250 OA
ATOM      4  C   UNL     1     -36.988  25.406   2.283  0.00  0.00    +0.040 C 
ATOM      5  C   UNL     1     -37.686  24.272   1.434  0.00  0.00    +0.064 C 
ATOM      6  C   UNL     1     -35.713  24.958   3.110  0.00  0.00    +0.034 C 
ATOM      7  C   UNL     1     -38.995  24.844   0.788  0.00  0.00    +0.109 C 
ATOM      8  C   UNL     1     -36.988  26.783   1.547  0.00  0.00    +0.151 C 
ATOM      9  C   UNL     1     -36.219  23.805   4.072  0.00  0.00    +0.028 C 
ATOM     10  C   UNL     1     -38.662  25.967  -0.199  0.00  0.00    +0.054 C 
ATOM     11  C   UNL     1     -38.321  27.055   0.805  0.00  0.00    +0.196 C 
ATOM     12  C   UNL     1     -35.207  26.111   4.045  0.00  0.00    +0.142 C 
ATOM     13  C   UNL     1     -37.998  23.114   2.393  0.00  0.00    +0.151 C 
ATOM     14  C   UNL     1     -36.872  22.642   3.304  0.00  0.00    +0.069 C 
ATOM     15  C   UNL     1     -36.836  23.668   0.292  0.00  0.00    +0.008 C 
ATOM     16  C   UNL     1     -34.535  24.494   2.220  0.00  0.00    +0.003 C 
ATOM     17  C   UNL     1     -39.809  25.635   1.799  0.00  0.00    +0.317 C 
ATOM     18  C   UNL     1     -35.180  23.383   5.103  0.00  0.00    -0.046 C 
ATOM     19  C   UNL     1     -34.120  25.662   5.042  0.00  0.00    +0.159 C 
ATOM     20  C   UNL     1     -39.849  26.334  -1.096  0.00  0.00    +0.004 C 
ATOM     21  C   UNL     1     -34.251  24.254   5.534  0.00  0.00    -0.003 C 
ATOM     22  C   UNL     1     -35.255  22.005   5.698  0.00  0.00    +0.026 C 
ENDROOT
BRANCH   8  23
ATOM     23  O   UNL     1     -35.917  26.866   0.619  0.00  0.00    -0.381 OA
ATOM     24  H   UNL     1     -36.094  27.577  -0.017  0.00  0.00    +0.210 HD
ENDBRANCH   8  23
BRANCH  12  25
ATOM     25  O   UNL     1     -34.643  27.167   3.263  0.00  0.00    -0.382 OA
ATOM     26  H   UNL     1     -34.789  26.987   2.322  0.00  0.00    +0.210 HD
ENDBRANCH  12  25
BRANCH  19  27
ATOM     27  O   UNL     1     -34.155  26.525   6.181  0.00  0.00    -0.378 OA
ATOM     28  H   UNL     1     -33.300  26.489   6.639  0.00  0.00    +0.211 HD
ENDBRANCH  19  27
TORSDOF 3
ENDMDL
MODEL 5
REMARK VINA RESULT:      -6.3      2.652      5.613
REMARK  Name = 56842876
REMARK  3 active torsions:
REMARK  status: ('A' for Active; 'I' for Inactive)
REMARK    1  A    between atoms: C_8  and  O_23
REMARK    2  A    between atoms: C_12  and  O_25
REMARK    3  A    between atoms: C_19  and  O_27
REMARK                            x       y       z     vdW  Elec       q    Type
REMARK                         _______ _______ _______ _____ _____    ______ ____
ROOT
ATOM      1  O   UNL     1     -32.096  26.064   0.898  0.00  0.00    -0.450 OA
ATOM      2  O   UNL     1     -33.125  26.622   5.232  0.00  0.00    -0.296 OA
ATOM      3  O   UNL     1     -31.054  26.451   2.918  0.00  0.00    -0.250 OA
ATOM      4  C   UNL     1     -34.362  24.937   2.344  0.00  0.00    +0.040 C 
ATOM      5  C   UNL     1     -34.345  26.289   3.160  0.00  0.00    +0.064 C 
ATOM      6  C   UNL     1     -35.253  23.778   2.954  0.00  0.00    +0.034 C 
ATOM      7  C   UNL     1     -33.322  27.278   2.499  0.00  0.00    +0.109 C 
ATOM      8  C   UNL     1     -34.353  25.176   0.801  0.00  0.00    +0.151 C 
ATOM      9  C   UNL     1     -34.671  23.519   4.405  0.00  0.00    +0.028 C 
ATOM     10  C   UNL     1     -33.768  27.645   1.081  0.00  0.00    +0.054 C 
ATOM     11  C   UNL     1     -33.415  26.339   0.389  0.00  0.00    +0.196 C 
ATOM     12  C   UNL     1     -35.061  22.437   2.165  0.00  0.00    +0.142 C 
ATOM     13  C   UNL     1     -33.937  25.946   4.599  0.00  0.00    +0.151 C 
ATOM     14  C   UNL     1     -34.667  24.790   5.272  0.00  0.00    +0.069 C 
ATOM     15  C   UNL     1     -35.698  27.030   3.261  0.00  0.00    +0.008 C 
ATOM     16  C   UNL     1     -36.763  24.117   2.988  0.00  0.00    +0.003 C 
ATOM     17  C   UNL     1     -32.012  26.578   2.174  0.00  0.00    +0.317 C 
ATOM     18  C   UNL     1     -35.264  22.290   5.080  0.00  0.00    -0.046 C 
ATOM     19  C   UNL     1     -35.717  21.221   2.849  0.00  0.00    +0.159 C 
ATOM     20  C   UNL     1     -33.002  28.845   0.515  0.00  0.00    +0.004 C 
ATOM     21  C   UNL     1     -35.715  21.257   4.346  0.00  0.00    -0.003 C 
ATOM     22  C   UNL     1     -35.264  22.204   6.581  0.00  0.00    +0.026 C 
ENDROOT
BRANCH   8  23
ATOM     23  O   UNL     1     -35.662  25.443   0.318  0.00  0.00    -0.381 OA
ATOM     24  H   UNL     1     -36.264  24.743   0.612  0.00  0.00    +0.210 HD
ENDBRANCH   8  23
BRANCH  12  25
ATOM     25  O   UNL     1     -35.642  22.544   0.862  0.00  0.00    -0.382 OA
ATOM     26  H   UNL     1     -35.064  22.114   0.213  0.00  0.00    +0.210 HD
ENDBRANCH  12  25
BRANCH  19  27
ATOM     27  O   UNL     1     -35.027  20.036   2.443  0.00  0.00    -0.378 OA
ATOM     28  H   UNL     1     -35.672  19.369   2.160  0.00  0.00    +0.211 HD
ENDBRANCH  19  27
TORSDOF 3
ENDMDL
MODEL 6
REMARK VINA RESULT:      -6.3      2.168      4.318
REMARK  Name = 56842876
REMARK  3 active torsions:
REMARK  status: ('A' for Active; 'I' for Inactive)
REMARK    1  A    between atoms: C_8  and  O_23
REMARK    2  A    between atoms: C_12  and  O_25
REMARK    3  A    between atoms: C_19  and  O_27
REMARK                            x       y       z     vdW  Elec       q    Type
REMARK                         _______ _______ _______ _____ _____    ______ ____
ROOT
ATOM      1  O   UNL     1     -33.341  20.152   1.115  0.00  0.00    -0.450 OA
ATOM      2  O   UNL     1     -35.080  23.374  -1.482  0.00  0.00    -0.296 OA
ATOM      3  O   UNL     1     -32.694  21.612  -0.548  0.00  0.00    -0.250 OA
ATOM      4  C   UNL     1     -35.558  21.935   1.744  0.00  0.00    +0.040 C 
ATOM      5  C   UNL     1     -35.903  21.836   0.206  0.00  0.00    +0.064 C 
ATOM      6  C   UNL     1     -36.309  23.079   2.543  0.00  0.00    +0.034 C 
ATOM      7  C   UNL     1     -34.985  20.751  -0.459  0.00  0.00    +0.109 C 
ATOM      8  C   UNL     1     -35.365  20.532   2.400  0.00  0.00    +0.151 C 
ATOM      9  C   UNL     1     -35.911  24.430   1.818  0.00  0.00    +0.028 C 
ATOM     10  C   UNL     1     -35.276  19.367   0.130  0.00  0.00    +0.054 C 
ATOM     11  C   UNL     1     -34.598  19.550   1.478  0.00  0.00    +0.196 C 
ATOM     12  C   UNL     1     -35.767  23.198   4.010  0.00  0.00    +0.142 C 
ATOM     13  C   UNL     1     -35.657  23.223  -0.405  0.00  0.00    +0.151 C 
ATOM     14  C   UNL     1     -36.261  24.419   0.320  0.00  0.00    +0.069 C 
ATOM     15  C   UNL     1     -37.366  21.469  -0.133  0.00  0.00    +0.008 C 
ATOM     16  C   UNL     1     -37.843  22.883   2.600  0.00  0.00    +0.003 C 
ATOM     17  C   UNL     1     -33.539  20.909  -0.020  0.00  0.00    +0.317 C 
ATOM     18  C   UNL     1     -36.369  25.673   2.569  0.00  0.00    -0.046 C 
ATOM     19  C   UNL     1     -36.290  24.440   4.759  0.00  0.00    +0.159 C 
ATOM     20  C   UNL     1     -34.660  18.234  -0.698  0.00  0.00    +0.004 C 
ATOM     21  C   UNL     1     -36.516  25.649   3.906  0.00  0.00    -0.003 C 
ATOM     22  C   UNL     1     -36.575  26.955   1.812  0.00  0.00    +0.026 C 
ENDROOT
BRANCH   8  23
ATOM     23  O   UNL     1     -36.614  19.956   2.753  0.00  0.00    -0.381 OA
ATOM     24  H   UNL     1     -36.977  19.479   1.990  0.00  0.00    +0.210 HD
ENDBRANCH   8  23
BRANCH  12  25
ATOM     25  O   UNL     1     -36.160  22.055   4.775  0.00  0.00    -0.382 OA
ATOM     26  H   UNL     1     -36.763  21.506   4.251  0.00  0.00    +0.210 HD
ENDBRANCH  12  25
BRANCH  19  27
ATOM     27  O   UNL     1     -35.349  24.795   5.775  0.00  0.00    -0.378 OA
ATOM     28  H   UNL     1     -35.815  24.927   6.616  0.00  0.00    +0.211 HD
ENDBRANCH  19  27
TORSDOF 3
ENDMDL
MODEL 7
REMARK VINA RESULT:      -6.3      2.113      4.964
REMARK  Name = 56842876
REMARK  3 active torsions:
REMARK  status: ('A' for Active; 'I' for Inactive)
REMARK    1  A    between atoms: C_8  and  O_23
REMARK    2  A    between atoms: C_12  and  O_25
REMARK    3  A    between atoms: C_19  and  O_27
REMARK                            x       y       z     vdW  Elec       q    Type
REMARK                         _______ _______ _______ _____ _____    ______ ____
ROOT
ATOM      1  O   UNL     1     -34.405  26.708   0.476  0.00  0.00    -0.450 OA
ATOM      2  O   UNL     1     -35.319  26.861   4.868  0.00  0.00    -0.296 OA
ATOM      3  O   UNL     1     -33.519  27.554   2.429  0.00  0.00    -0.250 OA
ATOM      4  C   UNL     1     -35.868  24.743   2.054  0.00  0.00    +0.040 C 
ATOM      5  C   UNL     1     -36.393  25.987   2.875  0.00  0.00    +0.064 C 
ATOM      6  C   UNL     1     -36.131  23.326   2.713  0.00  0.00    +0.034 C 
ATOM      7  C   UNL     1     -35.941  27.306   2.156  0.00  0.00    +0.109 C 
ATOM      8  C   UNL     1     -36.055  24.928   0.515  0.00  0.00    +0.151 C 
ATOM      9  C   UNL     1     -35.410  23.378   4.123  0.00  0.00    +0.028 C 
ATOM     10  C   UNL     1     -36.584  27.412   0.771  0.00  0.00    +0.054 C 
ATOM     11  C   UNL     1     -35.741  26.373   0.052  0.00  0.00    +0.196 C 
ATOM     12  C   UNL     1     -35.422  22.183   1.906  0.00  0.00    +0.142 C 
ATOM     13  C   UNL     1     -35.793  25.886   4.284  0.00  0.00    +0.151 C 
ATOM     14  C   UNL     1     -35.908  24.544   4.995  0.00  0.00    +0.069 C 
ATOM     15  C   UNL     1     -37.925  26.070   3.064  0.00  0.00    +0.008 C 
ATOM     16  C   UNL     1     -37.633  22.977   2.842  0.00  0.00    +0.003 C 
ATOM     17  C   UNL     1     -34.478  27.236   1.747  0.00  0.00    +0.317 C 
ATOM     18  C   UNL     1     -35.370  22.028   4.827  0.00  0.00    -0.046 C 
ATOM     19  C   UNL     1     -35.443  20.820   2.623  0.00  0.00    +0.159 C 
ATOM     20  C   UNL     1     -36.449  28.812   0.165  0.00  0.00    +0.004 C 
ATOM     21  C   UNL     1     -35.370  20.886   4.117  0.00  0.00    -0.003 C 
ATOM     22  C   UNL     1     -35.245  21.985   6.324  0.00  0.00    +0.026 C 
ENDROOT
BRANCH   8  23
ATOM     23  O   UNL     1     -37.375  24.590   0.116  0.00  0.00    -0.381 OA
ATOM     24  H   UNL     1     -37.396  24.446  -0.843  0.00  0.00    +0.210 HD
ENDBRANCH   8  23
BRANCH  12  25
ATOM     25  O   UNL     1     -36.067  21.999   0.643  0.00  0.00    -0.382 OA
ATOM     26  H   UNL     1     -35.398  21.893  -0.051  0.00  0.00    +0.210 HD
ENDBRANCH  12  25
BRANCH  19  27
ATOM     27  O   UNL     1     -34.333  20.042   2.169  0.00  0.00    -0.378 OA
ATOM     28  H   UNL     1     -34.017  20.395   1.322  0.00  0.00    +0.211 HD
ENDBRANCH  19  27
TORSDOF 3
ENDMDL
MODEL 8
REMARK VINA RESULT:      -6.0      2.138      4.499
REMARK  Name = 56842876
REMARK  3 active torsions:
REMARK  status: ('A' for Active; 'I' for Inactive)
REMARK    1  A    between atoms: C_8  and  O_23
REMARK    2  A    between atoms: C_12  and  O_25
REMARK    3  A    between atoms: C_19  and  O_27
REMARK                            x       y       z     vdW  Elec       q    Type
REMARK                         _______ _______ _______ _____ _____    ______ ____
ROOT
ATOM      1  O   UNL     1     -33.568  20.599   1.038  0.00  0.00    -0.450 OA
ATOM      2  O   UNL     1     -36.102  22.620  -2.068  0.00  0.00    -0.296 OA
ATOM      3  O   UNL     1     -33.334  21.768  -0.935  0.00  0.00    -0.250 OA
ATOM      4  C   UNL     1     -36.168  21.861   1.415  0.00  0.00    +0.040 C 
ATOM      5  C   UNL     1     -36.486  21.339  -0.041  0.00  0.00    +0.064 C 
ATOM      6  C   UNL     1     -37.184  22.927   1.999  0.00  0.00    +0.034 C 
ATOM      7  C   UNL     1     -35.323  20.400  -0.517  0.00  0.00    +0.109 C 
ATOM      8  C   UNL     1     -35.612  20.734   2.341  0.00  0.00    +0.151 C 
ATOM      9  C   UNL     1     -37.155  24.139   0.979  0.00  0.00    +0.028 C 
ATOM     10  C   UNL     1     -35.240  19.155   0.370  0.00  0.00    +0.054 C 
ATOM     11  C   UNL     1     -34.624  19.797   1.601  0.00  0.00    +0.196 C 
ATOM     12  C   UNL     1     -36.681  23.502   3.369  0.00  0.00    +0.142 C 
ATOM     13  C   UNL     1     -36.613  22.572  -0.947  0.00  0.00    +0.151 C 
ATOM     14  C   UNL     1     -37.501  23.708  -0.457  0.00  0.00    +0.069 C 
ATOM     15  C   UNL     1     -37.806  20.550  -0.199  0.00  0.00    +0.008 C 
ATOM     16  C   UNL     1     -38.614  22.370   2.196  0.00  0.00    +0.003 C 
ATOM     17  C   UNL     1     -33.964  21.011  -0.216  0.00  0.00    +0.317 C 
ATOM     18  C   UNL     1     -37.914  25.362   1.476  0.00  0.00    -0.046 C 
ATOM     19  C   UNL     1     -37.503  24.707   3.869  0.00  0.00    +0.159 C 
ATOM     20  C   UNL     1     -34.358  18.058  -0.236  0.00  0.00    +0.004 C 
ATOM     21  C   UNL     1     -38.041  25.600   2.794  0.00  0.00    -0.003 C 
ATOM     22  C   UNL     1     -38.451  26.349   0.478  0.00  0.00    +0.026 C 
ENDROOT
BRANCH   8  23
ATOM     23  O   UNL     1     -36.667  19.956   2.888  0.00  0.00    -0.381 OA
ATOM     24  H   UNL     1     -37.475  20.490   2.928  0.00  0.00    +0.210 HD
ENDBRANCH   8  23
BRANCH  12  25
ATOM     25  O   UNL     1     -36.758  22.497   4.384  0.00  0.00    -0.382 OA
ATOM     26  H   UNL     1     -36.575  21.628   3.993  0.00  0.00    +0.210 HD
ENDBRANCH  12  25
BRANCH  19  27
ATOM     27  O   UNL     1     -36.679  25.504   4.723  0.00  0.00    -0.378 OA
ATOM     28  H   UNL     1     -37.166  25.718   5.534  0.00  0.00    +0.211 HD
ENDBRANCH  19  27
TORSDOF 3
ENDMDL
MODEL 9
REMARK VINA RESULT:      -6.0      2.099      3.930
REMARK  Name = 56842876
REMARK  3 active torsions:
REMARK  status: ('A' for Active; 'I' for Inactive)
REMARK    1  A    between atoms: C_8  and  O_23
REMARK    2  A    between atoms: C_12  and  O_25
REMARK    3  A    between atoms: C_19  and  O_27
REMARK                            x       y       z     vdW  Elec       q    Type
REMARK                         _______ _______ _______ _____ _____    ______ ____
ROOT
ATOM      1  O   UNL     1     -34.820  19.923   2.325  0.00  0.00    -0.450 OA
ATOM      2  O   UNL     1     -33.390  22.848  -0.765  0.00  0.00    -0.296 OA
ATOM      3  O   UNL     1     -33.033  20.250   0.906  0.00  0.00    -0.250 OA
ATOM      4  C   UNL     1     -35.380  22.780   2.192  0.00  0.00    +0.040 C 
ATOM      5  C   UNL     1     -35.361  22.577   0.626  0.00  0.00    +0.064 C 
ATOM      6  C   UNL     1     -35.340  24.283   2.690  0.00  0.00    +0.034 C 
ATOM      7  C   UNL     1     -35.272  21.044   0.306  0.00  0.00    +0.109 C 
ATOM      8  C   UNL     1     -36.307  21.750   2.912  0.00  0.00    +0.151 C 
ATOM      9  C   UNL     1     -34.006  24.891   2.089  0.00  0.00    +0.028 C 
ATOM     10  C   UNL     1     -36.519  20.315   0.812  0.00  0.00    +0.054 C 
ATOM     11  C   UNL     1     -36.202  20.332   2.298  0.00  0.00    +0.196 C 
ATOM     12  C   UNL     1     -35.188  24.363   4.249  0.00  0.00    +0.142 C 
ATOM     13  C   UNL     1     -34.139  23.332   0.085  0.00  0.00    +0.151 C 
ATOM     14  C   UNL     1     -33.942  24.767   0.556  0.00  0.00    +0.069 C 
ATOM     15  C   UNL     1     -36.584  23.134  -0.138  0.00  0.00    +0.008 C 
ATOM     16  C   UNL     1     -36.587  25.101   2.276  0.00  0.00    +0.003 C 
ATOM     17  C   UNL     1     -34.219  20.363   1.165  0.00  0.00    +0.317 C 
ATOM     18  C   UNL     1     -33.680  26.277   2.630  0.00  0.00    -0.046 C 
ATOM     19  C   UNL     1     -34.909  25.787   4.768  0.00  0.00    +0.159 C 
ATOM     20  C   UNL     1     -36.643  18.897   0.244  0.00  0.00    +0.004 C 
ATOM     21  C   UNL     1     -34.090  26.647   3.855  0.00  0.00    -0.003 C 
ATOM     22  C   UNL     1     -32.820  27.200   1.812  0.00  0.00    +0.026 C 
ENDROOT
BRANCH   8  23
ATOM     23  O   UNL     1     -37.663  22.171   2.877  0.00  0.00    -0.381 OA
ATOM     24  H   UNL     1     -37.699  23.138   2.806  0.00  0.00    +0.210 HD
ENDBRANCH   8  23
BRANCH  12  25
ATOM     25  O   UNL     1     -36.389  23.917   4.885  0.00  0.00    -0.382 OA
ATOM     26  H   UNL     1     -36.408  22.948   4.900  0.00  0.00    +0.210 HD
ENDBRANCH  12  25
BRANCH  19  27
ATOM     27  O   UNL     1     -34.216  25.696   6.015  0.00  0.00    -0.378 OA
ATOM     28  H   UNL     1     -34.414  24.843   6.434  0.00  0.00    +0.211 HD
ENDBRANCH  19  27
TORSDOF 3
ENDMDL
