MODEL 1
REMARK VINA RESULT:      -6.5      0.000      0.000
REMARK  Name = 193031
REMARK  12 active torsions:
REMARK  status: ('A' for Active; 'I' for Inactive)
REMARK    1  A    between atoms: C_1  and  C_3
REMARK    2  A    between atoms: C_1  and  N_17
REMARK    3  A    between atoms: C_4  and  C_11
REMARK    4  A    between atoms: C_5  and  O_9
REMARK    5  A    between atoms: C_11  and  C_12
REMARK    6  A    between atoms: C_12  and  C_14
REMARK    7  A    between atoms: C_14  and  O_15
REMARK    8  A    between atoms: N_17  and  CA_20
REMARK    9  A    between atoms: CA_20  and  C_22
REMARK   10  A    between atoms: CA_20  and  CB_25
REMARK   11  A    between atoms: C_22  and  O_23
REMARK   12  A    between atoms: CB_25  and  CG_26
REMARK                            x       y       z     vdW  Elec       q    Type
REMARK                         _______ _______ _______ _____ _____    ______ ____
ROOT
ATOM      1  C   UNK A   0     -37.387  21.523   2.230  0.00  0.00    -0.051 C 
ENDROOT
BRANCH   1   3
ATOM      2  N   UNK A   0     -38.154  25.506   3.627  0.00  0.00    -0.245 NA
ATOM      3  C   UNK A   0     -37.654  22.920   2.721  0.00  0.00    -0.011 C 
ATOM      4  C   UNK A   0     -36.635  23.652   3.309  0.00  0.00    -0.006 C 
ATOM      5  C   UNK A   0     -38.920  23.465   2.580  0.00  0.00    +0.141 C 
ATOM      6  C   UNK A   0     -36.935  24.933   3.743  0.00  0.00    +0.094 C 
ATOM      7  C   UNK A   0     -39.117  24.755   3.047  0.00  0.00    +0.092 C 
ATOM      8  C   UNK A   0     -40.460  25.399   2.924  0.00  0.00    +0.055 C 
BRANCH   5   9
ATOM      9  O   UNK A   0     -39.932  22.765   2.006  0.00  0.00    -0.505 OA
ATOM     10  H   UNK A   0     -40.431  22.159   2.518  0.00  0.00    +0.292 HD
ENDBRANCH   5   9
BRANCH   4  11
ATOM     11  C   UNK A   0     -35.259  23.109   3.482  0.00  0.00    +0.039 C 
BRANCH  11  12
ATOM     12  C   UNK A   0     -34.784  23.078   4.940  0.00  0.00    +0.114 C 
BRANCH  12  14
ATOM     13  O   UNK A   0     -36.119  22.106   6.703  0.00  0.00    -0.250 OA
ATOM     14  C   UNK A   0     -35.421  21.947   5.709  0.00  0.00    +0.314 C 
BRANCH  14  15
ATOM     15  O   UNK A   0     -35.118  20.727   5.201  0.00  0.00    -0.480 OA
ATOM     16  H   UNK A   0     -35.679  19.996   5.372  0.00  0.00    +0.295 HD
ENDBRANCH  14  15
ENDBRANCH  12  14
ENDBRANCH  11  12
ENDBRANCH   4  11
ENDBRANCH   1   3
BRANCH   1  17
ATOM     17  N   PHE A   1     -37.147  21.489   0.796  0.00  0.00    +0.395 N 
ATOM     18  H1  PHE A   1     -38.041  21.450   0.308  0.00  0.00    -0.083 HD
ATOM     19  H2  PHE A   1     -36.634  22.330   0.530  0.00  0.00    -0.083 HD
BRANCH  17  20
ATOM     20  CA  PHE A   1     -36.350  20.319   0.430  0.00  0.00    +0.044 C 
BRANCH  20  22
ATOM     21  OXT PHE A   1     -38.318  19.298  -0.580  0.00  0.00    -0.253 OA
ATOM     22  C   PHE A   1     -37.333  19.198   0.142  0.00  0.00    +0.294 C 
BRANCH  22  23
ATOM     23  O   PHE A   1     -36.986  18.036   0.753  0.00  0.00    -0.482 OA
ATOM     24  H   PHE A   1     -36.607  18.052   1.608  0.00  0.00    +0.295 HD
ENDBRANCH  22  23
ENDBRANCH  20  22
BRANCH  20  25
ATOM     25  CB  PHE A   1     -35.389  19.966   1.575  0.00  0.00    +0.016 C 
BRANCH  25  26
ATOM     26  CG  PHE A   1     -33.963  19.780   1.108  0.00  0.00    -0.024 C 
ATOM     27  CD1 PHE A   1     -33.290  18.614   1.436  0.00  0.00    -0.004 C 
ATOM     28  CD2 PHE A   1     -33.359  20.778   0.362  0.00  0.00    -0.004 C 
ATOM     29  CE1 PHE A   1     -31.975  18.443   1.005  0.00  0.00    -0.000 C 
ATOM     30  CE2 PHE A   1     -32.044  20.606  -0.069  0.00  0.00    -0.000 C 
ATOM     31  CZ  PHE A   1     -31.351  19.438   0.253  0.00  0.00    -0.000 C 
ENDBRANCH  25  26
ENDBRANCH  20  25
ENDBRANCH  17  20
ENDBRANCH   1  17
TORSDOF 12
ENDMDL
MODEL 2
REMARK VINA RESULT:      -6.5      1.258      1.946
REMARK  Name = 193031
REMARK  12 active torsions:
REMARK  status: ('A' for Active; 'I' for Inactive)
REMARK    1  A    between atoms: C_1  and  C_3
REMARK    2  A    between atoms: C_1  and  N_17
REMARK    3  A    between atoms: C_4  and  C_11
REMARK    4  A    between atoms: C_5  and  O_9
REMARK    5  A    between atoms: C_11  and  C_12
REMARK    6  A    between atoms: C_12  and  C_14
REMARK    7  A    between atoms: C_14  and  O_15
REMARK    8  A    between atoms: N_17  and  CA_20
REMARK    9  A    between atoms: CA_20  and  C_22
REMARK   10  A    between atoms: CA_20  and  CB_25
REMARK   11  A    between atoms: C_22  and  O_23
REMARK   12  A    between atoms: CB_25  and  CG_26
REMARK                            x       y       z     vdW  Elec       q    Type
REMARK                         _______ _______ _______ _____ _____    ______ ____
ROOT
ATOM      1  C   UNK A   0     -35.225  22.119   1.760  0.00  0.00    -0.051 C 
ENDROOT
BRANCH   1   3
ATOM      2  N   UNK A   0     -38.454  24.373   3.463  0.00  0.00    -0.245 NA
ATOM      3  C   UNK A   0     -36.356  22.911   2.359  0.00  0.00    -0.011 C 
ATOM      4  C   UNK A   0     -36.127  23.717   3.463  0.00  0.00    -0.006 C 
ATOM      5  C   UNK A   0     -37.621  22.827   1.801  0.00  0.00    +0.141 C 
ATOM      6  C   UNK A   0     -37.203  24.424   3.973  0.00  0.00    +0.094 C 
ATOM      7  C   UNK A   0     -38.631  23.575   2.386  0.00  0.00    +0.092 C 
ATOM      8  C   UNK A   0     -40.017  23.527   1.831  0.00  0.00    +0.055 C 
BRANCH   5   9
ATOM      9  O   UNK A   0     -37.867  22.043   0.719  0.00  0.00    -0.505 OA
ATOM     10  H   UNK A   0     -37.858  22.415  -0.141  0.00  0.00    +0.292 HD
ENDBRANCH   5   9
BRANCH   4  11
ATOM     11  C   UNK A   0     -34.785  23.839   4.097  0.00  0.00    +0.039 C 
BRANCH  11  12
ATOM     12  C   UNK A   0     -34.744  23.363   5.554  0.00  0.00    +0.114 C 
BRANCH  12  14
ATOM     13  O   UNK A   0     -34.904  21.007   5.050  0.00  0.00    -0.250 OA
ATOM     14  C   UNK A   0     -35.298  21.967   5.700  0.00  0.00    +0.314 C 
BRANCH  14  15
ATOM     15  O   UNK A   0     -36.302  21.889   6.608  0.00  0.00    -0.480 OA
ATOM     16  H   UNK A   0     -36.401  21.119   7.131  0.00  0.00    +0.295 HD
ENDBRANCH  14  15
ENDBRANCH  12  14
ENDBRANCH  11  12
ENDBRANCH   4  11
ENDBRANCH   1   3
BRANCH   1  17
ATOM     17  N   PHE A   1     -35.327  20.703   2.077  0.00  0.00    +0.395 N 
ATOM     18  H1  PHE A   1     -34.801  20.513   2.930  0.00  0.00    -0.083 HD
ATOM     19  H2  PHE A   1     -36.311  20.467   2.207  0.00  0.00    -0.083 HD
BRANCH  17  20
ATOM     20  CA  PHE A   1     -34.789  19.888   0.991  0.00  0.00    +0.044 C 
BRANCH  20  22
ATOM     21  OXT PHE A   1     -35.915  18.413  -0.587  0.00  0.00    -0.253 OA
ATOM     22  C   PHE A   1     -35.949  19.076   0.442  0.00  0.00    +0.294 C 
BRANCH  22  23
ATOM     23  O   PHE A   1     -37.045  19.135   1.241  0.00  0.00    -0.482 OA
ATOM     24  H   PHE A   1     -37.538  18.359   1.420  0.00  0.00    +0.295 HD
ENDBRANCH  22  23
ENDBRANCH  20  22
BRANCH  20  25
ATOM     25  CB  PHE A   1     -33.658  18.994   1.521  0.00  0.00    +0.016 C 
BRANCH  25  26
ATOM     26  CG  PHE A   1     -32.342  19.229   0.814  0.00  0.00    -0.024 C 
ATOM     27  CD1 PHE A   1     -32.164  20.392   0.083  0.00  0.00    -0.004 C 
ATOM     28  CD2 PHE A   1     -31.341  18.277   0.912  0.00  0.00    -0.004 C 
ATOM     29  CE1 PHE A   1     -30.950  20.608  -0.569  0.00  0.00    -0.000 C 
ATOM     30  CE2 PHE A   1     -30.127  18.494   0.261  0.00  0.00    -0.000 C 
ATOM     31  CZ  PHE A   1     -29.932  19.660  -0.481  0.00  0.00    -0.000 C 
ENDBRANCH  25  26
ENDBRANCH  20  25
ENDBRANCH  17  20
ENDBRANCH   1  17
TORSDOF 12
ENDMDL
MODEL 3
REMARK VINA RESULT:      -6.4      5.001      7.033
REMARK  Name = 193031
REMARK  12 active torsions:
REMARK  status: ('A' for Active; 'I' for Inactive)
REMARK    1  A    between atoms: C_1  and  C_3
REMARK    2  A    between atoms: C_1  and  N_17
REMARK    3  A    between atoms: C_4  and  C_11
REMARK    4  A    between atoms: C_5  and  O_9
REMARK    5  A    between atoms: C_11  and  C_12
REMARK    6  A    between atoms: C_12  and  C_14
REMARK    7  A    between atoms: C_14  and  O_15
REMARK    8  A    between atoms: N_17  and  CA_20
REMARK    9  A    between atoms: CA_20  and  C_22
REMARK   10  A    between atoms: CA_20  and  CB_25
REMARK   11  A    between atoms: C_22  and  O_23
REMARK   12  A    between atoms: CB_25  and  CG_26
REMARK                            x       y       z     vdW  Elec       q    Type
REMARK                         _______ _______ _______ _____ _____    ______ ____
ROOT
ATOM      1  C   UNK A   0     -34.494  27.712   2.990  0.00  0.00    -0.051 C 
ENDROOT
BRANCH   1   3
ATOM      2  N   UNK A   0     -34.053  31.963   2.608  0.00  0.00    -0.245 NA
ATOM      3  C   UNK A   0     -34.337  29.204   2.858  0.00  0.00    -0.011 C 
ATOM      4  C   UNK A   0     -33.176  29.818   3.298  0.00  0.00    -0.006 C 
ATOM      5  C   UNK A   0     -35.358  29.952   2.293  0.00  0.00    +0.141 C 
ATOM      6  C   UNK A   0     -33.083  31.192   3.152  0.00  0.00    +0.094 C 
ATOM      7  C   UNK A   0     -35.167  31.321   2.192  0.00  0.00    +0.092 C 
ATOM      8  C   UNK A   0     -36.230  32.183   1.593  0.00  0.00    +0.055 C 
BRANCH   5   9
ATOM      9  O   UNK A   0     -36.503  29.369   1.855  0.00  0.00    -0.505 OA
ATOM     10  H   UNK A   0     -36.804  29.527   0.981  0.00  0.00    +0.292 HD
ENDBRANCH   5   9
BRANCH   4  11
ATOM     11  C   UNK A   0     -32.053  29.055   3.911  0.00  0.00    +0.039 C 
BRANCH  11  12
ATOM     12  C   UNK A   0     -31.961  29.206   5.434  0.00  0.00    +0.114 C 
BRANCH  12  14
ATOM     13  O   UNK A   0     -33.200  27.245   6.107  0.00  0.00    -0.250 OA
ATOM     14  C   UNK A   0     -32.156  27.885   6.137  0.00  0.00    +0.314 C 
BRANCH  14  15
ATOM     15  O   UNK A   0     -31.062  27.490   6.833  0.00  0.00    -0.480 OA
ATOM     16  H   UNK A   0     -30.893  27.847   7.682  0.00  0.00    +0.295 HD
ENDBRANCH  14  15
ENDBRANCH  12  14
ENDBRANCH  11  12
ENDBRANCH   4  11
ENDBRANCH   1   3
BRANCH   1  17
ATOM     17  N   PHE A   1     -35.493  27.359   3.987  0.00  0.00    +0.395 N 
ATOM     18  H1  PHE A   1     -35.065  27.378   4.912  0.00  0.00    -0.083 HD
ATOM     19  H2  PHE A   1     -36.258  28.033   3.936  0.00  0.00    -0.083 HD
BRANCH  17  20
ATOM     20  CA  PHE A   1     -36.029  26.023   3.734  0.00  0.00    +0.044 C 
BRANCH  20  22
ATOM     21  OXT PHE A   1     -37.429  26.476   1.794  0.00  0.00    -0.253 OA
ATOM     22  C   PHE A   1     -37.337  26.214   2.986  0.00  0.00    +0.294 C 
BRANCH  22  23
ATOM     23  O   PHE A   1     -38.420  26.029   3.784  0.00  0.00    -0.482 OA
ATOM     24  H   PHE A   1     -38.520  26.537   4.564  0.00  0.00    +0.295 HD
ENDBRANCH  22  23
ENDBRANCH  20  22
BRANCH  20  25
ATOM     25  CB  PHE A   1     -36.226  25.281   5.065  0.00  0.00    +0.016 C 
BRANCH  25  26
ATOM     26  CG  PHE A   1     -35.820  23.827   4.993  0.00  0.00    -0.024 C 
ATOM     27  CD1 PHE A   1     -35.893  23.162   3.780  0.00  0.00    -0.004 C 
ATOM     28  CD2 PHE A   1     -35.383  23.188   6.141  0.00  0.00    -0.004 C 
ATOM     29  CE1 PHE A   1     -35.518  21.821   3.714  0.00  0.00    -0.000 C 
ATOM     30  CE2 PHE A   1     -35.007  21.847   6.075  0.00  0.00    -0.000 C 
ATOM     31  CZ  PHE A   1     -35.075  21.163   4.861  0.00  0.00    -0.000 C 
ENDBRANCH  25  26
ENDBRANCH  20  25
ENDBRANCH  17  20
ENDBRANCH   1  17
TORSDOF 12
ENDMDL
MODEL 4
REMARK VINA RESULT:      -6.4      2.624      5.290
REMARK  Name = 193031
REMARK  12 active torsions:
REMARK  status: ('A' for Active; 'I' for Inactive)
REMARK    1  A    between atoms: C_1  and  C_3
REMARK    2  A    between atoms: C_1  and  N_17
REMARK    3  A    between atoms: C_4  and  C_11
REMARK    4  A    between atoms: C_5  and  O_9
REMARK    5  A    between atoms: C_11  and  C_12
REMARK    6  A    between atoms: C_12  and  C_14
REMARK    7  A    between atoms: C_14  and  O_15
REMARK    8  A    between atoms: N_17  and  CA_20
REMARK    9  A    between atoms: CA_20  and  C_22
REMARK   10  A    between atoms: CA_20  and  CB_25
REMARK   11  A    between atoms: C_22  and  O_23
REMARK   12  A    between atoms: CB_25  and  CG_26
REMARK                            x       y       z     vdW  Elec       q    Type
REMARK                         _______ _______ _______ _____ _____    ______ ____
ROOT
ATOM      1  C   UNK A   0     -37.425  23.353   3.473  0.00  0.00    -0.051 C 
ENDROOT
BRANCH   1   3
ATOM      2  N   UNK A   0     -36.529  25.747   0.027  0.00  0.00    -0.245 NA
ATOM      3  C   UNK A   0     -37.110  24.191   2.263  0.00  0.00    -0.011 C 
ATOM      4  C   UNK A   0     -36.650  23.586   1.104  0.00  0.00    -0.006 C 
ATOM      5  C   UNK A   0     -37.283  25.565   2.317  0.00  0.00    +0.141 C 
ATOM      6  C   UNK A   0     -36.376  24.404   0.020  0.00  0.00    +0.094 C 
ATOM      7  C   UNK A   0     -36.981  26.294   1.178  0.00  0.00    +0.092 C 
ATOM      8  C   UNK A   0     -37.146  27.779   1.174  0.00  0.00    +0.055 C 
BRANCH   5   9
ATOM      9  O   UNK A   0     -37.733  26.177   3.443  0.00  0.00    -0.505 OA
ATOM     10  H   UNK A   0     -38.556  26.624   3.436  0.00  0.00    +0.292 HD
ENDBRANCH   5   9
BRANCH   4  11
ATOM     11  C   UNK A   0     -36.449  22.114   0.998  0.00  0.00    +0.039 C 
BRANCH  11  12
ATOM     12  C   UNK A   0     -35.025  21.658   1.339  0.00  0.00    +0.114 C 
BRANCH  12  14
ATOM     13  O   UNK A   0     -34.099  19.487   1.851  0.00  0.00    -0.250 OA
ATOM     14  C   UNK A   0     -35.015  20.290   1.975  0.00  0.00    +0.314 C 
BRANCH  14  15
ATOM     15  O   UNK A   0     -36.144  20.027   2.679  0.00  0.00    -0.480 OA
ATOM     16  H   UNK A   0     -36.087  19.785   3.582  0.00  0.00    +0.295 HD
ENDBRANCH  14  15
ENDBRANCH  12  14
ENDBRANCH  11  12
ENDBRANCH   4  11
ENDBRANCH   1   3
BRANCH   1  17
ATOM     17  N   PHE A   1     -36.676  23.786   4.642  0.00  0.00    +0.395 N 
ATOM     18  H1  PHE A   1     -36.517  24.791   4.584  0.00  0.00    -0.083 HD
ATOM     19  H2  PHE A   1     -37.215  23.560   5.478  0.00  0.00    -0.083 HD
BRANCH  17  20
ATOM     20  CA  PHE A   1     -35.387  23.100   4.716  0.00  0.00    +0.044 C 
BRANCH  20  22
ATOM     21  OXT PHE A   1     -36.095  22.086   6.815  0.00  0.00    -0.253 OA
ATOM     22  C   PHE A   1     -35.553  21.974   5.722  0.00  0.00    +0.294 C 
BRANCH  22  23
ATOM     23  O   PHE A   1     -35.056  20.796   5.266  0.00  0.00    -0.482 OA
ATOM     24  H   PHE A   1     -34.467  20.786   4.538  0.00  0.00    +0.295 HD
ENDBRANCH  22  23
ENDBRANCH  20  22
BRANCH  20  25
ATOM     25  CB  PHE A   1     -34.293  24.093   5.134  0.00  0.00    +0.016 C 
BRANCH  25  26
ATOM     26  CG  PHE A   1     -34.061  25.178   4.107  0.00  0.00    -0.024 C 
ATOM     27  CD1 PHE A   1     -34.305  26.498   4.449  0.00  0.00    -0.004 C 
ATOM     28  CD2 PHE A   1     -33.608  24.831   2.845  0.00  0.00    -0.004 C 
ATOM     29  CE1 PHE A   1     -34.091  27.499   3.502  0.00  0.00    -0.000 C 
ATOM     30  CE2 PHE A   1     -33.393  25.832   1.898  0.00  0.00    -0.000 C 
ATOM     31  CZ  PHE A   1     -33.635  27.167   2.227  0.00  0.00    -0.000 C 
ENDBRANCH  25  26
ENDBRANCH  20  25
ENDBRANCH  17  20
ENDBRANCH   1  17
TORSDOF 12
ENDMDL
MODEL 5
REMARK VINA RESULT:      -6.1      3.670      5.989
REMARK  Name = 193031
REMARK  12 active torsions:
REMARK  status: ('A' for Active; 'I' for Inactive)
REMARK    1  A    between atoms: C_1  and  C_3
REMARK    2  A    between atoms: C_1  and  N_17
REMARK    3  A    between atoms: C_4  and  C_11
REMARK    4  A    between atoms: C_5  and  O_9
REMARK    5  A    between atoms: C_11  and  C_12
REMARK    6  A    between atoms: C_12  and  C_14
REMARK    7  A    between atoms: C_14  and  O_15
REMARK    8  A    between atoms: N_17  and  CA_20
REMARK    9  A    between atoms: CA_20  and  C_22
REMARK   10  A    between atoms: CA_20  and  CB_25
REMARK   11  A    between atoms: C_22  and  O_23
REMARK   12  A    between atoms: CB_25  and  CG_26
REMARK                            x       y       z     vdW  Elec       q    Type
REMARK                         _______ _______ _______ _____ _____    ______ ____
ROOT
ATOM      1  C   UNK A   0     -37.691  24.754   2.396  0.00  0.00    -0.051 C 
ENDROOT
BRANCH   1   3
ATOM      2  N   UNK A   0     -41.755  25.157   1.080  0.00  0.00    -0.245 NA
ATOM      3  C   UNK A   0     -39.116  24.894   1.933  0.00  0.00    -0.011 C 
ATOM      4  C   UNK A   0     -39.576  24.129   0.873  0.00  0.00    -0.006 C 
ATOM      5  C   UNK A   0     -39.959  25.788   2.572  0.00  0.00    +0.141 C 
ATOM      6  C   UNK A   0     -40.896  24.296   0.488  0.00  0.00    +0.094 C 
ATOM      7  C   UNK A   0     -41.263  25.881   2.110  0.00  0.00    +0.092 C 
ATOM      8  C   UNK A   0     -42.221  26.828   2.756  0.00  0.00    +0.055 C 
BRANCH   5   9
ATOM      9  O   UNK A   0     -39.529  26.547   3.613  0.00  0.00    -0.505 OA
ATOM     10  H   UNK A   0     -38.629  26.804   3.664  0.00  0.00    +0.292 HD
ENDBRANCH   5   9
BRANCH   4  11
ATOM     11  C   UNK A   0     -38.707  23.154   0.156  0.00  0.00    +0.039 C 
BRANCH  11  12
ATOM     12  C   UNK A   0     -39.192  21.703   0.256  0.00  0.00    +0.114 C 
BRANCH  12  14
ATOM     13  O   UNK A   0     -40.436  21.096   2.235  0.00  0.00    -0.250 OA
ATOM     14  C   UNK A   0     -39.352  21.267   1.692  0.00  0.00    +0.314 C 
BRANCH  14  15
ATOM     15  O   UNK A   0     -38.167  21.110   2.331  0.00  0.00    -0.480 OA
ATOM     16  H   UNK A   0     -37.993  21.588   3.118  0.00  0.00    +0.295 HD
ENDBRANCH  14  15
ENDBRANCH  12  14
ENDBRANCH  11  12
ENDBRANCH   4  11
ENDBRANCH   1   3
BRANCH   1  17
ATOM     17  N   PHE A   1     -37.586  23.915   3.580  0.00  0.00    +0.395 N 
ATOM     18  H1  PHE A   1     -38.299  24.194   4.253  0.00  0.00    -0.083 HD
ATOM     19  H2  PHE A   1     -37.720  22.942   3.304  0.00  0.00    -0.083 HD
BRANCH  17  20
ATOM     20  CA  PHE A   1     -36.268  24.049   4.196  0.00  0.00    +0.044 C 
BRANCH  20  22
ATOM     21  OXT PHE A   1     -35.845  22.627   6.128  0.00  0.00    -0.253 OA
ATOM     22  C   PHE A   1     -35.991  22.741   4.918  0.00  0.00    +0.294 C 
BRANCH  22  23
ATOM     23  O   PHE A   1     -35.953  21.681   4.070  0.00  0.00    -0.482 OA
ATOM     24  H   PHE A   1     -35.158  21.465   3.625  0.00  0.00    +0.295 HD
ENDBRANCH  22  23
ENDBRANCH  20  22
BRANCH  20  25
ATOM     25  CB  PHE A   1     -36.260  25.251   5.153  0.00  0.00    +0.016 C 
BRANCH  25  26
ATOM     26  CG  PHE A   1     -35.021  26.105   5.014  0.00  0.00    -0.024 C 
ATOM     27  CD1 PHE A   1     -34.810  26.807   3.838  0.00  0.00    -0.004 C 
ATOM     28  CD2 PHE A   1     -34.122  26.170   6.065  0.00  0.00    -0.004 C 
ATOM     29  CE1 PHE A   1     -33.667  27.596   3.710  0.00  0.00    -0.000 C 
ATOM     30  CE2 PHE A   1     -32.979  26.959   5.937  0.00  0.00    -0.000 C 
ATOM     31  CZ  PHE A   1     -32.752  27.672   4.759  0.00  0.00    -0.000 C 
ENDBRANCH  25  26
ENDBRANCH  20  25
ENDBRANCH  17  20
ENDBRANCH   1  17
TORSDOF 12
ENDMDL
MODEL 6
REMARK VINA RESULT:      -6.1      3.543      5.997
REMARK  Name = 193031
REMARK  12 active torsions:
REMARK  status: ('A' for Active; 'I' for Inactive)
REMARK    1  A    between atoms: C_1  and  C_3
REMARK    2  A    between atoms: C_1  and  N_17
REMARK    3  A    between atoms: C_4  and  C_11
REMARK    4  A    between atoms: C_5  and  O_9
REMARK    5  A    between atoms: C_11  and  C_12
REMARK    6  A    between atoms: C_12  and  C_14
REMARK    7  A    between atoms: C_14  and  O_15
REMARK    8  A    between atoms: N_17  and  CA_20
REMARK    9  A    between atoms: CA_20  and  C_22
REMARK   10  A    between atoms: CA_20  and  CB_25
REMARK   11  A    between atoms: C_22  and  O_23
REMARK   12  A    between atoms: CB_25  and  CG_26
REMARK                            x       y       z     vdW  Elec       q    Type
REMARK                         _______ _______ _______ _____ _____    ______ ____
ROOT
ATOM      1  C   UNK A   0     -38.863  25.158   3.579  0.00  0.00    -0.051 C 
ENDROOT
BRANCH   1   3
ATOM      2  N   UNK A   0     -42.430  25.443   1.212  0.00  0.00    -0.245 NA
ATOM      3  C   UNK A   0     -40.113  25.256   2.747  0.00  0.00    -0.011 C 
ATOM      4  C   UNK A   0     -40.288  24.414   1.661  0.00  0.00    -0.006 C 
ATOM      5  C   UNK A   0     -41.082  26.191   3.075  0.00  0.00    +0.141 C 
ATOM      6  C   UNK A   0     -41.458  24.546   0.930  0.00  0.00    +0.094 C 
ATOM      7  C   UNK A   0     -42.216  26.243   2.280  0.00  0.00    +0.092 C 
ATOM      8  C   UNK A   0     -43.297  27.230   2.581  0.00  0.00    +0.055 C 
BRANCH   5   9
ATOM      9  O   UNK A   0     -40.930  27.026   4.135  0.00  0.00    -0.505 OA
ATOM     10  H   UNK A   0     -41.672  27.260   4.657  0.00  0.00    +0.292 HD
ENDBRANCH   5   9
BRANCH   4  11
ATOM     11  C   UNK A   0     -39.275  23.394   1.271  0.00  0.00    +0.039 C 
BRANCH  11  12
ATOM     12  C   UNK A   0     -39.538  22.003   1.862  0.00  0.00    +0.114 C 
BRANCH  12  14
ATOM     13  O   UNK A   0     -41.157  21.002   0.378  0.00  0.00    -0.250 OA
ATOM     14  C   UNK A   0     -40.013  21.031   0.811  0.00  0.00    +0.314 C 
BRANCH  14  15
ATOM     15  O   UNK A   0     -39.044  20.170   0.412  0.00  0.00    -0.480 OA
ATOM     16  H   UNK A   0     -39.226  19.253   0.361  0.00  0.00    +0.295 HD
ENDBRANCH  14  15
ENDBRANCH  12  14
ENDBRANCH  11  12
ENDBRANCH   4  11
ENDBRANCH   1   3
BRANCH   1  17
ATOM     17  N   PHE A   1     -37.959  26.272   3.334  0.00  0.00    +0.395 N 
ATOM     18  H1  PHE A   1     -38.085  26.600   2.376  0.00  0.00    -0.083 HD
ATOM     19  H2  PHE A   1     -38.173  27.018   3.996  0.00  0.00    -0.083 HD
BRANCH  17  20
ATOM     20  CA  PHE A   1     -36.569  25.863   3.521  0.00  0.00    +0.044 C 
BRANCH  20  22
ATOM     21  OXT PHE A   1     -35.344  26.894   1.685  0.00  0.00    -0.253 OA
ATOM     22  C   PHE A   1     -35.711  26.924   2.853  0.00  0.00    +0.294 C 
BRANCH  22  23
ATOM     23  O   PHE A   1     -35.413  27.950   3.691  0.00  0.00    -0.482 OA
ATOM     24  H   PHE A   1     -35.983  28.153   4.405  0.00  0.00    +0.295 HD
ENDBRANCH  22  23
ENDBRANCH  20  22
BRANCH  20  25
ATOM     25  CB  PHE A   1     -36.348  24.472   2.910  0.00  0.00    +0.016 C 
BRANCH  25  26
ATOM     26  CG  PHE A   1     -35.893  23.449   3.926  0.00  0.00    -0.024 C 
ATOM     27  CD1 PHE A   1     -35.711  23.836   5.243  0.00  0.00    -0.004 C 
ATOM     28  CD2 PHE A   1     -35.669  22.144   3.519  0.00  0.00    -0.004 C 
ATOM     29  CE1 PHE A   1     -35.293  22.892   6.180  0.00  0.00    -0.000 C 
ATOM     30  CE2 PHE A   1     -35.250  21.200   4.456  0.00  0.00    -0.000 C 
ATOM     31  CZ  PHE A   1     -35.061  21.575   5.788  0.00  0.00    -0.000 C 
ENDBRANCH  25  26
ENDBRANCH  20  25
ENDBRANCH  17  20
ENDBRANCH   1  17
TORSDOF 12
ENDMDL
MODEL 7
REMARK VINA RESULT:      -6.0      2.481      5.587
REMARK  Name = 193031
REMARK  12 active torsions:
REMARK  status: ('A' for Active; 'I' for Inactive)
REMARK    1  A    between atoms: C_1  and  C_3
REMARK    2  A    between atoms: C_1  and  N_17
REMARK    3  A    between atoms: C_4  and  C_11
REMARK    4  A    between atoms: C_5  and  O_9
REMARK    5  A    between atoms: C_11  and  C_12
REMARK    6  A    between atoms: C_12  and  C_14
REMARK    7  A    between atoms: C_14  and  O_15
REMARK    8  A    between atoms: N_17  and  CA_20
REMARK    9  A    between atoms: CA_20  and  C_22
REMARK   10  A    between atoms: CA_20  and  CB_25
REMARK   11  A    between atoms: C_22  and  O_23
REMARK   12  A    between atoms: CB_25  and  CG_26
REMARK                            x       y       z     vdW  Elec       q    Type
REMARK                         _______ _______ _______ _____ _____    ______ ____
ROOT
ATOM      1  C   UNK A   0     -36.576  19.708   0.186  0.00  0.00    -0.051 C 
ENDROOT
BRANCH   1   3
ATOM      2  N   UNK A   0     -39.845  17.423  -1.396  0.00  0.00    -0.245 NA
ATOM      3  C   UNK A   0     -37.725  18.908  -0.369  0.00  0.00    -0.011 C 
ATOM      4  C   UNK A   0     -38.811  19.559  -0.932  0.00  0.00    -0.006 C 
ATOM      5  C   UNK A   0     -37.685  17.524  -0.314  0.00  0.00    +0.141 C 
ATOM      6  C   UNK A   0     -39.839  18.775  -1.429  0.00  0.00    +0.094 C 
ATOM      7  C   UNK A   0     -38.765  16.832  -0.838  0.00  0.00    +0.092 C 
ATOM      8  C   UNK A   0     -38.783  15.338  -0.808  0.00  0.00    +0.055 C 
BRANCH   5   9
ATOM      9  O   UNK A   0     -36.630  16.868   0.233  0.00  0.00    -0.505 OA
ATOM     10  H   UNK A   0     -36.776  16.126   0.788  0.00  0.00    +0.292 HD
ENDBRANCH   5   9
BRANCH   4  11
ATOM     11  C   UNK A   0     -38.897  21.043  -1.015  0.00  0.00    +0.039 C 
BRANCH  11  12
ATOM     12  C   UNK A   0     -40.020  21.646  -0.162  0.00  0.00    +0.114 C 
BRANCH  12  14
ATOM     13  O   UNK A   0     -40.422  21.084   2.152  0.00  0.00    -0.250 OA
ATOM     14  C   UNK A   0     -39.692  21.592   1.310  0.00  0.00    +0.314 C 
BRANCH  14  15
ATOM     15  O   UNK A   0     -38.514  22.191   1.610  0.00  0.00    -0.480 OA
ATOM     16  H   UNK A   0     -38.507  23.003   2.076  0.00  0.00    +0.295 HD
ENDBRANCH  14  15
ENDBRANCH  12  14
ENDBRANCH  11  12
ENDBRANCH   4  11
ENDBRANCH   1   3
BRANCH   1  17
ATOM     17  N   PHE A   1     -36.544  19.672   1.640  0.00  0.00    +0.395 N 
ATOM     18  H1  PHE A   1     -37.286  20.268   2.006  0.00  0.00    -0.083 HD
ATOM     19  H2  PHE A   1     -36.679  18.708   1.946  0.00  0.00    -0.083 HD
BRANCH  17  20
ATOM     20  CA  PHE A   1     -35.257  20.147   2.142  0.00  0.00    +0.044 C 
BRANCH  20  22
ATOM     21  OXT PHE A   1     -35.933  22.369   2.876  0.00  0.00    -0.253 OA
ATOM     22  C   PHE A   1     -35.562  21.236   3.156  0.00  0.00    +0.294 C 
BRANCH  22  23
ATOM     23  O   PHE A   1     -35.411  20.809   4.436  0.00  0.00    -0.482 OA
ATOM     24  H   PHE A   1     -35.985  21.122   5.106  0.00  0.00    +0.295 HD
ENDBRANCH  22  23
ENDBRANCH  20  22
BRANCH  20  25
ATOM     25  CB  PHE A   1     -34.402  20.665   0.976  0.00  0.00    +0.016 C 
BRANCH  25  26
ATOM     26  CG  PHE A   1     -33.119  19.886   0.796  0.00  0.00    -0.024 C 
ATOM     27  CD1 PHE A   1     -32.991  18.644   1.396  0.00  0.00    -0.004 C 
ATOM     28  CD2 PHE A   1     -32.098  20.429   0.033  0.00  0.00    -0.004 C 
ATOM     29  CE1 PHE A   1     -31.808  17.925   1.229  0.00  0.00    -0.000 C 
ATOM     30  CE2 PHE A   1     -30.915  19.710  -0.134  0.00  0.00    -0.000 C 
ATOM     31  CZ  PHE A   1     -30.770  18.457   0.465  0.00  0.00    -0.000 C 
ENDBRANCH  25  26
ENDBRANCH  20  25
ENDBRANCH  17  20
ENDBRANCH   1  17
TORSDOF 12
ENDMDL
MODEL 8
REMARK VINA RESULT:      -6.0      1.700      2.038
REMARK  Name = 193031
REMARK  12 active torsions:
REMARK  status: ('A' for Active; 'I' for Inactive)
REMARK    1  A    between atoms: C_1  and  C_3
REMARK    2  A    between atoms: C_1  and  N_17
REMARK    3  A    between atoms: C_4  and  C_11
REMARK    4  A    between atoms: C_5  and  O_9
REMARK    5  A    between atoms: C_11  and  C_12
REMARK    6  A    between atoms: C_12  and  C_14
REMARK    7  A    between atoms: C_14  and  O_15
REMARK    8  A    between atoms: N_17  and  CA_20
REMARK    9  A    between atoms: CA_20  and  C_22
REMARK   10  A    between atoms: CA_20  and  CB_25
REMARK   11  A    between atoms: C_22  and  O_23
REMARK   12  A    between atoms: CB_25  and  CG_26
REMARK                            x       y       z     vdW  Elec       q    Type
REMARK                         _______ _______ _______ _____ _____    ______ ____
ROOT
ATOM      1  C   UNK A   0     -36.389  21.709   2.354  0.00  0.00    -0.051 C 
ENDROOT
BRANCH   1   3
ATOM      2  N   UNK A   0     -38.720  25.170   3.350  0.00  0.00    -0.245 NA
ATOM      3  C   UNK A   0     -37.205  22.924   2.705  0.00  0.00    -0.011 C 
ATOM      4  C   UNK A   0     -36.710  23.852   3.607  0.00  0.00    -0.006 C 
ATOM      5  C   UNK A   0     -38.448  23.105   2.121  0.00  0.00    +0.141 C 
ATOM      6  C   UNK A   0     -37.502  24.952   3.894  0.00  0.00    +0.094 C 
ATOM      7  C   UNK A   0     -39.162  24.239   2.475  0.00  0.00    +0.092 C 
ATOM      8  C   UNK A   0     -40.509  24.492   1.881  0.00  0.00    +0.055 C 
BRANCH   5   9
ATOM      9  O   UNK A   0     -38.952  22.208   1.235  0.00  0.00    -0.505 OA
ATOM     10  H   UNK A   0     -38.458  21.443   1.011  0.00  0.00    +0.292 HD
ENDBRANCH   5   9
BRANCH   4  11
ATOM     11  C   UNK A   0     -35.379  23.699   4.259  0.00  0.00    +0.039 C 
BRANCH  11  12
ATOM     12  C   UNK A   0     -35.186  24.596   5.488  0.00  0.00    +0.114 C 
BRANCH  12  14
ATOM     13  O   UNK A   0     -33.994  26.652   5.921  0.00  0.00    -0.250 OA
ATOM     14  C   UNK A   0     -34.107  25.626   5.262  0.00  0.00    +0.314 C 
BRANCH  14  15
ATOM     15  O   UNK A   0     -33.286  25.312   4.229  0.00  0.00    -0.480 OA
ATOM     16  H   UNK A   0     -32.845  24.486   4.216  0.00  0.00    +0.295 HD
ENDBRANCH  14  15
ENDBRANCH  12  14
ENDBRANCH  11  12
ENDBRANCH   4  11
ENDBRANCH   1   3
BRANCH   1  17
ATOM     17  N   PHE A   1     -36.021  21.691   0.947  0.00  0.00    +0.395 N 
ATOM     18  H1  PHE A   1     -36.822  21.985   0.388  0.00  0.00    -0.083 HD
ATOM     19  H2  PHE A   1     -35.237  22.329   0.806  0.00  0.00    -0.083 HD
BRANCH  17  20
ATOM     20  CA  PHE A   1     -35.613  20.350   0.533  0.00  0.00    +0.044 C 
BRANCH  20  22
ATOM     21  OXT PHE A   1     -37.867  19.945  -0.296  0.00  0.00    -0.253 OA
ATOM     22  C   PHE A   1     -36.890  19.553   0.329  0.00  0.00    +0.294 C 
BRANCH  22  23
ATOM     23  O   PHE A   1     -36.825  18.320   0.894  0.00  0.00    -0.482 OA
ATOM     24  H   PHE A   1     -36.645  18.232   1.809  0.00  0.00    +0.295 HD
ENDBRANCH  22  23
ENDBRANCH  20  22
BRANCH  20  25
ATOM     25  CB  PHE A   1     -34.708  19.728   1.606  0.00  0.00    +0.016 C 
BRANCH  25  26
ATOM     26  CG  PHE A   1     -33.314  19.434   1.101  0.00  0.00    -0.024 C 
ATOM     27  CD1 PHE A   1     -32.664  20.376   0.320  0.00  0.00    -0.004 C 
ATOM     28  CD2 PHE A   1     -32.713  18.230   1.430  0.00  0.00    -0.004 C 
ATOM     29  CE1 PHE A   1     -31.377  20.106  -0.145  0.00  0.00    -0.000 C 
ATOM     30  CE2 PHE A   1     -31.427  17.960   0.964  0.00  0.00    -0.000 C 
ATOM     31  CZ  PHE A   1     -30.758  18.898   0.176  0.00  0.00    -0.000 C 
ENDBRANCH  25  26
ENDBRANCH  20  25
ENDBRANCH  17  20
ENDBRANCH   1  17
TORSDOF 12
ENDMDL
MODEL 9
REMARK VINA RESULT:      -6.0      3.313      6.601
REMARK  Name = 193031
REMARK  12 active torsions:
REMARK  status: ('A' for Active; 'I' for Inactive)
REMARK    1  A    between atoms: C_1  and  C_3
REMARK    2  A    between atoms: C_1  and  N_17
REMARK    3  A    between atoms: C_4  and  C_11
REMARK    4  A    between atoms: C_5  and  O_9
REMARK    5  A    between atoms: C_11  and  C_12
REMARK    6  A    between atoms: C_12  and  C_14
REMARK    7  A    between atoms: C_14  and  O_15
REMARK    8  A    between atoms: N_17  and  CA_20
REMARK    9  A    between atoms: CA_20  and  C_22
REMARK   10  A    between atoms: CA_20  and  CB_25
REMARK   11  A    between atoms: C_22  and  O_23
REMARK   12  A    between atoms: CB_25  and  CG_26
REMARK                            x       y       z     vdW  Elec       q    Type
REMARK                         _______ _______ _______ _____ _____    ______ ____
ROOT
ATOM      1  C   UNK A   0     -36.593  22.596   2.336  0.00  0.00    -0.051 C 
ENDROOT
BRANCH   1   3
ATOM      2  N   UNK A   0     -33.196  20.866   0.366  0.00  0.00    -0.245 NA
ATOM      3  C   UNK A   0     -35.401  21.991   1.643  0.00  0.00    -0.011 C 
ATOM      4  C   UNK A   0     -34.533  22.801   0.929  0.00  0.00    -0.006 C 
ATOM      5  C   UNK A   0     -35.180  20.626   1.728  0.00  0.00    +0.141 C 
ATOM      6  C   UNK A   0     -33.451  22.192   0.312  0.00  0.00    +0.094 C 
ATOM      7  C   UNK A   0     -34.069  20.115   1.075  0.00  0.00    +0.092 C 
ATOM      8  C   UNK A   0     -33.777  18.651   1.128  0.00  0.00    +0.055 C 
BRANCH   5   9
ATOM      9  O   UNK A   0     -36.018  19.815   2.424  0.00  0.00    -0.505 OA
ATOM     10  H   UNK A   0     -36.816  19.519   2.032  0.00  0.00    +0.292 HD
ENDBRANCH   5   9
BRANCH   4  11
ATOM     11  C   UNK A   0     -34.729  24.272   0.810  0.00  0.00    +0.039 C 
BRANCH  11  12
ATOM     12  C   UNK A   0     -33.427  25.078   0.890  0.00  0.00    +0.114 C 
BRANCH  12  14
ATOM     13  O   UNK A   0     -33.316  27.302  -0.045  0.00  0.00    -0.250 OA
ATOM     14  C   UNK A   0     -33.330  26.091  -0.224  0.00  0.00    +0.314 C 
BRANCH  14  15
ATOM     15  O   UNK A   0     -33.289  25.522  -1.454  0.00  0.00    -0.480 OA
ATOM     16  H   UNK A   0     -32.751  25.894  -2.125  0.00  0.00    +0.295 HD
ENDBRANCH  14  15
ENDBRANCH  12  14
ENDBRANCH  11  12
ENDBRANCH   4  11
ENDBRANCH   1   3
BRANCH   1  17
ATOM     17  N   PHE A   1     -36.666  22.201   3.734  0.00  0.00    +0.395 N 
ATOM     18  H1  PHE A   1     -37.583  22.449   4.104  0.00  0.00    -0.083 HD
ATOM     19  H2  PHE A   1     -36.517  21.194   3.797  0.00  0.00    -0.083 HD
BRANCH  17  20
ATOM     20  CA  PHE A   1     -35.634  22.877   4.518  0.00  0.00    +0.044 C 
BRANCH  20  22
ATOM     21  OXT PHE A   1     -35.146  22.276   6.828  0.00  0.00    -0.253 OA
ATOM     22  C   PHE A   1     -35.272  21.940   5.657  0.00  0.00    +0.294 C 
BRANCH  22  23
ATOM     23  O   PHE A   1     -35.129  20.654   5.243  0.00  0.00    -0.482 OA
ATOM     24  H   PHE A   1     -34.297  20.230   5.309  0.00  0.00    +0.295 HD
ENDBRANCH  22  23
ENDBRANCH  20  22
BRANCH  20  25
ATOM     25  CB  PHE A   1     -36.166  24.225   5.026  0.00  0.00    +0.016 C 
BRANCH  25  26
ATOM     26  CG  PHE A   1     -35.399  25.405   4.475  0.00  0.00    -0.024 C 
ATOM     27  CD1 PHE A   1     -34.096  25.621   4.891  0.00  0.00    -0.004 C 
ATOM     28  CD2 PHE A   1     -36.015  26.248   3.564  0.00  0.00    -0.004 C 
ATOM     29  CE1 PHE A   1     -33.388  26.709   4.381  0.00  0.00    -0.000 C 
ATOM     30  CE2 PHE A   1     -35.307  27.336   3.054  0.00  0.00    -0.000 C 
ATOM     31  CZ  PHE A   1     -33.993  27.567   3.464  0.00  0.00    -0.000 C 
ENDBRANCH  25  26
ENDBRANCH  20  25
ENDBRANCH  17  20
ENDBRANCH   1  17
TORSDOF 12
ENDMDL
