MODEL 1
REMARK VINA RESULT:      -5.4      0.000      0.000
REMARK  Name = 195194
REMARK  9 active torsions:
REMARK  status: ('A' for Active; 'I' for Inactive)
REMARK    1  A    between atoms: C_2  and  N_9
REMARK    2  A    between atoms: C_3  and  O_19
REMARK    3  A    between atoms: C_5  and  O_21
REMARK    4  A    between atoms: C_6  and  O_23
REMARK    5  A    between atoms: C_10  and  C_12
REMARK    6  A    between atoms: C_12  and  O_13
REMARK    7  A    between atoms: C_12  and  C_15
REMARK    8  A    between atoms: C_15  and  C_16
REMARK    9  A    between atoms: C_16  and  O_17
REMARK                            x       y       z     vdW  Elec       q    Type
REMARK                         _______ _______ _______ _____ _____    ______ ____
ROOT
ATOM      1  O   UNL     1     -35.286  23.030   3.834  0.00  0.00    -0.329 OA
ATOM      2  C   UNL     1     -37.037  24.740   3.915  0.00  0.00    +0.128 C 
ATOM      3  C   UNL     1     -36.453  25.261   5.233  0.00  0.00    +0.162 C 
ATOM      4  C   UNL     1     -36.697  23.250   3.734  0.00  0.00    +0.138 C 
ATOM      5  C   UNL     1     -34.967  24.911   5.355  0.00  0.00    +0.196 C 
ATOM      6  C   UNL     1     -34.718  23.427   5.086  0.00  0.00    +0.266 C 
ATOM      7  C   UNL     1     -37.124  22.732   2.362  0.00  0.00    +0.034 C 
ENDROOT
BRANCH   2   9
ATOM      8  O   UNL     1     -38.487  26.560   2.215  0.00  0.00    -0.272 OA
ATOM      9  N   UNL     1     -38.468  24.953   3.889  0.00  0.00    -0.299 N 
ATOM     10  C   UNL     1     -39.076  25.855   3.032  0.00  0.00    +0.250 C 
ATOM     11  H   UNL     1     -39.034  24.435   4.508  0.00  0.00    +0.150 HD
BRANCH  10  12
ATOM     12  C   UNL     1     -40.587  25.903   3.215  0.00  0.00    +0.189 C 
BRANCH  12  13
ATOM     13  O   UNL     1     -40.920  27.109   3.886  0.00  0.00    -0.376 OA
ATOM     14  H   UNL     1     -41.398  27.695   3.279  0.00  0.00    +0.211 HD
ENDBRANCH  12  13
BRANCH  12  15
ATOM     15  C   UNL     1     -41.313  25.825   1.871  0.00  0.00    +0.070 C 
BRANCH  15  16
ATOM     16  C   UNL     1     -41.934  27.157   1.468  0.00  0.00    +0.140 C 
BRANCH  16  17
ATOM     17  O   UNL     1     -40.902  28.026   1.019  0.00  0.00    -0.382 OA
ATOM     18  H   UNL     1     -40.770  27.906   0.066  0.00  0.00    +0.210 HD
ENDBRANCH  16  17
ENDBRANCH  15  16
ENDBRANCH  12  15
ENDBRANCH  10  12
ENDBRANCH   2   9
BRANCH   3  19
ATOM     19  O   UNL     1     -36.617  26.676   5.299  0.00  0.00    -0.380 OA
ATOM     20  H   UNL     1     -37.545  26.903   5.129  0.00  0.00    +0.211 HD
ENDBRANCH   3  19
BRANCH   5  21
ATOM     21  O   UNL     1     -34.220  25.652   4.388  0.00  0.00    -0.378 OA
ATOM     22  H   UNL     1     -34.647  26.510   4.237  0.00  0.00    +0.211 HD
ENDBRANCH   5  21
BRANCH   6  23
ATOM     23  O   UNL     1     -35.147  22.604   6.166  0.00  0.00    -0.326 OA
ATOM     24  C   UNL     1     -34.921  21.229   5.891  0.00  0.00    +0.177 C 
ENDBRANCH   6  23
TORSDOF 9
ENDMDL
MODEL 2
REMARK VINA RESULT:      -5.4      3.764      5.888
REMARK  Name = 195194
REMARK  9 active torsions:
REMARK  status: ('A' for Active; 'I' for Inactive)
REMARK    1  A    between atoms: C_2  and  N_9
REMARK    2  A    between atoms: C_3  and  O_19
REMARK    3  A    between atoms: C_5  and  O_21
REMARK    4  A    between atoms: C_6  and  O_23
REMARK    5  A    between atoms: C_10  and  C_12
REMARK    6  A    between atoms: C_12  and  O_13
REMARK    7  A    between atoms: C_12  and  C_15
REMARK    8  A    between atoms: C_15  and  C_16
REMARK    9  A    between atoms: C_16  and  O_17
REMARK                            x       y       z     vdW  Elec       q    Type
REMARK                         _______ _______ _______ _____ _____    ______ ____
ROOT
ATOM      1  O   UNL     1     -34.424  26.532   3.347  0.00  0.00    -0.329 OA
ATOM      2  C   UNL     1     -35.255  24.243   3.601  0.00  0.00    +0.128 C 
ATOM      3  C   UNL     1     -35.209  24.406   5.125  0.00  0.00    +0.162 C 
ATOM      4  C   UNL     1     -34.228  25.175   2.934  0.00  0.00    +0.138 C 
ATOM      5  C   UNL     1     -35.310  25.881   5.526  0.00  0.00    +0.196 C 
ATOM      6  C   UNL     1     -34.304  26.739   4.758  0.00  0.00    +0.266 C 
ATOM      7  C   UNL     1     -34.351  25.160   1.412  0.00  0.00    +0.034 C 
ENDROOT
BRANCH   2   9
ATOM      8  O   UNL     1     -37.232  22.242   2.971  0.00  0.00    -0.272 OA
ATOM      9  N   UNL     1     -35.012  22.862   3.244  0.00  0.00    -0.299 N 
ATOM     10  C   UNL     1     -36.033  21.971   2.957  0.00  0.00    +0.250 C 
ATOM     11  H   UNL     1     -34.081  22.541   3.204  0.00  0.00    +0.150 HD
BRANCH  10  12
ATOM     12  C   UNL     1     -35.514  20.579   2.628  0.00  0.00    +0.189 C 
BRANCH  12  13
ATOM     13  O   UNL     1     -36.626  19.713   2.454  0.00  0.00    -0.376 OA
ATOM     14  H   UNL     1     -37.378  20.047   2.967  0.00  0.00    +0.211 HD
ENDBRANCH  12  13
BRANCH  12  15
ATOM     15  C   UNL     1     -34.649  20.591   1.366  0.00  0.00    +0.070 C 
BRANCH  15  16
ATOM     16  C   UNL     1     -33.769  19.351   1.253  0.00  0.00    +0.140 C 
BRANCH  16  17
ATOM     17  O   UNL     1     -34.574  18.254   0.843  0.00  0.00    -0.382 OA
ATOM     18  H   UNL     1     -35.142  18.528   0.106  0.00  0.00    +0.210 HD
ENDBRANCH  16  17
ENDBRANCH  15  16
ENDBRANCH  12  15
ENDBRANCH  10  12
ENDBRANCH   2   9
BRANCH   3  19
ATOM     19  O   UNL     1     -36.284  23.677   5.715  0.00  0.00    -0.380 OA
ATOM     20  H   UNL     1     -36.027  22.747   5.818  0.00  0.00    +0.211 HD
ENDBRANCH   3  19
BRANCH   5  21
ATOM     21  O   UNL     1     -36.615  26.373   5.216  0.00  0.00    -0.378 OA
ATOM     22  H   UNL     1     -36.779  27.190   5.713  0.00  0.00    +0.211 HD
ENDBRANCH   5  21
BRANCH   6  23
ATOM     23  O   UNL     1     -32.971  26.555   5.226  0.00  0.00    -0.326 OA
ATOM     24  C   UNL     1     -32.825  27.006   6.565  0.00  0.00    +0.177 C 
ENDBRANCH   6  23
TORSDOF 9
ENDMDL
MODEL 3
REMARK VINA RESULT:      -5.3      2.923      5.054
REMARK  Name = 195194
REMARK  9 active torsions:
REMARK  status: ('A' for Active; 'I' for Inactive)
REMARK    1  A    between atoms: C_2  and  N_9
REMARK    2  A    between atoms: C_3  and  O_19
REMARK    3  A    between atoms: C_5  and  O_21
REMARK    4  A    between atoms: C_6  and  O_23
REMARK    5  A    between atoms: C_10  and  C_12
REMARK    6  A    between atoms: C_12  and  O_13
REMARK    7  A    between atoms: C_12  and  C_15
REMARK    8  A    between atoms: C_15  and  C_16
REMARK    9  A    between atoms: C_16  and  O_17
REMARK                            x       y       z     vdW  Elec       q    Type
REMARK                         _______ _______ _______ _____ _____    ______ ____
ROOT
ATOM      1  O   UNL     1     -35.496  20.352   3.521  0.00  0.00    -0.329 OA
ATOM      2  C   UNL     1     -36.353  22.640   3.340  0.00  0.00    +0.128 C 
ATOM      3  C   UNL     1     -36.511  22.449   1.827  0.00  0.00    +0.162 C 
ATOM      4  C   UNL     1     -35.247  21.716   3.880  0.00  0.00    +0.138 C 
ATOM      5  C   UNL     1     -36.666  20.968   1.469  0.00  0.00    +0.196 C 
ATOM      6  C   UNL     1     -35.567  20.120   2.111  0.00  0.00    +0.266 C 
ATOM      7  C   UNL     1     -35.165  21.758   5.404  0.00  0.00    +0.034 C 
ENDROOT
BRANCH   2   9
ATOM      8  O   UNL     1     -38.252  24.703   4.005  0.00  0.00    -0.272 OA
ATOM      9  N   UNL     1     -36.063  24.026   3.636  0.00  0.00    -0.299 N 
ATOM     10  C   UNL     1     -37.049  24.947   3.947  0.00  0.00    +0.250 C 
ATOM     11  H   UNL     1     -35.125  24.327   3.616  0.00  0.00    +0.150 HD
BRANCH  10  12
ATOM     12  C   UNL     1     -36.485  26.339   4.200  0.00  0.00    +0.189 C 
BRANCH  12  13
ATOM     13  O   UNL     1     -36.362  26.526   5.602  0.00  0.00    -0.376 OA
ATOM     14  H   UNL     1     -37.120  27.035   5.928  0.00  0.00    +0.211 HD
ENDBRANCH  12  13
BRANCH  12  15
ATOM     15  C   UNL     1     -35.127  26.521   3.520  0.00  0.00    +0.070 C 
BRANCH  15  16
ATOM     16  C   UNL     1     -33.985  26.633   4.523  0.00  0.00    +0.140 C 
BRANCH  16  17
ATOM     17  O   UNL     1     -33.652  25.330   4.984  0.00  0.00    -0.382 OA
ATOM     18  H   UNL     1     -33.347  24.791   4.238  0.00  0.00    +0.210 HD
ENDBRANCH  16  17
ENDBRANCH  15  16
ENDBRANCH  12  15
ENDBRANCH  10  12
ENDBRANCH   2   9
BRANCH   3  19
ATOM     19  O   UNL     1     -37.655  23.171   1.373  0.00  0.00    -0.380 OA
ATOM     20  H   UNL     1     -38.070  23.625   2.124  0.00  0.00    +0.211 HD
ENDBRANCH   3  19
BRANCH   5  21
ATOM     21  O   UNL     1     -37.919  20.485   1.960  0.00  0.00    -0.378 OA
ATOM     22  H   UNL     1     -38.514  21.235   2.119  0.00  0.00    +0.211 HD
ENDBRANCH   5  21
BRANCH   6  23
ATOM     23  O   UNL     1     -34.309  20.292   1.466  0.00  0.00    -0.326 OA
ATOM     24  C   UNL     1     -33.582  19.072   1.415  0.00  0.00    +0.177 C 
ENDBRANCH   6  23
TORSDOF 9
ENDMDL
MODEL 4
REMARK VINA RESULT:      -5.3      3.236      4.697
REMARK  Name = 195194
REMARK  9 active torsions:
REMARK  status: ('A' for Active; 'I' for Inactive)
REMARK    1  A    between atoms: C_2  and  N_9
REMARK    2  A    between atoms: C_3  and  O_19
REMARK    3  A    between atoms: C_5  and  O_21
REMARK    4  A    between atoms: C_6  and  O_23
REMARK    5  A    between atoms: C_10  and  C_12
REMARK    6  A    between atoms: C_12  and  O_13
REMARK    7  A    between atoms: C_12  and  C_15
REMARK    8  A    between atoms: C_15  and  C_16
REMARK    9  A    between atoms: C_16  and  O_17
REMARK                            x       y       z     vdW  Elec       q    Type
REMARK                         _______ _______ _______ _____ _____    ______ ____
ROOT
ATOM      1  O   UNL     1     -36.723  24.558   4.764  0.00  0.00    -0.329 OA
ATOM      2  C   UNL     1     -37.049  22.592   3.341  0.00  0.00    +0.128 C 
ATOM      3  C   UNL     1     -35.683  22.057   3.784  0.00  0.00    +0.162 C 
ATOM      4  C   UNL     1     -37.081  24.127   3.446  0.00  0.00    +0.138 C 
ATOM      5  C   UNL     1     -35.283  22.626   5.148  0.00  0.00    +0.196 C 
ATOM      6  C   UNL     1     -35.417  24.149   5.181  0.00  0.00    +0.266 C 
ATOM      7  C   UNL     1     -38.473  24.687   3.166  0.00  0.00    +0.034 C 
ENDROOT
BRANCH   2   9
ATOM      8  O   UNL     1     -39.497  21.407   2.386  0.00  0.00    -0.272 OA
ATOM      9  N   UNL     1     -37.337  22.158   1.991  0.00  0.00    -0.299 N 
ATOM     10  C   UNL     1     -38.549  21.597   1.626  0.00  0.00    +0.250 C 
ATOM     11  H   UNL     1     -36.641  22.266   1.302  0.00  0.00    +0.150 HD
BRANCH  10  12
ATOM     12  C   UNL     1     -38.591  21.210   0.154  0.00  0.00    +0.189 C 
BRANCH  12  13
ATOM     13  O   UNL     1     -38.822  19.813   0.063  0.00  0.00    -0.376 OA
ATOM     14  H   UNL     1     -39.596  19.648  -0.498  0.00  0.00    +0.211 HD
ENDBRANCH  12  13
BRANCH  12  15
ATOM     15  C   UNL     1     -39.683  21.979  -0.592  0.00  0.00    +0.070 C 
BRANCH  15  16
ATOM     16  C   UNL     1     -40.858  21.089  -0.980  0.00  0.00    +0.140 C 
BRANCH  16  17
ATOM     17  O   UNL     1     -41.562  20.720   0.199  0.00  0.00    -0.382 OA
ATOM     18  H   UNL     1     -42.029  21.494   0.551  0.00  0.00    +0.210 HD
ENDBRANCH  16  17
ENDBRANCH  15  16
ENDBRANCH  12  15
ENDBRANCH  10  12
ENDBRANCH   2   9
BRANCH   3  19
ATOM     19  O   UNL     1     -35.729  20.633   3.855  0.00  0.00    -0.380 OA
ATOM     20  H   UNL     1     -35.373  20.256   3.035  0.00  0.00    +0.211 HD
ENDBRANCH   3  19
BRANCH   5  21
ATOM     21  O   UNL     1     -36.146  22.099   6.158  0.00  0.00    -0.378 OA
ATOM     22  H   UNL     1     -36.953  21.752   5.746  0.00  0.00    +0.211 HD
ENDBRANCH   5  21
BRANCH   6  23
ATOM     23  O   UNL     1     -34.382  24.796   4.448  0.00  0.00    -0.326 OA
ATOM     24  C   UNL     1     -34.072  26.067   5.002  0.00  0.00    +0.177 C 
ENDBRANCH   6  23
TORSDOF 9
ENDMDL
MODEL 5
REMARK VINA RESULT:      -5.2      2.936      5.277
REMARK  Name = 195194
REMARK  9 active torsions:
REMARK  status: ('A' for Active; 'I' for Inactive)
REMARK    1  A    between atoms: C_2  and  N_9
REMARK    2  A    between atoms: C_3  and  O_19
REMARK    3  A    between atoms: C_5  and  O_21
REMARK    4  A    between atoms: C_6  and  O_23
REMARK    5  A    between atoms: C_10  and  C_12
REMARK    6  A    between atoms: C_12  and  O_13
REMARK    7  A    between atoms: C_12  and  C_15
REMARK    8  A    between atoms: C_15  and  C_16
REMARK    9  A    between atoms: C_16  and  O_17
REMARK                            x       y       z     vdW  Elec       q    Type
REMARK                         _______ _______ _______ _____ _____    ______ ____
ROOT
ATOM      1  O   UNL     1     -36.657  24.548   4.934  0.00  0.00    -0.329 OA
ATOM      2  C   UNL     1     -36.833  22.627   3.424  0.00  0.00    +0.128 C 
ATOM      3  C   UNL     1     -35.515  22.079   3.985  0.00  0.00    +0.162 C 
ATOM      4  C   UNL     1     -36.880  24.158   3.574  0.00  0.00    +0.138 C 
ATOM      5  C   UNL     1     -35.255  22.605   5.399  0.00  0.00    +0.196 C 
ATOM      6  C   UNL     1     -35.397  24.126   5.465  0.00  0.00    +0.266 C 
ATOM      7  C   UNL     1     -38.239  24.727   3.174  0.00  0.00    +0.034 C 
ENDROOT
BRANCH   2   9
ATOM      8  O   UNL     1     -39.162  21.453   2.199  0.00  0.00    -0.272 OA
ATOM      9  N   UNL     1     -36.982  22.235   2.040  0.00  0.00    -0.299 N 
ATOM     10  C   UNL     1     -38.147  21.676   1.541  0.00  0.00    +0.250 C 
ATOM     11  H   UNL     1     -36.224  22.372   1.426  0.00  0.00    +0.150 HD
BRANCH  10  12
ATOM     12  C   UNL     1     -38.042  21.338   0.060  0.00  0.00    +0.189 C 
BRANCH  12  13
ATOM     13  O   UNL     1     -36.851  21.918  -0.450  0.00  0.00    -0.376 OA
ATOM     14  H   UNL     1     -36.431  21.303  -1.070  0.00  0.00    +0.211 HD
ENDBRANCH  12  13
BRANCH  12  15
ATOM     15  C   UNL     1     -38.034  19.825  -0.166  0.00  0.00    +0.070 C 
BRANCH  15  16
ATOM     16  C   UNL     1     -36.632  19.233  -0.087  0.00  0.00    +0.140 C 
BRANCH  16  17
ATOM     17  O   UNL     1     -36.173  19.320   1.256  0.00  0.00    -0.382 OA
ATOM     18  H   UNL     1     -36.442  18.524   1.741  0.00  0.00    +0.210 HD
ENDBRANCH  16  17
ENDBRANCH  15  16
ENDBRANCH  12  15
ENDBRANCH  10  12
ENDBRANCH   2   9
BRANCH   3  19
ATOM     19  O   UNL     1     -35.563  20.654   4.007  0.00  0.00    -0.380 OA
ATOM     20  H   UNL     1     -35.148  20.329   4.822  0.00  0.00    +0.211 HD
ENDBRANCH   3  19
BRANCH   5  21
ATOM     21  O   UNL     1     -36.213  22.047   6.301  0.00  0.00    -0.378 OA
ATOM     22  H   UNL     1     -36.787  21.429   5.822  0.00  0.00    +0.211 HD
ENDBRANCH   5  21
BRANCH   6  23
ATOM     23  O   UNL     1     -34.296  24.797   4.859  0.00  0.00    -0.326 OA
ATOM     24  C   UNL     1     -34.049  26.051   5.479  0.00  0.00    +0.177 C 
ENDBRANCH   6  23
TORSDOF 9
ENDMDL
MODEL 6
REMARK VINA RESULT:      -4.9      3.842      6.196
REMARK  Name = 195194
REMARK  9 active torsions:
REMARK  status: ('A' for Active; 'I' for Inactive)
REMARK    1  A    between atoms: C_2  and  N_9
REMARK    2  A    between atoms: C_3  and  O_19
REMARK    3  A    between atoms: C_5  and  O_21
REMARK    4  A    between atoms: C_6  and  O_23
REMARK    5  A    between atoms: C_10  and  C_12
REMARK    6  A    between atoms: C_12  and  O_13
REMARK    7  A    between atoms: C_12  and  C_15
REMARK    8  A    between atoms: C_15  and  C_16
REMARK    9  A    between atoms: C_16  and  O_17
REMARK                            x       y       z     vdW  Elec       q    Type
REMARK                         _______ _______ _______ _____ _____    ______ ____
ROOT
ATOM      1  O   UNL     1     -32.303  28.197   2.811  0.00  0.00    -0.329 OA
ATOM      2  C   UNL     1     -33.688  26.883   4.344  0.00  0.00    +0.128 C 
ATOM      3  C   UNL     1     -32.627  27.059   5.437  0.00  0.00    +0.162 C 
ATOM      4  C   UNL     1     -33.039  26.978   2.952  0.00  0.00    +0.138 C 
ATOM      5  C   UNL     1     -31.786  28.315   5.193  0.00  0.00    +0.196 C 
ATOM      6  C   UNL     1     -31.247  28.358   3.762  0.00  0.00    +0.266 C 
ATOM      7  C   UNL     1     -34.083  26.966   1.837  0.00  0.00    +0.034 C 
ENDROOT
BRANCH   2   9
ATOM      8  O   UNL     1     -36.168  26.427   5.740  0.00  0.00    -0.272 OA
ATOM      9  N   UNL     1     -34.369  25.618   4.516  0.00  0.00    -0.299 N 
ATOM     10  C   UNL     1     -35.564  25.498   5.206  0.00  0.00    +0.250 C 
ATOM     11  H   UNL     1     -33.967  24.808   4.125  0.00  0.00    +0.150 HD
BRANCH  10  12
ATOM     12  C   UNL     1     -36.064  24.061   5.257  0.00  0.00    +0.189 C 
BRANCH  12  13
ATOM     13  O   UNL     1     -36.814  23.804   4.080  0.00  0.00    -0.376 OA
ATOM     14  H   UNL     1     -37.341  22.999   4.201  0.00  0.00    +0.211 HD
ENDBRANCH  12  13
BRANCH  12  15
ATOM     15  C   UNL     1     -34.903  23.072   5.373  0.00  0.00    +0.070 C 
BRANCH  15  16
ATOM     16  C   UNL     1     -35.191  21.953   6.367  0.00  0.00    +0.140 C 
BRANCH  16  17
ATOM     17  O   UNL     1     -35.293  20.725   5.657  0.00  0.00    -0.382 OA
ATOM     18  H   UNL     1     -34.830  20.028   6.148  0.00  0.00    +0.210 HD
ENDBRANCH  16  17
ENDBRANCH  15  16
ENDBRANCH  12  15
ENDBRANCH  10  12
ENDBRANCH   2   9
BRANCH   3  19
ATOM     19  O   UNL     1     -33.265  27.152   6.709  0.00  0.00    -0.380 OA
ATOM     20  H   UNL     1     -32.597  27.095   7.411  0.00  0.00    +0.211 HD
ENDBRANCH   3  19
BRANCH   5  21
ATOM     21  O   UNL     1     -32.596  29.478   5.379  0.00  0.00    -0.378 OA
ATOM     22  H   UNL     1     -32.575  29.740   6.313  0.00  0.00    +0.211 HD
ENDBRANCH   5  21
BRANCH   6  23
ATOM     23  O   UNL     1     -30.183  27.432   3.560  0.00  0.00    -0.326 OA
ATOM     24  C   UNL     1     -28.938  27.975   3.974  0.00  0.00    +0.177 C 
ENDBRANCH   6  23
TORSDOF 9
ENDMDL
MODEL 7
REMARK VINA RESULT:      -4.7      2.289      6.288
REMARK  Name = 195194
REMARK  9 active torsions:
REMARK  status: ('A' for Active; 'I' for Inactive)
REMARK    1  A    between atoms: C_2  and  N_9
REMARK    2  A    between atoms: C_3  and  O_19
REMARK    3  A    between atoms: C_5  and  O_21
REMARK    4  A    between atoms: C_6  and  O_23
REMARK    5  A    between atoms: C_10  and  C_12
REMARK    6  A    between atoms: C_12  and  O_13
REMARK    7  A    between atoms: C_12  and  C_15
REMARK    8  A    between atoms: C_15  and  C_16
REMARK    9  A    between atoms: C_16  and  O_17
REMARK                            x       y       z     vdW  Elec       q    Type
REMARK                         _______ _______ _______ _____ _____    ______ ____
ROOT
ATOM      1  O   UNL     1     -40.827  23.981   1.727  0.00  0.00    -0.329 OA
ATOM      2  C   UNL     1     -38.644  23.749   2.811  0.00  0.00    +0.128 C 
ATOM      3  C   UNL     1     -38.394  25.247   2.605  0.00  0.00    +0.162 C 
ATOM      4  C   UNL     1     -39.615  23.218   1.742  0.00  0.00    +0.138 C 
ATOM      5  C   UNL     1     -39.712  26.016   2.483  0.00  0.00    +0.196 C 
ATOM      6  C   UNL     1     -40.641  25.373   1.452  0.00  0.00    +0.266 C 
ATOM      7  C   UNL     1     -40.014  21.768   2.006  0.00  0.00    +0.034 C 
ENDROOT
BRANCH   2   9
ATOM      8  O   UNL     1     -36.748  23.468   4.964  0.00  0.00    -0.272 OA
ATOM      9  N   UNL     1     -37.389  23.028   2.777  0.00  0.00    -0.299 N 
ATOM     10  C   UNL     1     -36.541  22.949   3.868  0.00  0.00    +0.250 C 
ATOM     11  H   UNL     1     -37.128  22.575   1.942  0.00  0.00    +0.150 HD
BRANCH  10  12
ATOM     12  C   UNL     1     -35.281  22.149   3.568  0.00  0.00    +0.189 C 
BRANCH  12  13
ATOM     13  O   UNL     1     -35.241  21.029   4.439  0.00  0.00    -0.376 OA
ATOM     14  H   UNL     1     -35.837  20.340   4.107  0.00  0.00    +0.211 HD
ENDBRANCH  12  13
BRANCH  12  15
ATOM     15  C   UNL     1     -35.248  21.689   2.109  0.00  0.00    +0.070 C 
BRANCH  15  16
ATOM     16  C   UNL     1     -35.412  20.180   1.973  0.00  0.00    +0.140 C 
BRANCH  16  17
ATOM     17  O   UNL     1     -36.685  19.810   2.487  0.00  0.00    -0.382 OA
ATOM     18  H   UNL     1     -37.134  19.229   1.851  0.00  0.00    +0.210 HD
ENDBRANCH  16  17
ENDBRANCH  15  16
ENDBRANCH  12  15
ENDBRANCH  10  12
ENDBRANCH   2   9
BRANCH   3  19
ATOM     19  O   UNL     1     -37.642  25.760   3.703  0.00  0.00    -0.380 OA
ATOM     20  H   UNL     1     -38.125  26.497   4.110  0.00  0.00    +0.211 HD
ENDBRANCH   3  19
BRANCH   5  21
ATOM     21  O   UNL     1     -40.393  26.001   3.739  0.00  0.00    -0.378 OA
ATOM     22  H   UNL     1     -40.318  26.873   4.158  0.00  0.00    +0.211 HD
ENDBRANCH   5  21
BRANCH   6  23
ATOM     23  O   UNL     1     -40.212  25.613   0.116  0.00  0.00    -0.326 OA
ATOM     24  C   UNL     1     -39.846  26.973  -0.074  0.00  0.00    +0.177 C 
ENDBRANCH   6  23
TORSDOF 9
ENDMDL
MODEL 8
REMARK VINA RESULT:      -4.7      2.794      5.816
REMARK  Name = 195194
REMARK  9 active torsions:
REMARK  status: ('A' for Active; 'I' for Inactive)
REMARK    1  A    between atoms: C_2  and  N_9
REMARK    2  A    between atoms: C_3  and  O_19
REMARK    3  A    between atoms: C_5  and  O_21
REMARK    4  A    between atoms: C_6  and  O_23
REMARK    5  A    between atoms: C_10  and  C_12
REMARK    6  A    between atoms: C_12  and  O_13
REMARK    7  A    between atoms: C_12  and  C_15
REMARK    8  A    between atoms: C_15  and  C_16
REMARK    9  A    between atoms: C_16  and  O_17
REMARK                            x       y       z     vdW  Elec       q    Type
REMARK                         _______ _______ _______ _____ _____    ______ ____
ROOT
ATOM      1  O   UNL     1     -36.747  22.871   4.085  0.00  0.00    -0.329 OA
ATOM      2  C   UNL     1     -35.866  25.150   3.921  0.00  0.00    +0.128 C 
ATOM      3  C   UNL     1     -36.859  25.441   2.790  0.00  0.00    +0.162 C 
ATOM      4  C   UNL     1     -35.548  23.645   3.976  0.00  0.00    +0.138 C 
ATOM      5  C   UNL     1     -38.078  24.519   2.874  0.00  0.00    +0.196 C 
ATOM      6  C   UNL     1     -37.663  23.053   3.001  0.00  0.00    +0.266 C 
ATOM      7  C   UNL     1     -34.687  23.290   5.186  0.00  0.00    +0.034 C 
ENDROOT
BRANCH   2   9
ATOM      8  O   UNL     1     -34.426  26.623   5.937  0.00  0.00    -0.272 OA
ATOM      9  N   UNL     1     -34.661  25.929   3.734  0.00  0.00    -0.299 N 
ATOM     10  C   UNL     1     -34.039  26.606   4.770  0.00  0.00    +0.250 C 
ATOM     11  H   UNL     1     -34.267  25.981   2.833  0.00  0.00    +0.150 HD
BRANCH  10  12
ATOM     12  C   UNL     1     -32.801  27.362   4.309  0.00  0.00    +0.189 C 
BRANCH  12  13
ATOM     13  O   UNL     1     -33.182  28.264   3.281  0.00  0.00    -0.376 OA
ATOM     14  H   UNL     1     -33.290  27.779   2.449  0.00  0.00    +0.211 HD
ENDBRANCH  12  13
BRANCH  12  15
ATOM     15  C   UNL     1     -32.149  28.121   5.467  0.00  0.00    +0.070 C 
BRANCH  15  16
ATOM     16  C   UNL     1     -31.729  29.532   5.073  0.00  0.00    +0.140 C 
BRANCH  16  17
ATOM     17  O   UNL     1     -32.870  30.379   5.120  0.00  0.00    -0.382 OA
ATOM     18  H   UNL     1     -33.410  30.150   5.893  0.00  0.00    +0.210 HD
ENDBRANCH  16  17
ENDBRANCH  15  16
ENDBRANCH  12  15
ENDBRANCH  10  12
ENDBRANCH   2   9
BRANCH   3  19
ATOM     19  O   UNL     1     -37.283  26.801   2.867  0.00  0.00    -0.380 OA
ATOM     20  H   UNL     1     -37.372  27.164   1.971  0.00  0.00    +0.211 HD
ENDBRANCH   3  19
BRANCH   5  21
ATOM     21  O   UNL     1     -38.848  24.847   4.033  0.00  0.00    -0.378 OA
ATOM     22  H   UNL     1     -38.850  24.094   4.644  0.00  0.00    +0.211 HD
ENDBRANCH   5  21
BRANCH   6  23
ATOM     23  O   UNL     1     -37.170  22.525   1.774  0.00  0.00    -0.326 OA
ATOM     24  C   UNL     1     -37.373  21.121   1.695  0.00  0.00    +0.177 C 
ENDBRANCH   6  23
TORSDOF 9
ENDMDL
MODEL 9
REMARK VINA RESULT:      -4.5      3.783      6.546
REMARK  Name = 195194
REMARK  9 active torsions:
REMARK  status: ('A' for Active; 'I' for Inactive)
REMARK    1  A    between atoms: C_2  and  N_9
REMARK    2  A    between atoms: C_3  and  O_19
REMARK    3  A    between atoms: C_5  and  O_21
REMARK    4  A    between atoms: C_6  and  O_23
REMARK    5  A    between atoms: C_10  and  C_12
REMARK    6  A    between atoms: C_12  and  O_13
REMARK    7  A    between atoms: C_12  and  C_15
REMARK    8  A    between atoms: C_15  and  C_16
REMARK    9  A    between atoms: C_16  and  O_17
REMARK                            x       y       z     vdW  Elec       q    Type
REMARK                         _______ _______ _______ _____ _____    ______ ____
ROOT
ATOM      1  O   UNL     1     -34.898  20.795  -0.828  0.00  0.00    -0.329 OA
ATOM      2  C   UNL     1     -35.498  21.244   1.504  0.00  0.00    +0.128 C 
ATOM      3  C   UNL     1     -36.712  20.320   1.358  0.00  0.00    +0.162 C 
ATOM      4  C   UNL     1     -35.109  21.833   0.136  0.00  0.00    +0.138 C 
ATOM      5  C   UNL     1     -36.494  19.293   0.243  0.00  0.00    +0.196 C 
ATOM      6  C   UNL     1     -36.039  19.963  -1.054  0.00  0.00    +0.266 C 
ATOM      7  C   UNL     1     -33.810  22.632   0.210  0.00  0.00    +0.034 C 
ENDROOT
BRANCH   2   9
ATOM      8  O   UNL     1     -35.176  21.117   4.365  0.00  0.00    -0.272 OA
ATOM      9  N   UNL     1     -35.786  22.292   2.458  0.00  0.00    -0.299 N 
ATOM     10  C   UNL     1     -35.598  22.136   3.822  0.00  0.00    +0.250 C 
ATOM     11  H   UNL     1     -36.130  23.153   2.125  0.00  0.00    +0.150 HD
BRANCH  10  12
ATOM     12  C   UNL     1     -35.991  23.379   4.608  0.00  0.00    +0.189 C 
BRANCH  12  13
ATOM     13  O   UNL     1     -35.970  23.060   5.992  0.00  0.00    -0.376 OA
ATOM     14  H   UNL     1     -36.399  23.771   6.493  0.00  0.00    +0.211 HD
ENDBRANCH  12  13
BRANCH  12  15
ATOM     15  C   UNL     1     -35.043  24.544   4.317  0.00  0.00    +0.070 C 
BRANCH  15  16
ATOM     16  C   UNL     1     -35.245  25.710   5.278  0.00  0.00    +0.140 C 
BRANCH  16  17
ATOM     17  O   UNL     1     -36.626  26.049   5.302  0.00  0.00    -0.382 OA
ATOM     18  H   UNL     1     -37.058  25.593   6.041  0.00  0.00    +0.210 HD
ENDBRANCH  16  17
ENDBRANCH  15  16
ENDBRANCH  12  15
ENDBRANCH  10  12
ENDBRANCH   2   9
BRANCH   3  19
ATOM     19  O   UNL     1     -36.946  19.642   2.591  0.00  0.00    -0.380 OA
ATOM     20  H   UNL     1     -36.877  20.273   3.325  0.00  0.00    +0.211 HD
ENDBRANCH   3  19
BRANCH   5  21
ATOM     21  O   UNL     1     -35.471  18.374   0.631  0.00  0.00    -0.378 OA
ATOM     22  H   UNL     1     -35.380  17.684  -0.045  0.00  0.00    +0.211 HD
ENDBRANCH   5  21
BRANCH   6  23
ATOM     23  O   UNL     1     -37.100  20.655  -1.703  0.00  0.00    -0.326 OA
ATOM     24  C   UNL     1     -38.144  19.768  -2.082  0.00  0.00    +0.177 C 
ENDBRANCH   6  23
TORSDOF 9
ENDMDL
