MODEL 1
REMARK VINA RESULT:      -7.7      0.000      0.000
REMARK  Name = 195136
REMARK  6 active torsions:
REMARK  status: ('A' for Active; 'I' for Inactive)
REMARK    1  A    between atoms: C_1  and  C_2
REMARK    2  A    between atoms: C_1  and  C_18
REMARK    3  A    between atoms: C_1  and  N_30
REMARK    4  A    between atoms: C_7  and  N_8
REMARK    5  A    between atoms: N_8  and  C_11
REMARK    6  A    between atoms: N_17  and  C_20
REMARK                            x       y       z     vdW  Elec       q    Type
REMARK                         _______ _______ _______ _____ _____    ______ ____
ROOT
ATOM      1  C   UNL     1     -34.924  25.579   5.490  0.00  0.00    +0.036 C 
ENDROOT
BRANCH   1   2
ATOM      2  C   UNL     1     -35.103  24.220   4.844  0.00  0.00    -0.034 C 
ATOM      3  C   UNL     1     -35.080  23.088   5.638  0.00  0.00    -0.004 C 
ATOM      4  C   UNL     1     -35.284  24.144   3.475  0.00  0.00    -0.004 C 
ATOM      5  C   UNL     1     -35.245  21.838   5.042  0.00  0.00    +0.019 C 
ATOM      6  C   UNL     1     -35.449  22.894   2.879  0.00  0.00    +0.019 C 
ATOM      7  C   UNL     1     -35.429  21.740   3.664  0.00  0.00    +0.084 C 
BRANCH   7   8
ATOM      8  N   UNL     1     -35.591  20.486   3.067  0.00  0.00    -0.214 NA
BRANCH   8  11
ATOM      9  N   UNL     1     -36.577  19.340   1.286  0.00  0.00    -0.370 N 
ATOM     10  N   UNL     1     -37.839  20.933   2.322  0.00  0.00    -0.370 N 
ATOM     11  C   UNL     1     -36.624  20.285   2.284  0.00  0.00    +0.193 C 
ATOM     12  H   UNL     1     -35.761  18.806   1.153  0.00  0.00    +0.159 HD
ATOM     13  H   UNL     1     -37.358  19.198   0.705  0.00  0.00    +0.159 HD
ATOM     14  H   UNL     1     -38.002  21.635   2.994  0.00  0.00    +0.159 HD
ATOM     15  H   UNL     1     -38.545  20.695   1.679  0.00  0.00    +0.159 HD
ENDBRANCH   8  11
ENDBRANCH   7   8
ENDBRANCH   1   2
BRANCH   1  18
ATOM     16  O   UNL     1     -32.964  25.768   4.091  0.00  0.00    -0.277 OA
ATOM     17  N   UNL     1     -33.376  27.445   5.688  0.00  0.00    -0.285 N 
ATOM     18  C   UNL     1     -33.647  26.257   4.988  0.00  0.00    +0.210 C 
ATOM     19  H   UNL     1     -34.021  27.687   6.391  0.00  0.00    +0.155 HD
BRANCH  17  20
ATOM     20  C   UNL     1     -32.309  28.326   5.510  0.00  0.00    +0.050 C 
ATOM     21  C   UNL     1     -30.164  29.204   6.249  0.00  0.00    +0.001 C 
ATOM     22  C   UNL     1     -30.159  30.098   5.153  0.00  0.00    +0.000 C 
ATOM     23  C   UNL     1     -31.246  28.324   6.414  0.00  0.00    +0.015 C 
ATOM     24  C   UNL     1     -32.305  29.206   4.432  0.00  0.00    +0.015 C 
ATOM     25  C   UNL     1     -31.237  30.087   4.253  0.00  0.00    +0.001 C 
ATOM     26  C   UNL     1     -29.085  29.216   7.150  0.00  0.00    +0.000 C 
ATOM     27  C   UNL     1     -29.077  30.978   4.989  0.00  0.00    +0.000 C 
ATOM     28  C   UNL     1     -28.019  30.097   6.971  0.00  0.00    +0.000 C 
ATOM     29  C   UNL     1     -28.015  30.977   5.893  0.00  0.00    +0.000 C 
ENDBRANCH  17  20
ENDBRANCH   1  18
BRANCH   1  30
ATOM     30  N   UNL     1     -36.050  26.478   5.218  0.00  0.00    +0.390 N 
ATOM     31  H   UNL     1     -36.572  26.134   4.412  0.00  0.00    -0.088 HD
ATOM     32  H   UNL     1     -35.697  27.414   5.021  0.00  0.00    -0.088 HD
ATOM     33  H   UNL     1     -36.663  26.510   6.033  0.00  0.00    -0.088 HD
ENDBRANCH   1  30
TORSDOF 6
ENDMDL
MODEL 2
REMARK VINA RESULT:      -7.6      1.383      1.900
REMARK  Name = 195136
REMARK  6 active torsions:
REMARK  status: ('A' for Active; 'I' for Inactive)
REMARK    1  A    between atoms: C_1  and  C_2
REMARK    2  A    between atoms: C_1  and  C_18
REMARK    3  A    between atoms: C_1  and  N_30
REMARK    4  A    between atoms: C_7  and  N_8
REMARK    5  A    between atoms: N_8  and  C_11
REMARK    6  A    between atoms: N_17  and  C_20
REMARK                            x       y       z     vdW  Elec       q    Type
REMARK                         _______ _______ _______ _____ _____    ______ ____
ROOT
ATOM      1  C   UNL     1     -35.402  25.702   5.671  0.00  0.00    +0.036 C 
ENDROOT
BRANCH   1   2
ATOM      2  C   UNL     1     -35.416  24.356   4.976  0.00  0.00    -0.034 C 
ATOM      3  C   UNL     1     -35.420  24.312   3.594  0.00  0.00    -0.004 C 
ATOM      4  C   UNL     1     -35.425  23.204   5.740  0.00  0.00    -0.004 C 
ATOM      5  C   UNL     1     -35.433  23.073   2.954  0.00  0.00    +0.019 C 
ATOM      6  C   UNL     1     -35.438  21.964   5.101  0.00  0.00    +0.019 C 
ATOM      7  C   UNL     1     -35.443  21.899   3.707  0.00  0.00    +0.084 C 
BRANCH   7   8
ATOM      8  N   UNL     1     -35.458  20.656   3.065  0.00  0.00    -0.214 NA
BRANCH   8  11
ATOM      9  N   UNL     1     -36.423  19.328   1.403  0.00  0.00    -0.370 N 
ATOM     10  N   UNL     1     -37.764  20.881   2.401  0.00  0.00    -0.370 N 
ATOM     11  C   UNL     1     -36.503  20.327   2.345  0.00  0.00    +0.193 C 
ATOM     12  H   UNL     1     -35.573  18.851   1.264  0.00  0.00    +0.159 HD
ATOM     13  H   UNL     1     -37.214  19.090   0.868  0.00  0.00    +0.159 HD
ATOM     14  H   UNL     1     -37.954  21.609   3.036  0.00  0.00    +0.159 HD
ATOM     15  H   UNL     1     -38.475  20.549   1.806  0.00  0.00    +0.159 HD
ENDBRANCH   8  11
ENDBRANCH   7   8
ENDBRANCH   1   2
BRANCH   1  18
ATOM     16  O   UNL     1     -33.170  26.105   6.501  0.00  0.00    -0.277 OA
ATOM     17  N   UNL     1     -33.837  27.156   4.506  0.00  0.00    -0.285 N 
ATOM     18  C   UNL     1     -34.004  26.324   5.626  0.00  0.00    +0.210 C 
ATOM     19  H   UNL     1     -34.615  27.233   3.907  0.00  0.00    +0.155 HD
BRANCH  17  20
ATOM     20  C   UNL     1     -32.708  27.885   4.134  0.00  0.00    +0.050 C 
ATOM     21  C   UNL     1     -31.244  29.801   4.459  0.00  0.00    +0.001 C 
ATOM     22  C   UNL     1     -30.434  29.355   3.388  0.00  0.00    +0.000 C 
ATOM     23  C   UNL     1     -32.377  29.054   4.820  0.00  0.00    +0.015 C 
ATOM     24  C   UNL     1     -31.911  27.447   3.080  0.00  0.00    +0.015 C 
ATOM     25  C   UNL     1     -30.781  28.176   2.708  0.00  0.00    +0.001 C 
ATOM     26  C   UNL     1     -30.896  30.981   5.138  0.00  0.00    +0.000 C 
ATOM     27  C   UNL     1     -29.300  30.102   3.027  0.00  0.00    +0.000 C 
ATOM     28  C   UNL     1     -29.767  31.710   4.765  0.00  0.00    +0.000 C 
ATOM     29  C   UNL     1     -28.970  31.272   3.712  0.00  0.00    +0.000 C 
ENDBRANCH  17  20
ENDBRANCH   1  18
BRANCH   1  30
ATOM     30  N   UNL     1     -36.338  26.653   5.063  0.00  0.00    +0.390 N 
ATOM     31  H   UNL     1     -36.512  27.420   5.712  0.00  0.00    -0.088 HD
ATOM     32  H   UNL     1     -37.216  26.178   4.854  0.00  0.00    -0.088 HD
ATOM     33  H   UNL     1     -35.937  27.020   4.201  0.00  0.00    -0.088 HD
ENDBRANCH   1  30
TORSDOF 6
ENDMDL
MODEL 3
REMARK VINA RESULT:      -7.5      4.660      9.000
REMARK  Name = 195136
REMARK  6 active torsions:
REMARK  status: ('A' for Active; 'I' for Inactive)
REMARK    1  A    between atoms: C_1  and  C_2
REMARK    2  A    between atoms: C_1  and  C_18
REMARK    3  A    between atoms: C_1  and  N_30
REMARK    4  A    between atoms: C_7  and  N_8
REMARK    5  A    between atoms: N_8  and  C_11
REMARK    6  A    between atoms: N_17  and  C_20
REMARK                            x       y       z     vdW  Elec       q    Type
REMARK                         _______ _______ _______ _____ _____    ______ ____
ROOT
ATOM      1  C   UNL     1     -36.338  20.914   1.546  0.00  0.00    +0.036 C 
ENDROOT
BRANCH   1   2
ATOM      2  C   UNL     1     -35.831  22.005   2.468  0.00  0.00    -0.034 C 
ATOM      3  C   UNL     1     -35.836  21.786   3.834  0.00  0.00    -0.004 C 
ATOM      4  C   UNL     1     -35.377  23.191   1.923  0.00  0.00    -0.004 C 
ATOM      5  C   UNL     1     -35.370  22.790   4.683  0.00  0.00    +0.019 C 
ATOM      6  C   UNL     1     -34.911  24.195   2.772  0.00  0.00    +0.019 C 
ATOM      7  C   UNL     1     -34.908  23.994   4.153  0.00  0.00    +0.084 C 
BRANCH   7   8
ATOM      8  N   UNL     1     -34.443  25.001   5.005  0.00  0.00    -0.214 NA
BRANCH   8  11
ATOM      9  N   UNL     1     -34.352  27.297   4.581  0.00  0.00    -0.370 N 
ATOM     10  N   UNL     1     -36.335  26.457   5.336  0.00  0.00    -0.370 N 
ATOM     11  C   UNL     1     -35.033  26.172   4.985  0.00  0.00    +0.193 C 
ATOM     12  H   UNL     1     -33.410  27.228   4.304  0.00  0.00    +0.159 HD
ATOM     13  H   UNL     1     -34.806  28.170   4.571  0.00  0.00    +0.159 HD
ATOM     14  H   UNL     1     -36.930  25.735   5.644  0.00  0.00    +0.159 HD
ATOM     15  H   UNL     1     -36.669  27.381   5.280  0.00  0.00    +0.159 HD
ENDBRANCH   8  11
ENDBRANCH   7   8
ENDBRANCH   1   2
BRANCH   1  18
ATOM     16  O   UNL     1     -35.300  20.300  -0.546  0.00  0.00    -0.277 OA
ATOM     17  N   UNL     1     -34.106  19.951   1.449  0.00  0.00    -0.285 N 
ATOM     18  C   UNL     1     -35.204  20.366   0.677  0.00  0.00    +0.210 C 
ATOM     19  H   UNL     1     -34.199  20.061   2.423  0.00  0.00    +0.155 HD
BRANCH  17  20
ATOM     20  C   UNL     1     -32.901  19.403   1.010  0.00  0.00    +0.050 C 
ATOM     21  C   UNL     1     -30.775  19.657  -0.145  0.00  0.00    +0.001 C 
ATOM     22  C   UNL     1     -30.473  18.302   0.126  0.00  0.00    +0.000 C 
ATOM     23  C   UNL     1     -31.993  20.193   0.304  0.00  0.00    +0.015 C 
ATOM     24  C   UNL     1     -32.604  18.070   1.277  0.00  0.00    +0.015 C 
ATOM     25  C   UNL     1     -31.398  17.521   0.839  0.00  0.00    +0.001 C 
ATOM     26  C   UNL     1     -29.849  20.438  -0.858  0.00  0.00    +0.000 C 
ATOM     27  C   UNL     1     -29.255  17.766  -0.323  0.00  0.00    +0.000 C 
ATOM     28  C   UNL     1     -28.645  19.888  -1.297  0.00  0.00    +0.000 C 
ATOM     29  C   UNL     1     -28.348  18.555  -1.031  0.00  0.00    +0.000 C 
ENDBRANCH  17  20
ENDBRANCH   1  18
BRANCH   1  30
ATOM     30  N   UNL     1     -36.926  19.791   2.282  0.00  0.00    +0.390 N 
ATOM     31  H   UNL     1     -37.650  20.139   2.911  0.00  0.00    -0.088 HD
ATOM     32  H   UNL     1     -36.201  19.322   2.824  0.00  0.00    -0.088 HD
ATOM     33  H   UNL     1     -37.337  19.131   1.622  0.00  0.00    -0.088 HD
ENDBRANCH   1  30
TORSDOF 6
ENDMDL
MODEL 4
REMARK VINA RESULT:      -7.5      4.592      9.917
REMARK  Name = 195136
REMARK  6 active torsions:
REMARK  status: ('A' for Active; 'I' for Inactive)
REMARK    1  A    between atoms: C_1  and  C_2
REMARK    2  A    between atoms: C_1  and  C_18
REMARK    3  A    between atoms: C_1  and  N_30
REMARK    4  A    between atoms: C_7  and  N_8
REMARK    5  A    between atoms: N_8  and  C_11
REMARK    6  A    between atoms: N_17  and  C_20
REMARK                            x       y       z     vdW  Elec       q    Type
REMARK                         _______ _______ _______ _____ _____    ______ ____
ROOT
ATOM      1  C   UNL     1     -36.019  20.900   1.586  0.00  0.00    +0.036 C 
ENDROOT
BRANCH   1   2
ATOM      2  C   UNL     1     -35.617  21.946   2.605  0.00  0.00    -0.034 C 
ATOM      3  C   UNL     1     -35.248  23.206   2.168  0.00  0.00    -0.004 C 
ATOM      4  C   UNL     1     -35.627  21.617   3.948  0.00  0.00    -0.004 C 
ATOM      5  C   UNL     1     -34.878  24.169   3.106  0.00  0.00    +0.019 C 
ATOM      6  C   UNL     1     -35.257  22.580   4.887  0.00  0.00    +0.019 C 
ATOM      7  C   UNL     1     -34.882  23.857   4.466  0.00  0.00    +0.084 C 
BRANCH   7   8
ATOM      8  N   UNL     1     -34.509  24.822   5.406  0.00  0.00    -0.214 NA
BRANCH   8  11
ATOM      9  N   UNL     1     -34.162  27.100   5.025  0.00  0.00    -0.370 N 
ATOM     10  N   UNL     1     -36.307  26.427   5.416  0.00  0.00    -0.370 N 
ATOM     11  C   UNL     1     -34.991  26.036   5.294  0.00  0.00    +0.193 C 
ATOM     12  H   UNL     1     -33.195  26.955   4.915  0.00  0.00    +0.159 HD
ATOM     13  H   UNL     1     -34.535  28.007   4.944  0.00  0.00    +0.159 HD
ATOM     14  H   UNL     1     -37.003  25.757   5.609  0.00  0.00    +0.159 HD
ATOM     15  H   UNL     1     -36.551  27.375   5.311  0.00  0.00    +0.159 HD
ENDBRANCH   8  11
ENDBRANCH   7   8
ENDBRANCH   1   2
BRANCH   1  18
ATOM     16  O   UNL     1     -34.120  20.964   0.094  0.00  0.00    -0.277 OA
ATOM     17  N   UNL     1     -34.560  18.978   1.275  0.00  0.00    -0.285 N 
ATOM     18  C   UNL     1     -34.787  20.312   0.895  0.00  0.00    +0.210 C 
ATOM     19  H   UNL     1     -35.200  18.600   1.920  0.00  0.00    +0.155 HD
BRANCH  17  20
ATOM     20  C   UNL     1     -33.540  18.123   0.856  0.00  0.00    +0.050 C 
ATOM     21  C   UNL     1     -31.174  17.567   0.755  0.00  0.00    +0.001 C 
ATOM     22  C   UNL     1     -31.485  16.403   0.014  0.00  0.00    +0.000 C 
ATOM     23  C   UNL     1     -32.213  18.417   1.169  0.00  0.00    +0.015 C 
ATOM     24  C   UNL     1     -33.847  16.978   0.127  0.00  0.00    +0.015 C 
ATOM     25  C   UNL     1     -32.828  16.123  -0.292  0.00  0.00    +0.001 C 
ATOM     26  C   UNL     1     -29.831  17.848   1.060  0.00  0.00    +0.000 C 
ATOM     27  C   UNL     1     -30.447  15.553  -0.400  0.00  0.00    +0.000 C 
ATOM     28  C   UNL     1     -28.812  16.992   0.640  0.00  0.00    +0.000 C 
ATOM     29  C   UNL     1     -29.119  15.847  -0.089  0.00  0.00    +0.000 C 
ENDBRANCH  17  20
ENDBRANCH   1  18
BRANCH   1  30
ATOM     30  N   UNL     1     -36.769  19.794   2.189  0.00  0.00    +0.390 N 
ATOM     31  H   UNL     1     -36.627  18.947   1.638  0.00  0.00    -0.088 HD
ATOM     32  H   UNL     1     -37.762  20.026   2.207  0.00  0.00    -0.088 HD
ATOM     33  H   UNL     1     -36.439  19.640   3.142  0.00  0.00    -0.088 HD
ENDBRANCH   1  30
TORSDOF 6
ENDMDL
MODEL 5
REMARK VINA RESULT:      -7.4      2.645      9.385
REMARK  Name = 195136
REMARK  6 active torsions:
REMARK  status: ('A' for Active; 'I' for Inactive)
REMARK    1  A    between atoms: C_1  and  C_2
REMARK    2  A    between atoms: C_1  and  C_18
REMARK    3  A    between atoms: C_1  and  N_30
REMARK    4  A    between atoms: C_7  and  N_8
REMARK    5  A    between atoms: N_8  and  C_11
REMARK    6  A    between atoms: N_17  and  C_20
REMARK                            x       y       z     vdW  Elec       q    Type
REMARK                         _______ _______ _______ _____ _____    ______ ____
ROOT
ATOM      1  C   UNL     1     -36.684  24.915   3.616  0.00  0.00    +0.036 C 
ENDROOT
BRANCH   1   2
ATOM      2  C   UNL     1     -35.434  25.587   4.146  0.00  0.00    -0.034 C 
ATOM      3  C   UNL     1     -34.537  26.142   3.251  0.00  0.00    -0.004 C 
ATOM      4  C   UNL     1     -35.219  25.631   5.511  0.00  0.00    -0.004 C 
ATOM      5  C   UNL     1     -33.386  26.761   3.739  0.00  0.00    +0.019 C 
ATOM      6  C   UNL     1     -34.068  26.250   5.999  0.00  0.00    +0.019 C 
ATOM      7  C   UNL     1     -33.151  26.815   5.112  0.00  0.00    +0.084 C 
BRANCH   7   8
ATOM      8  N   UNL     1     -31.996  27.434   5.601  0.00  0.00    -0.214 NA
BRANCH   8  11
ATOM      9  N   UNL     1     -31.813  28.875   7.430  0.00  0.00    -0.370 N 
ATOM     10  N   UNL     1     -32.446  29.796   5.441  0.00  0.00    -0.370 N 
ATOM     11  C   UNL     1     -32.088  28.642   6.102  0.00  0.00    +0.193 C 
ATOM     12  H   UNL     1     -31.544  28.130   8.015  0.00  0.00    +0.159 HD
ATOM     13  H   UNL     1     -31.885  29.786   7.795  0.00  0.00    +0.159 HD
ATOM     14  H   UNL     1     -32.669  29.764   4.482  0.00  0.00    +0.159 HD
ATOM     15  H   UNL     1     -32.480  30.652   5.926  0.00  0.00    +0.159 HD
ENDBRANCH   8  11
ENDBRANCH   7   8
ENDBRANCH   1   2
BRANCH   1  18
ATOM     16  O   UNL     1     -36.454  22.647   4.415  0.00  0.00    -0.277 OA
ATOM     17  N   UNL     1     -36.262  23.054   2.106  0.00  0.00    -0.285 N 
ATOM     18  C   UNL     1     -36.464  23.410   3.451  0.00  0.00    +0.210 C 
ATOM     19  H   UNL     1     -36.287  23.794   1.458  0.00  0.00    +0.155 HD
BRANCH  17  20
ATOM     20  C   UNL     1     -36.031  21.785   1.575  0.00  0.00    +0.050 C 
ATOM     21  C   UNL     1     -34.550  19.885   1.241  0.00  0.00    +0.001 C 
ATOM     22  C   UNL     1     -35.566  19.230   0.507  0.00  0.00    +0.000 C 
ATOM     23  C   UNL     1     -34.798  21.163   1.769  0.00  0.00    +0.015 C 
ATOM     24  C   UNL     1     -37.031  21.141   0.852  0.00  0.00    +0.015 C 
ATOM     25  C   UNL     1     -36.802  19.872   0.321  0.00  0.00    +0.001 C 
ATOM     26  C   UNL     1     -33.314  19.243   1.426  0.00  0.00    +0.000 C 
ATOM     27  C   UNL     1     -35.317  17.952  -0.021  0.00  0.00    +0.000 C 
ATOM     28  C   UNL     1     -33.084  17.974   0.894  0.00  0.00    +0.000 C 
ATOM     29  C   UNL     1     -34.084  17.330   0.171  0.00  0.00    +0.000 C 
ENDBRANCH  17  20
ENDBRANCH   1  18
BRANCH   1  30
ATOM     30  N   UNL     1     -37.838  25.108   4.500  0.00  0.00    +0.390 N 
ATOM     31  H   UNL     1     -37.576  24.871   5.457  0.00  0.00    -0.088 HD
ATOM     32  H   UNL     1     -38.603  24.507   4.197  0.00  0.00    -0.088 HD
ATOM     33  H   UNL     1     -38.136  26.083   4.460  0.00  0.00    -0.088 HD
ENDBRANCH   1  30
TORSDOF 6
ENDMDL
MODEL 6
REMARK VINA RESULT:      -7.3      3.748      5.367
REMARK  Name = 195136
REMARK  6 active torsions:
REMARK  status: ('A' for Active; 'I' for Inactive)
REMARK    1  A    between atoms: C_1  and  C_2
REMARK    2  A    between atoms: C_1  and  C_18
REMARK    3  A    between atoms: C_1  and  N_30
REMARK    4  A    between atoms: C_7  and  N_8
REMARK    5  A    between atoms: N_8  and  C_11
REMARK    6  A    between atoms: N_17  and  C_20
REMARK                            x       y       z     vdW  Elec       q    Type
REMARK                         _______ _______ _______ _____ _____    ______ ____
ROOT
ATOM      1  C   UNL     1     -32.511  27.727   4.365  0.00  0.00    +0.036 C 
ENDROOT
BRANCH   1   2
ATOM      2  C   UNL     1     -33.527  26.605   4.418  0.00  0.00    -0.034 C 
ATOM      3  C   UNL     1     -33.759  25.852   3.281  0.00  0.00    -0.004 C 
ATOM      4  C   UNL     1     -34.199  26.360   5.602  0.00  0.00    -0.004 C 
ATOM      5  C   UNL     1     -34.695  24.818   3.331  0.00  0.00    +0.019 C 
ATOM      6  C   UNL     1     -35.135  25.327   5.651  0.00  0.00    +0.019 C 
ATOM      7  C   UNL     1     -35.383  24.556   4.515  0.00  0.00    +0.084 C 
BRANCH   7   8
ATOM      8  N   UNL     1     -36.322  23.521   4.563  0.00  0.00    -0.214 NA
BRANCH   8  11
ATOM      9  N   UNL     1     -35.534  21.368   4.118  0.00  0.00    -0.370 N 
ATOM     10  N   UNL     1     -35.901  21.909   6.304  0.00  0.00    -0.370 N 
ATOM     11  C   UNL     1     -35.946  22.342   4.997  0.00  0.00    +0.193 C 
ATOM     12  H   UNL     1     -35.520  21.552   3.151  0.00  0.00    +0.159 HD
ATOM     13  H   UNL     1     -35.254  20.487   4.455  0.00  0.00    +0.159 HD
ATOM     14  H   UNL     1     -36.172  22.513   7.032  0.00  0.00    +0.159 HD
ATOM     15  H   UNL     1     -35.598  20.995   6.510  0.00  0.00    +0.159 HD
ENDBRANCH   8  11
ENDBRANCH   7   8
ENDBRANCH   1   2
BRANCH   1  18
ATOM     16  O   UNL     1     -32.356  28.685   2.153  0.00  0.00    -0.277 OA
ATOM     17  N   UNL     1     -33.803  29.684   3.716  0.00  0.00    -0.285 N 
ATOM     18  C   UNL     1     -32.869  28.734   3.269  0.00  0.00    +0.210 C 
ATOM     19  H   UNL     1     -34.102  29.587   4.648  0.00  0.00    +0.155 HD
BRANCH  17  20
ATOM     20  C   UNL     1     -34.360  30.746   3.003  0.00  0.00    +0.050 C 
ATOM     21  C   UNL     1     -34.189  33.013   2.137  0.00  0.00    +0.001 C 
ATOM     22  C   UNL     1     -35.479  32.886   1.569  0.00  0.00    +0.000 C 
ATOM     23  C   UNL     1     -33.643  31.934   2.851  0.00  0.00    +0.015 C 
ATOM     24  C   UNL     1     -35.628  30.622   2.446  0.00  0.00    +0.015 C 
ATOM     25  C   UNL     1     -36.186  31.684   1.733  0.00  0.00    +0.001 C 
ATOM     26  C   UNL     1     -33.482  34.216   1.973  0.00  0.00    +0.000 C 
ATOM     27  C   UNL     1     -36.024  33.966   0.855  0.00  0.00    +0.000 C 
ATOM     28  C   UNL     1     -34.040  35.278   1.261  0.00  0.00    +0.000 C 
ATOM     29  C   UNL     1     -35.309  35.154   0.703  0.00  0.00    +0.000 C 
ENDBRANCH  17  20
ENDBRANCH   1  18
BRANCH   1  30
ATOM     30  N   UNL     1     -32.418  28.456   5.634  0.00  0.00    +0.390 N 
ATOM     31  H   UNL     1     -33.276  28.987   5.784  0.00  0.00    -0.088 HD
ATOM     32  H   UNL     1     -31.623  29.093   5.603  0.00  0.00    -0.088 HD
ATOM     33  H   UNL     1     -32.291  27.792   6.398  0.00  0.00    -0.088 HD
ENDBRANCH   1  30
TORSDOF 6
ENDMDL
MODEL 7
REMARK VINA RESULT:      -7.1      1.827      2.683
REMARK  Name = 195136
REMARK  6 active torsions:
REMARK  status: ('A' for Active; 'I' for Inactive)
REMARK    1  A    between atoms: C_1  and  C_2
REMARK    2  A    between atoms: C_1  and  C_18
REMARK    3  A    between atoms: C_1  and  N_30
REMARK    4  A    between atoms: C_7  and  N_8
REMARK    5  A    between atoms: N_8  and  C_11
REMARK    6  A    between atoms: N_17  and  C_20
REMARK                            x       y       z     vdW  Elec       q    Type
REMARK                         _______ _______ _______ _____ _____    ______ ____
ROOT
ATOM      1  C   UNL     1     -34.723  28.001   3.229  0.00  0.00    +0.036 C 
ENDROOT
BRANCH   1   2
ATOM      2  C   UNL     1     -35.092  26.690   3.893  0.00  0.00    -0.034 C 
ATOM      3  C   UNL     1     -34.241  26.153   4.842  0.00  0.00    -0.004 C 
ATOM      4  C   UNL     1     -36.271  26.062   3.535  0.00  0.00    -0.004 C 
ATOM      5  C   UNL     1     -34.581  24.946   5.453  0.00  0.00    +0.019 C 
ATOM      6  C   UNL     1     -36.611  24.855   4.146  0.00  0.00    +0.019 C 
ATOM      7  C   UNL     1     -35.765  24.297   5.106  0.00  0.00    +0.084 C 
BRANCH   7   8
ATOM      8  N   UNL     1     -36.104  23.085   5.717  0.00  0.00    -0.214 NA
BRANCH   8  11
ATOM      9  N   UNL     1     -34.599  21.354   6.158  0.00  0.00    -0.370 N 
ATOM     10  N   UNL     1     -35.642  21.333   4.129  0.00  0.00    -0.370 N 
ATOM     11  C   UNL     1     -35.497  21.989   5.332  0.00  0.00    +0.193 C 
ATOM     12  H   UNL     1     -34.406  21.723   7.050  0.00  0.00    +0.159 HD
ATOM     13  H   UNL     1     -34.150  20.531   5.858  0.00  0.00    +0.159 HD
ATOM     14  H   UNL     1     -36.258  21.687   3.446  0.00  0.00    +0.159 HD
ATOM     15  H   UNL     1     -35.130  20.511   3.950  0.00  0.00    +0.159 HD
ENDBRANCH   8  11
ENDBRANCH   7   8
ENDBRANCH   1   2
BRANCH   1  18
ATOM     16  O   UNL     1     -32.408  27.776   2.581  0.00  0.00    -0.277 OA
ATOM     17  N   UNL     1     -32.932  29.109   4.446  0.00  0.00    -0.285 N 
ATOM     18  C   UNL     1     -33.223  28.272   3.355  0.00  0.00    +0.210 C 
ATOM     19  H   UNL     1     -33.705  29.408   4.977  0.00  0.00    +0.155 HD
BRANCH  17  20
ATOM     20  C   UNL     1     -31.686  29.570   4.871  0.00  0.00    +0.050 C 
ATOM     21  C   UNL     1     -29.626  29.212   6.116  0.00  0.00    +0.001 C 
ATOM     22  C   UNL     1     -29.176  30.495   5.727  0.00  0.00    +0.000 C 
ATOM     23  C   UNL     1     -30.884  28.763   5.679  0.00  0.00    +0.015 C 
ATOM     24  C   UNL     1     -31.243  30.832   4.489  0.00  0.00    +0.015 C 
ATOM     25  C   UNL     1     -29.996  31.294   4.914  0.00  0.00    +0.001 C 
ATOM     26  C   UNL     1     -28.805  28.413   6.930  0.00  0.00    +0.000 C 
ATOM     27  C   UNL     1     -27.918  30.943   6.164  0.00  0.00    +0.000 C 
ATOM     28  C   UNL     1     -27.559  28.875   7.355  0.00  0.00    +0.000 C 
ATOM     29  C   UNL     1     -27.117  30.138   6.973  0.00  0.00    +0.000 C 
ENDBRANCH  17  20
ENDBRANCH   1  18
BRANCH   1  30
ATOM     30  N   UNL     1     -35.067  28.020   1.804  0.00  0.00    +0.390 N 
ATOM     31  H   UNL     1     -35.018  28.977   1.455  0.00  0.00    -0.088 HD
ATOM     32  H   UNL     1     -36.012  27.659   1.677  0.00  0.00    -0.088 HD
ATOM     33  H   UNL     1     -34.409  27.435   1.288  0.00  0.00    -0.088 HD
ENDBRANCH   1  30
TORSDOF 6
ENDMDL
MODEL 8
REMARK VINA RESULT:      -7.0      3.884      9.726
REMARK  Name = 195136
REMARK  6 active torsions:
REMARK  status: ('A' for Active; 'I' for Inactive)
REMARK    1  A    between atoms: C_1  and  C_2
REMARK    2  A    between atoms: C_1  and  C_18
REMARK    3  A    between atoms: C_1  and  N_30
REMARK    4  A    between atoms: C_7  and  N_8
REMARK    5  A    between atoms: N_8  and  C_11
REMARK    6  A    between atoms: N_17  and  C_20
REMARK                            x       y       z     vdW  Elec       q    Type
REMARK                         _______ _______ _______ _____ _____    ______ ____
ROOT
ATOM      1  C   UNL     1     -36.121  22.483   2.463  0.00  0.00    +0.036 C 
ENDROOT
BRANCH   1   2
ATOM      2  C   UNL     1     -35.154  23.598   2.806  0.00  0.00    -0.034 C 
ATOM      3  C   UNL     1     -34.546  24.300   1.781  0.00  0.00    -0.004 C 
ATOM      4  C   UNL     1     -34.903  23.887   4.134  0.00  0.00    -0.004 C 
ATOM      5  C   UNL     1     -33.656  25.327   2.096  0.00  0.00    +0.019 C 
ATOM      6  C   UNL     1     -34.012  24.913   4.450  0.00  0.00    +0.019 C 
ATOM      7  C   UNL     1     -33.389  25.633   3.430  0.00  0.00    +0.084 C 
BRANCH   7   8
ATOM      8  N   UNL     1     -32.494  26.661   3.746  0.00  0.00    -0.214 NA
BRANCH   8  11
ATOM      9  N   UNL     1     -32.605  28.117   5.569  0.00  0.00    -0.370 N 
ATOM     10  N   UNL     1     -33.811  28.679   3.716  0.00  0.00    -0.370 N 
ATOM     11  C   UNL     1     -32.958  27.761   4.288  0.00  0.00    +0.193 C 
ATOM     12  H   UNL     1     -31.998  27.543   6.089  0.00  0.00    +0.159 HD
ATOM     13  H   UNL     1     -32.960  28.945   5.966  0.00  0.00    +0.159 HD
ATOM     14  H   UNL     1     -34.140  28.540   2.798  0.00  0.00    +0.159 HD
ATOM     15  H   UNL     1     -34.093  29.474   4.224  0.00  0.00    +0.159 HD
ENDBRANCH   8  11
ENDBRANCH   7   8
ENDBRANCH   1   2
BRANCH   1  18
ATOM     16  O   UNL     1     -35.255  20.487   3.512  0.00  0.00    -0.277 OA
ATOM     17  N   UNL     1     -34.976  20.753   1.192  0.00  0.00    -0.285 N 
ATOM     18  C   UNL     1     -35.414  21.126   2.474  0.00  0.00    +0.210 C 
ATOM     19  H   UNL     1     -35.173  21.391   0.468  0.00  0.00    +0.155 HD
BRANCH  17  20
ATOM     20  C   UNL     1     -34.298  19.594   0.816  0.00  0.00    +0.050 C 
ATOM     21  C   UNL     1     -32.216  18.354   0.600  0.00  0.00    +0.001 C 
ATOM     22  C   UNL     1     -32.931  17.260   0.059  0.00  0.00    +0.000 C 
ATOM     23  C   UNL     1     -32.914  19.514   0.974  0.00  0.00    +0.015 C 
ATOM     24  C   UNL     1     -35.002  18.518   0.284  0.00  0.00    +0.015 C 
ATOM     25  C   UNL     1     -34.324  17.357  -0.093  0.00  0.00    +0.001 C 
ATOM     26  C   UNL     1     -30.822  18.256   0.751  0.00  0.00    +0.000 C 
ATOM     27  C   UNL     1     -32.233  16.099  -0.314  0.00  0.00    +0.000 C 
ATOM     28  C   UNL     1     -30.146  17.096   0.374  0.00  0.00    +0.000 C 
ATOM     29  C   UNL     1     -30.849  16.019  -0.158  0.00  0.00    +0.000 C 
ENDBRANCH  17  20
ENDBRANCH   1  18
BRANCH   1  30
ATOM     30  N   UNL     1     -37.246  22.413   3.401  0.00  0.00    +0.390 N 
ATOM     31  H   UNL     1     -37.215  23.216   4.029  0.00  0.00    -0.088 HD
ATOM     32  H   UNL     1     -37.183  21.553   3.944  0.00  0.00    -0.088 HD
ATOM     33  H   UNL     1     -38.123  22.423   2.880  0.00  0.00    -0.088 HD
ENDBRANCH   1  30
TORSDOF 6
ENDMDL
MODEL 9
REMARK VINA RESULT:      -7.0     12.682     15.824
REMARK  Name = 195136
REMARK  6 active torsions:
REMARK  status: ('A' for Active; 'I' for Inactive)
REMARK    1  A    between atoms: C_1  and  C_2
REMARK    2  A    between atoms: C_1  and  C_18
REMARK    3  A    between atoms: C_1  and  N_30
REMARK    4  A    between atoms: C_7  and  N_8
REMARK    5  A    between atoms: N_8  and  C_11
REMARK    6  A    between atoms: N_17  and  C_20
REMARK                            x       y       z     vdW  Elec       q    Type
REMARK                         _______ _______ _______ _____ _____    ______ ____
ROOT
ATOM      1  C   UNL     1     -33.423  40.068   0.665  0.00  0.00    +0.036 C 
ENDROOT
BRANCH   1   2
ATOM      2  C   UNL     1     -33.046  40.540   2.055  0.00  0.00    -0.034 C 
ATOM      3  C   UNL     1     -31.741  40.386   2.486  0.00  0.00    -0.004 C 
ATOM      4  C   UNL     1     -34.015  41.112   2.858  0.00  0.00    -0.004 C 
ATOM      5  C   UNL     1     -31.394  40.820   3.766  0.00  0.00    +0.019 C 
ATOM      6  C   UNL     1     -33.668  41.546   4.138  0.00  0.00    +0.019 C 
ATOM      7  C   UNL     1     -32.356  41.400   4.592  0.00  0.00    +0.084 C 
BRANCH   7   8
ATOM      8  N   UNL     1     -32.008  41.832   5.875  0.00  0.00    -0.214 NA
BRANCH   8  11
ATOM      9  N   UNL     1     -32.429  41.179   8.078  0.00  0.00    -0.370 N 
ATOM     10  N   UNL     1     -31.260  39.722   6.767  0.00  0.00    -0.370 N 
ATOM     11  C   UNL     1     -31.891  40.945   6.834  0.00  0.00    +0.193 C 
ATOM     12  H   UNL     1     -32.907  42.020   8.257  0.00  0.00    +0.159 HD
ATOM     13  H   UNL     1     -32.334  40.506   8.790  0.00  0.00    +0.159 HD
ATOM     14  H   UNL     1     -30.833  39.434   5.928  0.00  0.00    +0.159 HD
ATOM     15  H   UNL     1     -31.237  39.136   7.558  0.00  0.00    +0.159 HD
ENDBRANCH   8  11
ENDBRANCH   7   8
ENDBRANCH   1   2
BRANCH   1  18
ATOM     16  O   UNL     1     -33.484  37.709   1.177  0.00  0.00    -0.277 OA
ATOM     17  N   UNL     1     -35.367  38.692   0.169  0.00  0.00    -0.285 N 
ATOM     18  C   UNL     1     -34.073  38.684   0.718  0.00  0.00    +0.210 C 
ATOM     19  H   UNL     1     -35.685  39.560  -0.170  0.00  0.00    +0.155 HD
BRANCH  17  20
ATOM     20  C   UNL     1     -36.258  37.626   0.045  0.00  0.00    +0.050 C 
ATOM     21  C   UNL     1     -37.894  36.128   1.044  0.00  0.00    +0.001 C 
ATOM     22  C   UNL     1     -38.052  35.479  -0.203  0.00  0.00    +0.000 C 
ATOM     23  C   UNL     1     -36.993  37.201   1.151  0.00  0.00    +0.015 C 
ATOM     24  C   UNL     1     -36.413  36.987  -1.182  0.00  0.00    +0.015 C 
ATOM     25  C   UNL     1     -37.304  35.921  -1.307  0.00  0.00    +0.001 C 
ATOM     26  C   UNL     1     -38.643  35.686   2.148  0.00  0.00    +0.000 C 
ATOM     27  C   UNL     1     -38.953  34.407  -0.311  0.00  0.00    +0.000 C 
ATOM     28  C   UNL     1     -39.533  34.619   2.022  0.00  0.00    +0.000 C 
ATOM     29  C   UNL     1     -39.688  33.981   0.796  0.00  0.00    +0.000 C 
ENDBRANCH  17  20
ENDBRANCH   1  18
BRANCH   1  30
ATOM     30  N   UNL     1     -34.359  40.982   0.002  0.00  0.00    +0.390 N 
ATOM     31  H   UNL     1     -34.715  40.545  -0.848  0.00  0.00    -0.088 HD
ATOM     32  H   UNL     1     -33.877  41.848  -0.237  0.00  0.00    -0.088 HD
ATOM     33  H   UNL     1     -35.136  41.187   0.631  0.00  0.00    -0.088 HD
ENDBRANCH   1  30
TORSDOF 6
ENDMDL
