MODEL 1
REMARK VINA RESULT:      -5.9      0.000      0.000
REMARK  Name = 191724
REMARK  15 active torsions:
REMARK  status: ('A' for Active; 'I' for Inactive)
REMARK    1  A    between atoms: C_1  and  C_29
REMARK    2  A    between atoms: C_4  and  O_7
REMARK    3  A    between atoms: C_5  and  O_18
REMARK    4  A    between atoms: O_7  and  C_9
REMARK    5  A    between atoms: C_9  and  O_10
REMARK    6  A    between atoms: O_10  and  C_11
REMARK    7  A    between atoms: C_11  and  C_12
REMARK    8  A    between atoms: O_18  and  C_20
REMARK    9  A    between atoms: C_20  and  O_21
REMARK   10  A    between atoms: O_21  and  C_22
REMARK   11  A    between atoms: C_22  and  C_23
REMARK   12  A    between atoms: C_29  and  CA_30
REMARK   13  A    between atoms: CA_30  and  N_31
REMARK   14  A    between atoms: CA_30  and  C_36
REMARK   15  A    between atoms: C_36  and  O_37
REMARK                            x       y       z     vdW  Elec       q    Type
REMARK                         _______ _______ _______ _____ _____    ______ ____
ROOT
ATOM      1  C   UNL     1     -34.585  26.405   4.174  0.00  0.00    -0.021 C 
ATOM      2  C   UNL     1     -35.965  26.261   4.035  0.00  0.00    +0.037 C 
ATOM      3  C   UNL     1     -33.801  25.306   4.527  0.00  0.00    -0.001 C 
ATOM      4  C   UNL     1     -36.562  25.018   4.248  0.00  0.00    +0.186 C 
ATOM      5  C   UNL     1     -35.777  23.919   4.601  0.00  0.00    +0.186 C 
ATOM      6  C   UNL     1     -34.398  24.064   4.740  0.00  0.00    +0.041 C 
ENDROOT
BRANCH   4   7
ATOM      7  O   UNL     1     -37.911  24.889   4.108  0.00  0.00    -0.390 OA
BRANCH   7   9
ATOM      8  O   UNL     1     -39.080  26.375   2.741  0.00  0.00    -0.202 OA
ATOM      9  C   UNL     1     -38.412  25.359   2.886  0.00  0.00    +0.517 C 
BRANCH   9  10
ATOM     10  O   UNL     1     -38.034  24.503   1.894  0.00  0.00    -0.413 OA
BRANCH  10  11
ATOM     11  C   UNL     1     -37.744  25.111   0.631  0.00  0.00    +0.239 C 
BRANCH  11  12
ATOM     12  C   UNL     1     -36.298  25.510   0.600  0.00  0.00    +0.021 C 
ATOM     13  C   UNL     1     -35.306  24.549   0.803  0.00  0.00    -0.001 C 
ATOM     14  C   UNL     1     -35.946  26.839   0.369  0.00  0.00    -0.001 C 
ATOM     15  C   UNL     1     -33.962  24.920   0.773  0.00  0.00    -0.000 C 
ATOM     16  C   UNL     1     -34.601  27.208   0.340  0.00  0.00    -0.000 C 
ATOM     17  C   UNL     1     -33.609  26.249   0.543  0.00  0.00    -0.000 C 
ENDBRANCH  11  12
ENDBRANCH  10  11
ENDBRANCH   9  10
ENDBRANCH   7   9
ENDBRANCH   4   7
BRANCH   5  18
ATOM     18  O   UNL     1     -36.348  22.701   4.811  0.00  0.00    -0.390 OA
BRANCH  18  20
ATOM     19  O   UNL     1     -35.011  20.794   4.919  0.00  0.00    -0.202 OA
ATOM     20  C   UNL     1     -35.631  21.625   4.269  0.00  0.00    +0.517 C 
BRANCH  20  21
ATOM     21  O   UNL     1     -35.738  21.658   2.911  0.00  0.00    -0.413 OA
BRANCH  21  22
ATOM     22  C   UNL     1     -35.720  20.384   2.259  0.00  0.00    +0.239 C 
BRANCH  22  23
ATOM     23  C   UNL     1     -34.431  20.240   1.503  0.00  0.00    +0.021 C 
ATOM     24  C   UNL     1     -33.665  19.084   1.644  0.00  0.00    -0.001 C 
ATOM     25  C   UNL     1     -34.001  21.262   0.658  0.00  0.00    -0.001 C 
ATOM     26  C   UNL     1     -32.467  18.949   0.942  0.00  0.00    -0.000 C 
ATOM     27  C   UNL     1     -32.804  21.129  -0.046  0.00  0.00    -0.000 C 
ATOM     28  C   UNL     1     -32.037  19.972   0.096  0.00  0.00    -0.000 C 
ENDBRANCH  22  23
ENDBRANCH  21  22
ENDBRANCH  20  21
ENDBRANCH  18  20
ENDBRANCH   5  18
BRANCH   1  29
ATOM     29  C   UNL     1     -33.938  27.751   3.944  0.00  0.00    +0.015 C 
BRANCH  29  30
ATOM     30  CA  UNL     1     -32.513  27.834   4.512  0.00  0.00    +0.040 C 
BRANCH  30  31
ATOM     31  N   UNL     1     -32.406  28.977   5.415  0.00  0.00    +0.389 N 
ATOM     32  H1  UNL     1     -31.577  29.521   5.180  0.00  0.00    -0.088 HD
ATOM     33  H2  UNL     1     -32.333  28.644   6.377  0.00  0.00    -0.088 HD
ATOM     34  H3  UNL     1     -33.236  29.563   5.322  0.00  0.00    -0.088 HD
ENDBRANCH  30  31
BRANCH  30  36
ATOM     35  OXT UNL     1     -31.660  28.683   2.394  0.00  0.00    -0.253 OA
ATOM     36  C   UNL     1     -31.475  28.044   3.421  0.00  0.00    +0.293 C 
BRANCH  36  37
ATOM     37  O   UNL     1     -30.284  27.465   3.723  0.00  0.00    -0.482 OA
ATOM     38  H   UNL     1     -30.199  26.532   3.708  0.00  0.00    +0.295 HD
ENDBRANCH  36  37
ENDBRANCH  30  36
ENDBRANCH  29  30
ENDBRANCH   1  29
TORSDOF 15
ENDMDL
MODEL 2
REMARK VINA RESULT:      -5.7      1.910      3.037
REMARK  Name = 191724
REMARK  15 active torsions:
REMARK  status: ('A' for Active; 'I' for Inactive)
REMARK    1  A    between atoms: C_1  and  C_29
REMARK    2  A    between atoms: C_4  and  O_7
REMARK    3  A    between atoms: C_5  and  O_18
REMARK    4  A    between atoms: O_7  and  C_9
REMARK    5  A    between atoms: C_9  and  O_10
REMARK    6  A    between atoms: O_10  and  C_11
REMARK    7  A    between atoms: C_11  and  C_12
REMARK    8  A    between atoms: O_18  and  C_20
REMARK    9  A    between atoms: C_20  and  O_21
REMARK   10  A    between atoms: O_21  and  C_22
REMARK   11  A    between atoms: C_22  and  C_23
REMARK   12  A    between atoms: C_29  and  CA_30
REMARK   13  A    between atoms: CA_30  and  N_31
REMARK   14  A    between atoms: CA_30  and  C_36
REMARK   15  A    between atoms: C_36  and  O_37
REMARK                            x       y       z     vdW  Elec       q    Type
REMARK                         _______ _______ _______ _____ _____    ______ ____
ROOT
ATOM      1  C   UNL     1     -33.474  27.120   4.637  0.00  0.00    -0.021 C 
ATOM      2  C   UNL     1     -34.263  26.780   3.539  0.00  0.00    +0.037 C 
ATOM      3  C   UNL     1     -33.667  26.478   5.861  0.00  0.00    -0.001 C 
ATOM      4  C   UNL     1     -35.246  25.799   3.664  0.00  0.00    +0.186 C 
ATOM      5  C   UNL     1     -35.439  25.156   4.887  0.00  0.00    +0.186 C 
ATOM      6  C   UNL     1     -34.650  25.496   5.985  0.00  0.00    +0.041 C 
ENDROOT
BRANCH   4   7
ATOM      7  O   UNL     1     -36.012  25.475   2.584  0.00  0.00    -0.390 OA
BRANCH   7   9
ATOM      8  O   UNL     1     -37.061  27.457   1.941  0.00  0.00    -0.202 OA
ATOM      9  C   UNL     1     -37.115  26.317   2.385  0.00  0.00    +0.517 C 
BRANCH   9  10
ATOM     10  O   UNL     1     -38.248  25.660   2.764  0.00  0.00    -0.413 OA
BRANCH  10  11
ATOM     11  C   UNL     1     -39.152  25.326   1.705  0.00  0.00    +0.239 C 
BRANCH  11  12
ATOM     12  C   UNL     1     -39.010  23.868   1.383  0.00  0.00    +0.021 C 
ATOM     13  C   UNL     1     -39.668  22.915   2.162  0.00  0.00    -0.001 C 
ATOM     14  C   UNL     1     -38.222  23.464   0.306  0.00  0.00    -0.001 C 
ATOM     15  C   UNL     1     -39.537  21.559   1.862  0.00  0.00    -0.000 C 
ATOM     16  C   UNL     1     -38.092  22.108   0.006  0.00  0.00    -0.000 C 
ATOM     17  C   UNL     1     -38.749  21.155   0.785  0.00  0.00    -0.000 C 
ENDBRANCH  11  12
ENDBRANCH  10  11
ENDBRANCH   9  10
ENDBRANCH   7   9
ENDBRANCH   4   7
BRANCH   5  18
ATOM     18  O   UNL     1     -36.395  24.195   5.021  0.00  0.00    -0.390 OA
BRANCH  18  20
ATOM     19  O   UNL     1     -36.056  22.336   6.386  0.00  0.00    -0.202 OA
ATOM     20  C   UNL     1     -35.895  22.921   5.323  0.00  0.00    +0.517 C 
BRANCH  20  21
ATOM     21  O   UNL     1     -35.208  22.446   4.247  0.00  0.00    -0.413 OA
BRANCH  21  22
ATOM     22  C   UNL     1     -36.011  21.963   3.165  0.00  0.00    +0.239 C 
BRANCH  22  23
ATOM     23  C   UNL     1     -35.113  21.428   2.088  0.00  0.00    +0.021 C 
ATOM     24  C   UNL     1     -34.582  22.290   1.129  0.00  0.00    -0.001 C 
ATOM     25  C   UNL     1     -34.809  20.068   2.047  0.00  0.00    -0.001 C 
ATOM     26  C   UNL     1     -33.748  21.793   0.128  0.00  0.00    -0.000 C 
ATOM     27  C   UNL     1     -33.974  19.569   1.047  0.00  0.00    -0.000 C 
ATOM     28  C   UNL     1     -33.443  20.432   0.088  0.00  0.00    -0.000 C 
ENDBRANCH  22  23
ENDBRANCH  21  22
ENDBRANCH  20  21
ENDBRANCH  18  20
ENDBRANCH   5  18
BRANCH   1  29
ATOM     29  C   UNL     1     -32.409  28.184   4.503  0.00  0.00    +0.015 C 
BRANCH  29  30
ATOM     30  CA  UNL     1     -31.903  28.698   5.860  0.00  0.00    +0.040 C 
BRANCH  30  31
ATOM     31  N   UNL     1     -32.180  30.127   5.982  0.00  0.00    +0.389 N 
ATOM     32  H1  UNL     1     -32.126  30.401   6.963  0.00  0.00    -0.088 HD
ATOM     33  H2  UNL     1     -33.115  30.323   5.625  0.00  0.00    -0.088 HD
ATOM     34  H3  UNL     1     -31.492  30.654   5.443  0.00  0.00    -0.088 HD
ENDBRANCH  30  31
BRANCH  30  36
ATOM     35  OXT UNL     1     -29.562  29.290   5.537  0.00  0.00    -0.253 OA
ATOM     36  C   UNL     1     -30.399  28.532   6.008  0.00  0.00    +0.293 C 
BRANCH  36  37
ATOM     37  O   UNL     1     -30.071  27.451   6.763  0.00  0.00    -0.482 OA
ATOM     38  H   UNL     1     -30.628  26.697   6.769  0.00  0.00    +0.295 HD
ENDBRANCH  36  37
ENDBRANCH  30  36
ENDBRANCH  29  30
ENDBRANCH   1  29
TORSDOF 15
ENDMDL
MODEL 3
REMARK VINA RESULT:      -5.7      2.873      6.170
REMARK  Name = 191724
REMARK  15 active torsions:
REMARK  status: ('A' for Active; 'I' for Inactive)
REMARK    1  A    between atoms: C_1  and  C_29
REMARK    2  A    between atoms: C_4  and  O_7
REMARK    3  A    between atoms: C_5  and  O_18
REMARK    4  A    between atoms: O_7  and  C_9
REMARK    5  A    between atoms: C_9  and  O_10
REMARK    6  A    between atoms: O_10  and  C_11
REMARK    7  A    between atoms: C_11  and  C_12
REMARK    8  A    between atoms: O_18  and  C_20
REMARK    9  A    between atoms: C_20  and  O_21
REMARK   10  A    between atoms: O_21  and  C_22
REMARK   11  A    between atoms: C_22  and  C_23
REMARK   12  A    between atoms: C_29  and  CA_30
REMARK   13  A    between atoms: CA_30  and  N_31
REMARK   14  A    between atoms: CA_30  and  C_36
REMARK   15  A    between atoms: C_36  and  O_37
REMARK                            x       y       z     vdW  Elec       q    Type
REMARK                         _______ _______ _______ _____ _____    ______ ____
ROOT
ATOM      1  C   UNL     1     -35.506  22.682   1.417  0.00  0.00    -0.021 C 
ATOM      2  C   UNL     1     -35.817  22.701   2.776  0.00  0.00    +0.037 C 
ATOM      3  C   UNL     1     -35.925  23.725   0.590  0.00  0.00    -0.001 C 
ATOM      4  C   UNL     1     -36.546  23.764   3.309  0.00  0.00    +0.186 C 
ATOM      5  C   UNL     1     -36.965  24.807   2.482  0.00  0.00    +0.186 C 
ATOM      6  C   UNL     1     -36.654  24.787   1.124  0.00  0.00    +0.041 C 
ENDROOT
BRANCH   4   7
ATOM      7  O   UNL     1     -36.844  23.772   4.639  0.00  0.00    -0.390 OA
BRANCH   7   9
ATOM      8  O   UNL     1     -35.035  23.217   6.004  0.00  0.00    -0.202 OA
ATOM      9  C   UNL     1     -35.753  24.055   5.473  0.00  0.00    +0.517 C 
BRANCH   9  10
ATOM     10  O   UNL     1     -35.624  25.408   5.590  0.00  0.00    -0.413 OA
BRANCH  10  11
ATOM     11  C   UNL     1     -34.293  25.916   5.447  0.00  0.00    +0.239 C 
BRANCH  11  12
ATOM     12  C   UNL     1     -34.060  26.277   4.010  0.00  0.00    +0.021 C 
ATOM     13  C   UNL     1     -34.619  27.443   3.484  0.00  0.00    -0.001 C 
ATOM     14  C   UNL     1     -33.285  25.449   3.199  0.00  0.00    -0.001 C 
ATOM     15  C   UNL     1     -34.401  27.779   2.148  0.00  0.00    -0.000 C 
ATOM     16  C   UNL     1     -33.068  25.786   1.863  0.00  0.00    -0.000 C 
ATOM     17  C   UNL     1     -33.626  26.951   1.337  0.00  0.00    -0.000 C 
ENDBRANCH  11  12
ENDBRANCH  10  11
ENDBRANCH   9  10
ENDBRANCH   7   9
ENDBRANCH   4   7
BRANCH   5  18
ATOM     18  O   UNL     1     -37.677  25.850   2.992  0.00  0.00    -0.390 OA
BRANCH  18  20
ATOM     19  O   UNL     1     -39.291  26.902   1.678  0.00  0.00    -0.202 OA
ATOM     20  C   UNL     1     -38.956  26.003   2.438  0.00  0.00    +0.517 C 
BRANCH  20  21
ATOM     21  O   UNL     1     -39.756  24.992   2.882  0.00  0.00    -0.413 OA
BRANCH  21  22
ATOM     22  C   UNL     1     -40.677  24.466   1.920  0.00  0.00    +0.239 C 
BRANCH  22  23
ATOM     23  C   UNL     1     -40.006  23.364   1.152  0.00  0.00    +0.021 C 
ATOM     24  C   UNL     1     -39.555  22.225   1.816  0.00  0.00    -0.001 C 
ATOM     25  C   UNL     1     -39.835  23.481  -0.227  0.00  0.00    -0.001 C 
ATOM     26  C   UNL     1     -38.931  21.202   1.102  0.00  0.00    -0.000 C 
ATOM     27  C   UNL     1     -39.212  22.458  -0.942  0.00  0.00    -0.000 C 
ATOM     28  C   UNL     1     -38.761  21.318  -0.277  0.00  0.00    -0.000 C 
ENDBRANCH  22  23
ENDBRANCH  21  22
ENDBRANCH  20  21
ENDBRANCH  18  20
ENDBRANCH   5  18
BRANCH   1  29
ATOM     29  C   UNL     1     -34.716  21.531   0.838  0.00  0.00    +0.015 C 
BRANCH  29  30
ATOM     30  CA  UNL     1     -35.246  20.159   1.284  0.00  0.00    +0.040 C 
BRANCH  30  31
ATOM     31  N   UNL     1     -34.161  19.378   1.874  0.00  0.00    +0.389 N 
ATOM     32  H1  UNL     1     -33.375  19.343   1.226  0.00  0.00    -0.088 HD
ATOM     33  H2  UNL     1     -34.489  18.430   2.062  0.00  0.00    -0.088 HD
ATOM     34  H3  UNL     1     -33.865  19.814   2.748  0.00  0.00    -0.088 HD
ENDBRANCH  30  31
BRANCH  30  36
ATOM     35  OXT UNL     1     -35.686  19.667  -1.060  0.00  0.00    -0.253 OA
ATOM     36  C   UNL     1     -35.782  19.347   0.117  0.00  0.00    +0.293 C 
BRANCH  36  37
ATOM     37  O   UNL     1     -36.362  18.186   0.518  0.00  0.00    -0.482 OA
ATOM     38  H   UNL     1     -36.003  17.707   1.240  0.00  0.00    +0.295 HD
ENDBRANCH  36  37
ENDBRANCH  30  36
ENDBRANCH  29  30
ENDBRANCH   1  29
TORSDOF 15
ENDMDL
MODEL 4
REMARK VINA RESULT:      -5.7      1.434      5.260
REMARK  Name = 191724
REMARK  15 active torsions:
REMARK  status: ('A' for Active; 'I' for Inactive)
REMARK    1  A    between atoms: C_1  and  C_29
REMARK    2  A    between atoms: C_4  and  O_7
REMARK    3  A    between atoms: C_5  and  O_18
REMARK    4  A    between atoms: O_7  and  C_9
REMARK    5  A    between atoms: C_9  and  O_10
REMARK    6  A    between atoms: O_10  and  C_11
REMARK    7  A    between atoms: C_11  and  C_12
REMARK    8  A    between atoms: O_18  and  C_20
REMARK    9  A    between atoms: C_20  and  O_21
REMARK   10  A    between atoms: O_21  and  C_22
REMARK   11  A    between atoms: C_22  and  C_23
REMARK   12  A    between atoms: C_29  and  CA_30
REMARK   13  A    between atoms: CA_30  and  N_31
REMARK   14  A    between atoms: CA_30  and  C_36
REMARK   15  A    between atoms: C_36  and  O_37
REMARK                            x       y       z     vdW  Elec       q    Type
REMARK                         _______ _______ _______ _____ _____    ______ ____
ROOT
ATOM      1  C   UNL     1     -34.306  25.432   4.195  0.00  0.00    -0.021 C 
ATOM      2  C   UNL     1     -34.308  24.246   3.460  0.00  0.00    +0.037 C 
ATOM      3  C   UNL     1     -35.493  25.910   4.752  0.00  0.00    -0.001 C 
ATOM      4  C   UNL     1     -35.497  23.539   3.282  0.00  0.00    +0.186 C 
ATOM      5  C   UNL     1     -36.684  24.017   3.839  0.00  0.00    +0.186 C 
ATOM      6  C   UNL     1     -36.681  25.202   4.574  0.00  0.00    +0.041 C 
ENDROOT
BRANCH   4   7
ATOM      7  O   UNL     1     -35.488  22.382   2.563  0.00  0.00    -0.390 OA
BRANCH   7   9
ATOM      8  O   UNL     1     -35.176  21.193   4.546  0.00  0.00    -0.202 OA
ATOM      9  C   UNL     1     -35.391  21.219   3.341  0.00  0.00    +0.517 C 
BRANCH   9  10
ATOM     10  O   UNL     1     -35.577  20.132   2.539  0.00  0.00    -0.413 OA
BRANCH  10  11
ATOM     11  C   UNL     1     -35.250  20.321   1.158  0.00  0.00    +0.239 C 
BRANCH  11  12
ATOM     12  C   UNL     1     -33.841  19.865   0.922  0.00  0.00    +0.021 C 
ATOM     13  C   UNL     1     -33.418  18.626   1.408  0.00  0.00    -0.001 C 
ATOM     14  C   UNL     1     -32.953  20.676   0.216  0.00  0.00    -0.001 C 
ATOM     15  C   UNL     1     -32.108  18.202   1.188  0.00  0.00    -0.000 C 
ATOM     16  C   UNL     1     -31.643  20.251  -0.003  0.00  0.00    -0.000 C 
ATOM     17  C   UNL     1     -31.220  19.013   0.483  0.00  0.00    -0.000 C 
ENDBRANCH  11  12
ENDBRANCH  10  11
ENDBRANCH   9  10
ENDBRANCH   7   9
ENDBRANCH   4   7
BRANCH   5  18
ATOM     18  O   UNL     1     -37.850  23.334   3.673  0.00  0.00    -0.390 OA
BRANCH  18  20
ATOM     19  O   UNL     1     -39.850  24.507   3.421  0.00  0.00    -0.202 OA
ATOM     20  C   UNL     1     -38.828  24.028   2.947  0.00  0.00    +0.517 C 
BRANCH  20  21
ATOM     21  O   UNL     1     -38.454  24.082   1.637  0.00  0.00    -0.413 OA
BRANCH  21  22
ATOM     22  C   UNL     1     -38.591  25.360   1.008  0.00  0.00    +0.239 C 
BRANCH  22  23
ATOM     23  C   UNL     1     -37.253  26.041   0.986  0.00  0.00    +0.021 C 
ATOM     24  C   UNL     1     -37.081  27.262   1.636  0.00  0.00    -0.001 C 
ATOM     25  C   UNL     1     -36.182  25.451   0.315  0.00  0.00    -0.001 C 
ATOM     26  C   UNL     1     -35.838  27.895   1.616  0.00  0.00    -0.000 C 
ATOM     27  C   UNL     1     -34.939  26.083   0.294  0.00  0.00    -0.000 C 
ATOM     28  C   UNL     1     -34.767  27.304   0.945  0.00  0.00    -0.000 C 
ENDBRANCH  22  23
ENDBRANCH  21  22
ENDBRANCH  20  21
ENDBRANCH  18  20
ENDBRANCH   5  18
BRANCH   1  29
ATOM     29  C   UNL     1     -33.018  26.199   4.388  0.00  0.00    +0.015 C 
BRANCH  29  30
ATOM     30  CA  UNL     1     -33.200  27.468   5.234  0.00  0.00    +0.040 C 
BRANCH  30  31
ATOM     31  N   UNL     1     -33.027  28.651   4.396  0.00  0.00    +0.389 N 
ATOM     32  H1  UNL     1     -32.062  28.702   4.072  0.00  0.00    -0.088 HD
ATOM     33  H2  UNL     1     -33.249  29.487   4.937  0.00  0.00    -0.088 HD
ATOM     34  H3  UNL     1     -33.653  28.592   3.592  0.00  0.00    -0.088 HD
ENDBRANCH  30  31
BRANCH  30  36
ATOM     35  OXT UNL     1     -30.998  27.894   6.184  0.00  0.00    -0.253 OA
ATOM     36  C   UNL     1     -32.166  27.567   6.344  0.00  0.00    +0.293 C 
BRANCH  36  37
ATOM     37  O   UNL     1     -32.690  27.283   7.565  0.00  0.00    -0.482 OA
ATOM     38  H   UNL     1     -33.618  27.207   7.671  0.00  0.00    +0.295 HD
ENDBRANCH  36  37
ENDBRANCH  30  36
ENDBRANCH  29  30
ENDBRANCH   1  29
TORSDOF 15
ENDMDL
MODEL 5
REMARK VINA RESULT:      -5.7      1.876      2.455
REMARK  Name = 191724
REMARK  15 active torsions:
REMARK  status: ('A' for Active; 'I' for Inactive)
REMARK    1  A    between atoms: C_1  and  C_29
REMARK    2  A    between atoms: C_4  and  O_7
REMARK    3  A    between atoms: C_5  and  O_18
REMARK    4  A    between atoms: O_7  and  C_9
REMARK    5  A    between atoms: C_9  and  O_10
REMARK    6  A    between atoms: O_10  and  C_11
REMARK    7  A    between atoms: C_11  and  C_12
REMARK    8  A    between atoms: O_18  and  C_20
REMARK    9  A    between atoms: C_20  and  O_21
REMARK   10  A    between atoms: O_21  and  C_22
REMARK   11  A    between atoms: C_22  and  C_23
REMARK   12  A    between atoms: C_29  and  CA_30
REMARK   13  A    between atoms: CA_30  and  N_31
REMARK   14  A    between atoms: CA_30  and  C_36
REMARK   15  A    between atoms: C_36  and  O_37
REMARK                            x       y       z     vdW  Elec       q    Type
REMARK                         _______ _______ _______ _____ _____    ______ ____
ROOT
ATOM      1  C   UNL     1     -34.646  26.576   4.019  0.00  0.00    -0.021 C 
ATOM      2  C   UNL     1     -36.009  26.319   3.875  0.00  0.00    +0.037 C 
ATOM      3  C   UNL     1     -33.814  25.623   4.608  0.00  0.00    -0.001 C 
ATOM      4  C   UNL     1     -36.541  25.109   4.320  0.00  0.00    +0.186 C 
ATOM      5  C   UNL     1     -35.709  24.156   4.909  0.00  0.00    +0.186 C 
ATOM      6  C   UNL     1     -34.347  24.413   5.052  0.00  0.00    +0.041 C 
ENDROOT
BRANCH   4   7
ATOM      7  O   UNL     1     -37.875  24.868   4.174  0.00  0.00    -0.390 OA
BRANCH   7   9
ATOM      8  O   UNL     1     -39.054  26.189   2.655  0.00  0.00    -0.202 OA
ATOM      9  C   UNL     1     -38.385  25.195   2.909  0.00  0.00    +0.517 C 
BRANCH   9  10
ATOM     10  O   UNL     1     -38.013  24.232   2.019  0.00  0.00    -0.413 OA
BRANCH  10  11
ATOM     11  C   UNL     1     -37.600  24.706   0.733  0.00  0.00    +0.239 C 
BRANCH  11  12
ATOM     12  C   UNL     1     -36.346  23.991   0.327  0.00  0.00    +0.021 C 
ATOM     13  C   UNL     1     -35.161  24.206   1.033  0.00  0.00    -0.001 C 
ATOM     14  C   UNL     1     -36.362  23.112  -0.755  0.00  0.00    -0.001 C 
ATOM     15  C   UNL     1     -33.995  23.541   0.657  0.00  0.00    -0.000 C 
ATOM     16  C   UNL     1     -35.195  22.447  -1.131  0.00  0.00    -0.000 C 
ATOM     17  C   UNL     1     -34.011  22.662  -0.426  0.00  0.00    -0.000 C 
ENDBRANCH  11  12
ENDBRANCH  10  11
ENDBRANCH   9  10
ENDBRANCH   7   9
ENDBRANCH   4   7
BRANCH   5  18
ATOM     18  O   UNL     1     -36.217  22.970   5.346  0.00  0.00    -0.390 OA
BRANCH  18  20
ATOM     19  O   UNL     1     -35.069  20.958   5.609  0.00  0.00    -0.202 OA
ATOM     20  C   UNL     1     -35.521  21.841   4.892  0.00  0.00    +0.517 C 
BRANCH  20  21
ATOM     21  O   UNL     1     -35.434  21.889   3.533  0.00  0.00    -0.413 OA
BRANCH  21  22
ATOM     22  C   UNL     1     -36.442  21.160   2.824  0.00  0.00    +0.239 C 
BRANCH  22  23
ATOM     23  C   UNL     1     -35.779  20.238   1.841  0.00  0.00    +0.021 C 
ATOM     24  C   UNL     1     -36.522  19.667   0.810  0.00  0.00    -0.001 C 
ATOM     25  C   UNL     1     -34.419  19.954   1.962  0.00  0.00    -0.001 C 
ATOM     26  C   UNL     1     -35.907  18.810  -0.102  0.00  0.00    -0.000 C 
ATOM     27  C   UNL     1     -33.802  19.097   1.050  0.00  0.00    -0.000 C 
ATOM     28  C   UNL     1     -34.546  18.526   0.017  0.00  0.00    -0.000 C 
ENDBRANCH  22  23
ENDBRANCH  21  22
ENDBRANCH  20  21
ENDBRANCH  18  20
ENDBRANCH   5  18
BRANCH   1  29
ATOM     29  C   UNL     1     -34.069  27.888   3.538  0.00  0.00    +0.015 C 
BRANCH  29  30
ATOM     30  CA  UNL     1     -34.990  28.617   2.547  0.00  0.00    +0.040 C 
BRANCH  30  31
ATOM     31  N   UNL     1     -34.628  28.255   1.178  0.00  0.00    +0.389 N 
ATOM     32  H1  UNL     1     -35.068  27.369   0.933  0.00  0.00    -0.088 HD
ATOM     33  H2  UNL     1     -33.615  28.163   1.108  0.00  0.00    -0.088 HD
ATOM     34  H3  UNL     1     -34.949  28.983   0.539  0.00  0.00    -0.088 HD
ENDBRANCH  30  31
BRANCH  30  36
ATOM     35  OXT UNL     1     -34.290  30.835   1.824  0.00  0.00    -0.253 OA
ATOM     36  C   UNL     1     -34.855  30.128   2.647  0.00  0.00    +0.293 C 
BRANCH  36  37
ATOM     37  O   UNL     1     -35.467  30.629   3.751  0.00  0.00    -0.482 OA
ATOM     38  H   UNL     1     -35.510  31.556   3.884  0.00  0.00    +0.295 HD
ENDBRANCH  36  37
ENDBRANCH  30  36
ENDBRANCH  29  30
ENDBRANCH   1  29
TORSDOF 15
ENDMDL
MODEL 6
REMARK VINA RESULT:      -5.6      1.475      2.184
REMARK  Name = 191724
REMARK  15 active torsions:
REMARK  status: ('A' for Active; 'I' for Inactive)
REMARK    1  A    between atoms: C_1  and  C_29
REMARK    2  A    between atoms: C_4  and  O_7
REMARK    3  A    between atoms: C_5  and  O_18
REMARK    4  A    between atoms: O_7  and  C_9
REMARK    5  A    between atoms: C_9  and  O_10
REMARK    6  A    between atoms: O_10  and  C_11
REMARK    7  A    between atoms: C_11  and  C_12
REMARK    8  A    between atoms: O_18  and  C_20
REMARK    9  A    between atoms: C_20  and  O_21
REMARK   10  A    between atoms: O_21  and  C_22
REMARK   11  A    between atoms: C_22  and  C_23
REMARK   12  A    between atoms: C_29  and  CA_30
REMARK   13  A    between atoms: CA_30  and  N_31
REMARK   14  A    between atoms: CA_30  and  C_36
REMARK   15  A    between atoms: C_36  and  O_37
REMARK                            x       y       z     vdW  Elec       q    Type
REMARK                         _______ _______ _______ _____ _____    ______ ____
ROOT
ATOM      1  C   UNL     1     -35.628  24.818   5.084  0.00  0.00    -0.021 C 
ATOM      2  C   UNL     1     -36.833  25.053   4.422  0.00  0.00    +0.037 C 
ATOM      3  C   UNL     1     -34.949  23.615   4.891  0.00  0.00    -0.001 C 
ATOM      4  C   UNL     1     -37.359  24.085   3.567  0.00  0.00    +0.186 C 
ATOM      5  C   UNL     1     -36.679  22.881   3.374  0.00  0.00    +0.186 C 
ATOM      6  C   UNL     1     -35.475  22.647   4.036  0.00  0.00    +0.041 C 
ENDROOT
BRANCH   4   7
ATOM      7  O   UNL     1     -38.536  24.326   2.924  0.00  0.00    -0.390 OA
BRANCH   7   9
ATOM      8  O   UNL     1     -39.392  26.481   2.667  0.00  0.00    -0.202 OA
ATOM      9  C   UNL     1     -38.620  25.592   2.328  0.00  0.00    +0.517 C 
BRANCH   9  10
ATOM     10  O   UNL     1     -37.707  25.668   1.319  0.00  0.00    -0.413 OA
BRANCH  10  11
ATOM     11  C   UNL     1     -37.025  26.921   1.197  0.00  0.00    +0.239 C 
BRANCH  11  12
ATOM     12  C   UNL     1     -35.568  26.663   0.950  0.00  0.00    +0.021 C 
ATOM     13  C   UNL     1     -35.024  25.409   1.232  0.00  0.00    -0.001 C 
ATOM     14  C   UNL     1     -34.757  27.675   0.438  0.00  0.00    -0.001 C 
ATOM     15  C   UNL     1     -33.670  25.169   1.002  0.00  0.00    -0.000 C 
ATOM     16  C   UNL     1     -33.402  27.434   0.208  0.00  0.00    -0.000 C 
ATOM     17  C   UNL     1     -32.859  26.181   0.490  0.00  0.00    -0.000 C 
ENDBRANCH  11  12
ENDBRANCH  10  11
ENDBRANCH   9  10
ENDBRANCH   7   9
ENDBRANCH   4   7
BRANCH   5  18
ATOM     18  O   UNL     1     -37.182  21.929   2.540  0.00  0.00    -0.390 OA
BRANCH  18  20
ATOM     19  O   UNL     1     -37.038  22.722   0.352  0.00  0.00    -0.202 OA
ATOM     20  C   UNL     1     -36.662  21.967   1.239  0.00  0.00    +0.517 C 
BRANCH  20  21
ATOM     21  O   UNL     1     -35.677  21.032   1.128  0.00  0.00    -0.413 OA
BRANCH  21  22
ATOM     22  C   UNL     1     -34.407  21.523   0.685  0.00  0.00    +0.239 C 
BRANCH  22  23
ATOM     23  C   UNL     1     -33.409  20.402   0.721  0.00  0.00    +0.021 C 
ATOM     24  C   UNL     1     -32.198  20.524   0.042  0.00  0.00    -0.001 C 
ATOM     25  C   UNL     1     -33.694  19.238   1.435  0.00  0.00    -0.001 C 
ATOM     26  C   UNL     1     -31.270  19.483   0.075  0.00  0.00    -0.000 C 
ATOM     27  C   UNL     1     -32.767  18.196   1.469  0.00  0.00    -0.000 C 
ATOM     28  C   UNL     1     -31.555  18.319   0.789  0.00  0.00    -0.000 C 
ENDBRANCH  22  23
ENDBRANCH  21  22
ENDBRANCH  20  21
ENDBRANCH  18  20
ENDBRANCH   5  18
BRANCH   1  29
ATOM     29  C   UNL     1     -35.059  25.867   6.011  0.00  0.00    +0.015 C 
BRANCH  29  30
ATOM     30  CA  UNL     1     -33.612  26.251   5.663  0.00  0.00    +0.040 C 
BRANCH  30  31
ATOM     31  N   UNL     1     -33.040  27.055   6.740  0.00  0.00    +0.389 N 
ATOM     32  H1  UNL     1     -33.243  28.040   6.574  0.00  0.00    -0.088 HD
ATOM     33  H2  UNL     1     -32.030  26.915   6.769  0.00  0.00    -0.088 HD
ATOM     34  H3  UNL     1     -33.448  26.768   7.631  0.00  0.00    -0.088 HD
ENDBRANCH  30  31
BRANCH  30  36
ATOM     35  OXT UNL     1     -34.423  27.828   3.994  0.00  0.00    -0.253 OA
ATOM     36  C   UNL     1     -33.532  27.094   4.401  0.00  0.00    +0.293 C 
BRANCH  36  37
ATOM     37  O   UNL     1     -32.333  26.975   3.775  0.00  0.00    -0.482 OA
ATOM     38  H   UNL     1     -31.570  27.377   4.143  0.00  0.00    +0.295 HD
ENDBRANCH  36  37
ENDBRANCH  30  36
ENDBRANCH  29  30
ENDBRANCH   1  29
TORSDOF 15
ENDMDL
MODEL 7
REMARK VINA RESULT:      -5.6      2.565      6.661
REMARK  Name = 191724
REMARK  15 active torsions:
REMARK  status: ('A' for Active; 'I' for Inactive)
REMARK    1  A    between atoms: C_1  and  C_29
REMARK    2  A    between atoms: C_4  and  O_7
REMARK    3  A    between atoms: C_5  and  O_18
REMARK    4  A    between atoms: O_7  and  C_9
REMARK    5  A    between atoms: C_9  and  O_10
REMARK    6  A    between atoms: O_10  and  C_11
REMARK    7  A    between atoms: C_11  and  C_12
REMARK    8  A    between atoms: O_18  and  C_20
REMARK    9  A    between atoms: C_20  and  O_21
REMARK   10  A    between atoms: O_21  and  C_22
REMARK   11  A    between atoms: C_22  and  C_23
REMARK   12  A    between atoms: C_29  and  CA_30
REMARK   13  A    between atoms: CA_30  and  N_31
REMARK   14  A    between atoms: CA_30  and  C_36
REMARK   15  A    between atoms: C_36  and  O_37
REMARK                            x       y       z     vdW  Elec       q    Type
REMARK                         _______ _______ _______ _____ _____    ______ ____
ROOT
ATOM      1  C   UNL     1     -37.981  24.460   2.429  0.00  0.00    -0.021 C 
ATOM      2  C   UNL     1     -37.002  23.489   2.222  0.00  0.00    +0.037 C 
ATOM      3  C   UNL     1     -37.891  25.320   3.524  0.00  0.00    -0.001 C 
ATOM      4  C   UNL     1     -35.933  23.376   3.111  0.00  0.00    +0.186 C 
ATOM      5  C   UNL     1     -35.843  24.236   4.206  0.00  0.00    +0.186 C 
ATOM      6  C   UNL     1     -36.821  25.207   4.412  0.00  0.00    +0.041 C 
ENDROOT
BRANCH   4   7
ATOM      7  O   UNL     1     -34.982  22.424   2.899  0.00  0.00    -0.390 OA
BRANCH   7   9
ATOM      8  O   UNL     1     -35.392  20.961   4.670  0.00  0.00    -0.202 OA
ATOM      9  C   UNL     1     -35.276  21.177   3.470  0.00  0.00    +0.517 C 
BRANCH   9  10
ATOM     10  O   UNL     1     -35.413  20.255   2.475  0.00  0.00    -0.413 OA
BRANCH  10  11
ATOM     11  C   UNL     1     -34.910  20.649   1.194  0.00  0.00    +0.239 C 
BRANCH  11  12
ATOM     12  C   UNL     1     -33.597  19.964   0.952  0.00  0.00    +0.021 C 
ATOM     13  C   UNL     1     -33.356  18.704   1.502  0.00  0.00    -0.001 C 
ATOM     14  C   UNL     1     -32.617  20.586   0.179  0.00  0.00    -0.001 C 
ATOM     15  C   UNL     1     -32.136  18.067   1.277  0.00  0.00    -0.000 C 
ATOM     16  C   UNL     1     -31.397  19.948  -0.046  0.00  0.00    -0.000 C 
ATOM     17  C   UNL     1     -31.157  18.688   0.504  0.00  0.00    -0.000 C 
ENDBRANCH  11  12
ENDBRANCH  10  11
ENDBRANCH   9  10
ENDBRANCH   7   9
ENDBRANCH   4   7
BRANCH   5  18
ATOM     18  O   UNL     1     -34.802  24.137   5.080  0.00  0.00    -0.390 OA
BRANCH  18  20
ATOM     19  O   UNL     1     -34.036  26.085   6.107  0.00  0.00    -0.202 OA
ATOM     20  C   UNL     1     -34.015  25.292   5.175  0.00  0.00    +0.517 C 
BRANCH  20  21
ATOM     21  O   UNL     1     -33.227  25.385   4.066  0.00  0.00    -0.413 OA
BRANCH  21  22
ATOM     22  C   UNL     1     -33.114  26.694   3.497  0.00  0.00    +0.239 C 
BRANCH  22  23
ATOM     23  C   UNL     1     -34.189  26.874   2.465  0.00  0.00    +0.021 C 
ATOM     24  C   UNL     1     -34.240  26.031   1.356  0.00  0.00    -0.001 C 
ATOM     25  C   UNL     1     -35.138  27.885   2.617  0.00  0.00    -0.001 C 
ATOM     26  C   UNL     1     -35.239  26.199   0.397  0.00  0.00    -0.000 C 
ATOM     27  C   UNL     1     -36.138  28.053   1.659  0.00  0.00    -0.000 C 
ATOM     28  C   UNL     1     -36.189  27.210   0.549  0.00  0.00    -0.000 C 
ENDBRANCH  22  23
ENDBRANCH  21  22
ENDBRANCH  20  21
ENDBRANCH  18  20
ENDBRANCH   5  18
BRANCH   1  29
ATOM     29  C   UNL     1     -39.140  24.582   1.467  0.00  0.00    +0.015 C 
BRANCH  29  30
ATOM     30  CA  UNL     1     -40.498  24.694   2.178  0.00  0.00    +0.040 C 
BRANCH  30  31
ATOM     31  N   UNL     1     -41.562  24.242   1.286  0.00  0.00    +0.389 N 
ATOM     32  H1  UNL     1     -41.630  23.225   1.325  0.00  0.00    -0.088 HD
ATOM     33  H2  UNL     1     -41.352  24.532   0.331  0.00  0.00    -0.088 HD
ATOM     34  H3  UNL     1     -42.449  24.654   1.579  0.00  0.00    -0.088 HD
ENDBRANCH  30  31
BRANCH  30  36
ATOM     35  OXT UNL     1     -40.800  27.079   1.786  0.00  0.00    -0.253 OA
ATOM     36  C   UNL     1     -40.827  26.128   2.557  0.00  0.00    +0.293 C 
BRANCH  36  37
ATOM     37  O   UNL     1     -41.197  26.247   3.859  0.00  0.00    -0.482 OA
ATOM     38  H   UNL     1     -40.965  27.015   4.344  0.00  0.00    +0.295 HD
ENDBRANCH  36  37
ENDBRANCH  30  36
ENDBRANCH  29  30
ENDBRANCH   1  29
TORSDOF 15
ENDMDL
MODEL 8
REMARK VINA RESULT:      -5.6      1.966      3.588
REMARK  Name = 191724
REMARK  15 active torsions:
REMARK  status: ('A' for Active; 'I' for Inactive)
REMARK    1  A    between atoms: C_1  and  C_29
REMARK    2  A    between atoms: C_4  and  O_7
REMARK    3  A    between atoms: C_5  and  O_18
REMARK    4  A    between atoms: O_7  and  C_9
REMARK    5  A    between atoms: C_9  and  O_10
REMARK    6  A    between atoms: O_10  and  C_11
REMARK    7  A    between atoms: C_11  and  C_12
REMARK    8  A    between atoms: O_18  and  C_20
REMARK    9  A    between atoms: C_20  and  O_21
REMARK   10  A    between atoms: O_21  and  C_22
REMARK   11  A    between atoms: C_22  and  C_23
REMARK   12  A    between atoms: C_29  and  CA_30
REMARK   13  A    between atoms: CA_30  and  N_31
REMARK   14  A    between atoms: CA_30  and  C_36
REMARK   15  A    between atoms: C_36  and  O_37
REMARK                            x       y       z     vdW  Elec       q    Type
REMARK                         _______ _______ _______ _____ _____    ______ ____
ROOT
ATOM      1  C   UNL     1     -34.151  26.847   2.764  0.00  0.00    -0.021 C 
ATOM      2  C   UNL     1     -35.323  27.036   2.033  0.00  0.00    +0.037 C 
ATOM      3  C   UNL     1     -33.372  25.709   2.552  0.00  0.00    -0.001 C 
ATOM      4  C   UNL     1     -35.717  26.088   1.089  0.00  0.00    +0.186 C 
ATOM      5  C   UNL     1     -34.938  24.950   0.877  0.00  0.00    +0.186 C 
ATOM      6  C   UNL     1     -33.766  24.761   1.608  0.00  0.00    +0.041 C 
ENDROOT
BRANCH   4   7
ATOM      7  O   UNL     1     -36.864  26.283   0.380  0.00  0.00    -0.390 OA
BRANCH   7   9
ATOM      8  O   UNL     1     -38.761  27.127   1.444  0.00  0.00    -0.202 OA
ATOM      9  C   UNL     1     -38.037  26.187   1.143  0.00  0.00    +0.517 C 
BRANCH   9  10
ATOM     10  O   UNL     1     -38.235  24.883   1.488  0.00  0.00    -0.413 OA
BRANCH  10  11
ATOM     11  C   UNL     1     -38.562  24.650   2.862  0.00  0.00    +0.239 C 
BRANCH  11  12
ATOM     12  C   UNL     1     -37.351  24.118   3.570  0.00  0.00    +0.021 C 
ATOM     13  C   UNL     1     -36.818  22.881   3.204  0.00  0.00    -0.001 C 
ATOM     14  C   UNL     1     -36.759  24.857   4.593  0.00  0.00    -0.001 C 
ATOM     15  C   UNL     1     -35.692  22.386   3.862  0.00  0.00    -0.000 C 
ATOM     16  C   UNL     1     -35.633  24.361   5.250  0.00  0.00    -0.000 C 
ATOM     17  C   UNL     1     -35.100  23.126   4.885  0.00  0.00    -0.000 C 
ENDBRANCH  11  12
ENDBRANCH  10  11
ENDBRANCH   9  10
ENDBRANCH   7   9
ENDBRANCH   4   7
BRANCH   5  18
ATOM     18  O   UNL     1     -35.311  24.017  -0.043  0.00  0.00    -0.390 OA
BRANCH  18  20
ATOM     19  O   UNL     1     -34.056  24.828  -1.833  0.00  0.00    -0.202 OA
ATOM     20  C   UNL     1     -34.439  23.899  -1.133  0.00  0.00    +0.517 C 
BRANCH  20  21
ATOM     21  O   UNL     1     -34.090  22.590  -1.283  0.00  0.00    -0.413 OA
BRANCH  21  22
ATOM     22  C   UNL     1     -32.793  22.236  -0.792  0.00  0.00    +0.239 C 
BRANCH  22  23
ATOM     23  C   UNL     1     -32.903  20.979   0.021  0.00  0.00    +0.021 C 
ATOM     24  C   UNL     1     -34.047  20.737   0.779  0.00  0.00    -0.001 C 
ATOM     25  C   UNL     1     -31.859  20.054   0.017  0.00  0.00    -0.001 C 
ATOM     26  C   UNL     1     -34.149  19.569   1.535  0.00  0.00    -0.000 C 
ATOM     27  C   UNL     1     -31.960  18.886   0.772  0.00  0.00    -0.000 C 
ATOM     28  C   UNL     1     -33.106  18.643   1.531  0.00  0.00    -0.000 C 
ENDBRANCH  22  23
ENDBRANCH  21  22
ENDBRANCH  20  21
ENDBRANCH  18  20
ENDBRANCH   5  18
BRANCH   1  29
ATOM     29  C   UNL     1     -33.724  27.874   3.787  0.00  0.00    +0.015 C 
BRANCH  29  30
ATOM     30  CA  UNL     1     -32.779  27.299   4.854  0.00  0.00    +0.040 C 
BRANCH  30  31
ATOM     31  N   UNL     1     -33.546  26.896   6.029  0.00  0.00    +0.389 N 
ATOM     32  H1  UNL     1     -33.226  27.422   6.842  0.00  0.00    -0.088 HD
ATOM     33  H2  UNL     1     -33.413  25.898   6.197  0.00  0.00    -0.088 HD
ATOM     34  H3  UNL     1     -34.537  27.083   5.869  0.00  0.00    -0.088 HD
ENDBRANCH  30  31
BRANCH  30  36
ATOM     35  OXT UNL     1     -30.548  28.163   5.312  0.00  0.00    -0.253 OA
ATOM     36  C   UNL     1     -31.762  28.323   5.328  0.00  0.00    +0.293 C 
BRANCH  36  37
ATOM     37  O   UNL     1     -32.346  29.475   5.751  0.00  0.00    -0.482 OA
ATOM     38  H   UNL     1     -32.924  29.944   5.180  0.00  0.00    +0.295 HD
ENDBRANCH  36  37
ENDBRANCH  30  36
ENDBRANCH  29  30
ENDBRANCH   1  29
TORSDOF 15
ENDMDL
MODEL 9
REMARK VINA RESULT:      -5.5      1.584      2.644
REMARK  Name = 191724
REMARK  15 active torsions:
REMARK  status: ('A' for Active; 'I' for Inactive)
REMARK    1  A    between atoms: C_1  and  C_29
REMARK    2  A    between atoms: C_4  and  O_7
REMARK    3  A    between atoms: C_5  and  O_18
REMARK    4  A    between atoms: O_7  and  C_9
REMARK    5  A    between atoms: C_9  and  O_10
REMARK    6  A    between atoms: O_10  and  C_11
REMARK    7  A    between atoms: C_11  and  C_12
REMARK    8  A    between atoms: O_18  and  C_20
REMARK    9  A    between atoms: C_20  and  O_21
REMARK   10  A    between atoms: O_21  and  C_22
REMARK   11  A    between atoms: C_22  and  C_23
REMARK   12  A    between atoms: C_29  and  CA_30
REMARK   13  A    between atoms: CA_30  and  N_31
REMARK   14  A    between atoms: CA_30  and  C_36
REMARK   15  A    between atoms: C_36  and  O_37
REMARK                            x       y       z     vdW  Elec       q    Type
REMARK                         _______ _______ _______ _____ _____    ______ ____
ROOT
ATOM      1  C   UNL     1     -34.581  26.533   4.028  0.00  0.00    -0.021 C 
ATOM      2  C   UNL     1     -35.950  26.286   3.919  0.00  0.00    +0.037 C 
ATOM      3  C   UNL     1     -33.750  25.598   4.644  0.00  0.00    -0.001 C 
ATOM      4  C   UNL     1     -36.486  25.102   4.425  0.00  0.00    +0.186 C 
ATOM      5  C   UNL     1     -35.654  24.166   5.042  0.00  0.00    +0.186 C 
ATOM      6  C   UNL     1     -34.287  24.414   5.150  0.00  0.00    +0.041 C 
ENDROOT
BRANCH   4   7
ATOM      7  O   UNL     1     -37.824  24.870   4.313  0.00  0.00    -0.390 OA
BRANCH   7   9
ATOM      8  O   UNL     1     -39.120  26.167   2.869  0.00  0.00    -0.202 OA
ATOM      9  C   UNL     1     -38.368  25.221   3.068  0.00  0.00    +0.517 C 
BRANCH   9  10
ATOM     10  O   UNL     1     -37.922  24.342   2.126  0.00  0.00    -0.413 OA
BRANCH  10  11
ATOM     11  C   UNL     1     -38.872  23.361   1.698  0.00  0.00    +0.239 C 
BRANCH  11  12
ATOM     12  C   UNL     1     -38.299  22.596   0.542  0.00  0.00    +0.021 C 
ATOM     13  C   UNL     1     -37.701  23.280  -0.518  0.00  0.00    -0.001 C 
ATOM     14  C   UNL     1     -38.364  21.204   0.525  0.00  0.00    -0.001 C 
ATOM     15  C   UNL     1     -37.168  22.569  -1.593  0.00  0.00    -0.000 C 
ATOM     16  C   UNL     1     -37.830  20.494  -0.551  0.00  0.00    -0.000 C 
ATOM     17  C   UNL     1     -37.233  21.177  -1.610  0.00  0.00    -0.000 C 
ENDBRANCH  11  12
ENDBRANCH  10  11
ENDBRANCH   9  10
ENDBRANCH   7   9
ENDBRANCH   4   7
BRANCH   5  18
ATOM     18  O   UNL     1     -36.167  23.007   5.539  0.00  0.00    -0.390 OA
BRANCH  18  20
ATOM     19  O   UNL     1     -35.017  20.982   5.419  0.00  0.00    -0.202 OA
ATOM     20  C   UNL     1     -35.706  21.849   4.897  0.00  0.00    +0.517 C 
BRANCH  20  21
ATOM     21  O   UNL     1     -36.148  21.849   3.608  0.00  0.00    -0.413 OA
BRANCH  21  22
ATOM     22  C   UNL     1     -35.489  20.931   2.729  0.00  0.00    +0.239 C 
BRANCH  22  23
ATOM     23  C   UNL     1     -34.825  21.701   1.625  0.00  0.00    +0.021 C 
ATOM     24  C   UNL     1     -34.245  21.024   0.553  0.00  0.00    -0.001 C 
ATOM     25  C   UNL     1     -34.790  23.094   1.671  0.00  0.00    -0.001 C 
ATOM     26  C   UNL     1     -33.628  21.740  -0.473  0.00  0.00    -0.000 C 
ATOM     27  C   UNL     1     -34.174  23.811   0.645  0.00  0.00    -0.000 C 
ATOM     28  C   UNL     1     -33.593  23.133  -0.427  0.00  0.00    -0.000 C 
ENDBRANCH  22  23
ENDBRANCH  21  22
ENDBRANCH  20  21
ENDBRANCH  18  20
ENDBRANCH   5  18
BRANCH   1  29
ATOM     29  C   UNL     1     -33.999  27.816   3.480  0.00  0.00    +0.015 C 
BRANCH  29  30
ATOM     30  CA  UNL     1     -32.670  28.202   4.148  0.00  0.00    +0.040 C 
BRANCH  30  31
ATOM     31  N   UNL     1     -32.745  29.575   4.641  0.00  0.00    +0.389 N 
ATOM     32  H1  UNL     1     -33.563  30.035   4.244  0.00  0.00    -0.088 HD
ATOM     33  H2  UNL     1     -31.903  30.082   4.366  0.00  0.00    -0.088 HD
ATOM     34  H3  UNL     1     -32.819  29.567   5.659  0.00  0.00    -0.088 HD
ENDBRANCH  30  31
BRANCH  30  36
ATOM     35  OXT UNL     1     -31.344  28.925   2.237  0.00  0.00    -0.253 OA
ATOM     36  C   UNL     1     -31.506  28.153   3.173  0.00  0.00    +0.293 C 
BRANCH  36  37
ATOM     37  O   UNL     1     -30.624  27.163   3.471  0.00  0.00    -0.482 OA
ATOM     38  H   UNL     1     -29.703  27.337   3.457  0.00  0.00    +0.295 HD
ENDBRANCH  36  37
ENDBRANCH  30  36
ENDBRANCH  29  30
ENDBRANCH   1  29
TORSDOF 15
ENDMDL
