MODEL 1
REMARK VINA RESULT:      -7.7      0.000      0.000
REMARK  Name = 53324930
REMARK  4 active torsions:
REMARK  status: ('A' for Active; 'I' for Inactive)
REMARK    1  A    between atoms: C_9  and  O_23
REMARK    2  A    between atoms: C_10  and  O_25
REMARK    3  A    between atoms: C_15  and  O_27
REMARK    4  A    between atoms: O_27  and  C_29
REMARK                            x       y       z     vdW  Elec       q    Type
REMARK                         _______ _______ _______ _____ _____    ______ ____
ROOT
ATOM      1  O   UNL     1     -33.974  24.544  -0.422  0.00  0.00    -0.296 OA
ATOM      2  O   UNL     1     -32.913  25.278   3.368  0.00  0.00    -0.292 OA
ATOM      3  C   UNL     1     -35.314  22.021   1.959  0.00  0.00    +0.034 C 
ATOM      4  C   UNL     1     -35.085  22.894   3.283  0.00  0.00    +0.037 C 
ATOM      5  C   UNL     1     -35.190  24.429   3.010  0.00  0.00    +0.065 C 
ATOM      6  C   UNL     1     -34.225  22.533   0.931  0.00  0.00    +0.063 C 
ATOM      7  C   UNL     1     -33.963  21.622  -0.329  0.00  0.00    +0.044 C 
ATOM      8  C   UNL     1     -36.384  25.058   3.771  0.00  0.00    +0.012 C 
ATOM      9  C   UNL     1     -35.896  22.470   4.553  0.00  0.00    +0.111 C 
ATOM     10  C   UNL     1     -35.074  20.503   2.264  0.00  0.00    +0.114 C 
ATOM     11  C   UNL     1     -35.194  24.896   1.562  0.00  0.00    +0.072 C 
ATOM     12  C   UNL     1     -35.947  24.968   5.232  0.00  0.00    +0.028 C 
ATOM     13  C   UNL     1     -35.948  23.509   5.694  0.00  0.00    +0.034 C 
ATOM     14  C   UNL     1     -34.427  24.023   0.599  0.00  0.00    +0.151 C 
ATOM     15  C   UNL     1     -33.767  20.143   0.113  0.00  0.00    +0.171 C 
ATOM     16  C   UNL     1     -34.050  25.104   3.775  0.00  0.00    +0.169 C 
ATOM     17  C   UNL     1     -34.873  19.633   1.022  0.00  0.00    +0.073 C 
ATOM     18  C   UNL     1     -36.765  22.190   1.428  0.00  0.00    +0.003 C 
ATOM     19  C   UNL     1     -34.534  25.476   5.132  0.00  0.00    +0.012 C 
ATOM     20  C   UNL     1     -35.105  21.691  -1.366  0.00  0.00    +0.004 C 
ATOM     21  C   UNL     1     -32.658  22.047  -1.060  0.00  0.00    +0.004 C 
ATOM     22  C   UNL     1     -33.824  26.178   6.015  0.00  0.00    -0.002 C 
ENDROOT
BRANCH   9  23
ATOM     23  O   UNL     1     -35.333  21.282   5.114  0.00  0.00    -0.384 OA
ATOM     24  H   UNL     1     -35.810  20.507   4.777  0.00  0.00    +0.210 HD
ENDBRANCH   9  23
BRANCH  10  25
ATOM     25  O   UNL     1     -36.186  19.948   2.971  0.00  0.00    -0.384 OA
ATOM     26  H   UNL     1     -36.199  18.985   2.850  0.00  0.00    +0.210 HD
ENDBRANCH  10  25
BRANCH  15  27
ATOM     27  O   UNL     1     -32.512  19.953   0.773  0.00  0.00    -0.452 OA
BRANCH  27  29
ATOM     28  O   UNL     1     -31.900  17.916   1.674  0.00  0.00    -0.250 OA
ATOM     29  C   UNL     1     -32.013  18.685   0.729  0.00  0.00    +0.317 C 
ATOM     30  C   UNL     1     -31.612  18.355  -0.676  0.00  0.00    +0.121 C 
ENDBRANCH  27  29
ENDBRANCH  15  27
TORSDOF 4
ENDMDL
MODEL 2
REMARK VINA RESULT:      -7.0      1.153      1.239
REMARK  Name = 53324930
REMARK  4 active torsions:
REMARK  status: ('A' for Active; 'I' for Inactive)
REMARK    1  A    between atoms: C_9  and  O_23
REMARK    2  A    between atoms: C_10  and  O_25
REMARK    3  A    between atoms: C_15  and  O_27
REMARK    4  A    between atoms: O_27  and  C_29
REMARK                            x       y       z     vdW  Elec       q    Type
REMARK                         _______ _______ _______ _____ _____    ______ ____
ROOT
ATOM      1  O   UNL     1     -35.604  24.902  -0.369  0.00  0.00    -0.296 OA
ATOM      2  O   UNL     1     -33.535  25.363   3.028  0.00  0.00    -0.292 OA
ATOM      3  C   UNL     1     -36.102  22.087   2.010  0.00  0.00    +0.034 C 
ATOM      4  C   UNL     1     -35.541  22.852   3.302  0.00  0.00    +0.037 C 
ATOM      5  C   UNL     1     -35.782  24.393   3.234  0.00  0.00    +0.065 C 
ATOM      6  C   UNL     1     -35.375  22.765   0.778  0.00  0.00    +0.063 C 
ATOM      7  C   UNL     1     -35.446  21.991  -0.594  0.00  0.00    +0.044 C 
ATOM      8  C   UNL     1     -36.734  24.867   4.362  0.00  0.00    +0.012 C 
ATOM      9  C   UNL     1     -35.936  22.259   4.695  0.00  0.00    +0.111 C 
ATOM     10  C   UNL     1     -35.722  20.569   2.072  0.00  0.00    +0.114 C 
ATOM     11  C   UNL     1     -36.220  24.988   1.903  0.00  0.00    +0.072 C 
ATOM     12  C   UNL     1     -35.894  24.676   5.623  0.00  0.00    +0.028 C 
ATOM     13  C   UNL     1     -35.703  23.185   5.909  0.00  0.00    +0.034 C 
ATOM     14  C   UNL     1     -35.724  24.261   0.677  0.00  0.00    +0.151 C 
ATOM     15  C   UNL     1     -35.071  20.496  -0.384  0.00  0.00    +0.171 C 
ATOM     16  C   UNL     1     -34.500  25.075   3.716  0.00  0.00    +0.169 C 
ATOM     17  C   UNL     1     -35.849  19.831   0.738  0.00  0.00    +0.073 C 
ATOM     18  C   UNL     1     -37.650  22.202   1.928  0.00  0.00    +0.003 C 
ATOM     19  C   UNL     1     -34.591  25.288   5.186  0.00  0.00    +0.012 C 
ATOM     20  C   UNL     1     -36.838  22.074  -1.256  0.00  0.00    +0.004 C 
ATOM     21  C   UNL     1     -34.423  22.570  -1.611  0.00  0.00    +0.004 C 
ATOM     22  C   UNL     1     -33.687  25.955   5.904  0.00  0.00    -0.002 C 
ENDROOT
BRANCH   9  23
ATOM     23  O   UNL     1     -35.188  21.067   4.947  0.00  0.00    -0.384 OA
ATOM     24  H   UNL     1     -35.509  20.356   4.371  0.00  0.00    +0.210 HD
ENDBRANCH   9  23
BRANCH  10  25
ATOM     25  O   UNL     1     -36.562  19.876   3.000  0.00  0.00    -0.384 OA
ATOM     26  H   UNL     1     -37.460  20.241   2.958  0.00  0.00    +0.210 HD
ENDBRANCH  10  25
BRANCH  15  27
ATOM     27  O   UNL     1     -33.673  20.335  -0.126  0.00  0.00    -0.452 OA
BRANCH  27  29
ATOM     28  O   UNL     1     -33.372  18.270  -1.115  0.00  0.00    -0.250 OA
ATOM     29  C   UNL     1     -33.209  19.055  -0.192  0.00  0.00    +0.317 C 
ATOM     30  C   UNL     1     -32.449  18.735   1.060  0.00  0.00    +0.121 C 
ENDBRANCH  27  29
ENDBRANCH  15  27
TORSDOF 4
ENDMDL
MODEL 3
REMARK VINA RESULT:      -6.3      3.367      5.541
REMARK  Name = 53324930
REMARK  4 active torsions:
REMARK  status: ('A' for Active; 'I' for Inactive)
REMARK    1  A    between atoms: C_9  and  O_23
REMARK    2  A    between atoms: C_10  and  O_25
REMARK    3  A    between atoms: C_15  and  O_27
REMARK    4  A    between atoms: O_27  and  C_29
REMARK                            x       y       z     vdW  Elec       q    Type
REMARK                         _______ _______ _______ _____ _____    ______ ____
ROOT
ATOM      1  O   UNL     1     -35.324  21.921  -0.268  0.00  0.00    -0.296 OA
ATOM      2  O   UNL     1     -35.918  21.407   3.658  0.00  0.00    -0.292 OA
ATOM      3  C   UNL     1     -37.071  24.801   1.310  0.00  0.00    +0.034 C 
ATOM      4  C   UNL     1     -36.692  24.425   2.821  0.00  0.00    +0.037 C 
ATOM      5  C   UNL     1     -35.326  23.675   2.925  0.00  0.00    +0.065 C 
ATOM      6  C   UNL     1     -37.069  23.425   0.527  0.00  0.00    +0.063 C 
ATOM      7  C   UNL     1     -37.755  23.422  -0.892  0.00  0.00    +0.044 C 
ATOM      8  C   UNL     1     -34.285  24.504   3.720  0.00  0.00    +0.012 C 
ATOM      9  C   UNL     1     -36.812  25.570   3.880  0.00  0.00    +0.111 C 
ATOM     10  C   UNL     1     -38.502  25.434   1.252  0.00  0.00    +0.114 C 
ATOM     11  C   UNL     1     -34.699  23.154   1.639  0.00  0.00    +0.072 C 
ATOM     12  C   UNL     1     -34.837  24.472   5.144  0.00  0.00    +0.028 C 
ATOM     13  C   UNL     1     -36.115  25.309   5.233  0.00  0.00    +0.034 C 
ATOM     14  C   UNL     1     -35.677  22.767   0.555  0.00  0.00    +0.151 C 
ATOM     15  C   UNL     1     -39.153  24.100  -0.812  0.00  0.00    +0.171 C 
ATOM     16  C   UNL     1     -35.511  22.527   3.918  0.00  0.00    +0.169 C 
ATOM     17  C   UNL     1     -39.123  25.465  -0.146  0.00  0.00    +0.073 C 
ATOM     18  C   UNL     1     -36.058  25.824   0.724  0.00  0.00    +0.003 C 
ATOM     19  C   UNL     1     -35.166  23.011   5.283  0.00  0.00    +0.012 C 
ATOM     20  C   UNL     1     -36.909  24.137  -1.968  0.00  0.00    +0.004 C 
ATOM     21  C   UNL     1     -37.991  21.968  -1.392  0.00  0.00    +0.004 C 
ATOM     22  C   UNL     1     -35.118  22.232   6.364  0.00  0.00    -0.002 C 
ENDROOT
BRANCH   9  23
ATOM     23  O   UNL     1     -38.189  25.816   4.177  0.00  0.00    -0.384 OA
ATOM     24  H   UNL     1     -38.255  26.366   4.973  0.00  0.00    +0.210 HD
ENDBRANCH   9  23
BRANCH  10  25
ATOM     25  O   UNL     1     -38.474  26.788   1.712  0.00  0.00    -0.384 OA
ATOM     26  H   UNL     1     -39.043  27.334   1.146  0.00  0.00    +0.210 HD
ENDBRANCH  10  25
BRANCH  15  27
ATOM     27  O   UNL     1     -40.098  23.277  -0.121  0.00  0.00    -0.452 OA
BRANCH  27  29
ATOM     28  O   UNL     1     -42.314  23.762   0.310  0.00  0.00    -0.250 OA
ATOM     29  C   UNL     1     -41.404  23.478  -0.456  0.00  0.00    +0.317 C 
ATOM     30  C   UNL     1     -41.574  23.298  -1.934  0.00  0.00    +0.121 C 
ENDBRANCH  27  29
ENDBRANCH  15  27
TORSDOF 4
ENDMDL
MODEL 4
REMARK VINA RESULT:      -5.9      1.433      1.613
REMARK  Name = 53324930
REMARK  4 active torsions:
REMARK  status: ('A' for Active; 'I' for Inactive)
REMARK    1  A    between atoms: C_9  and  O_23
REMARK    2  A    between atoms: C_10  and  O_25
REMARK    3  A    between atoms: C_15  and  O_27
REMARK    4  A    between atoms: O_27  and  C_29
REMARK                            x       y       z     vdW  Elec       q    Type
REMARK                         _______ _______ _______ _____ _____    ______ ____
ROOT
ATOM      1  O   UNL     1     -36.088  24.528  -0.763  0.00  0.00    -0.296 OA
ATOM      2  O   UNL     1     -33.514  26.134   1.850  0.00  0.00    -0.292 OA
ATOM      3  C   UNL     1     -35.830  22.569   2.388  0.00  0.00    +0.034 C 
ATOM      4  C   UNL     1     -35.139  23.726   3.255  0.00  0.00    +0.037 C 
ATOM      5  C   UNL     1     -35.563  25.155   2.787  0.00  0.00    +0.065 C 
ATOM      6  C   UNL     1     -35.415  22.868   0.890  0.00  0.00    +0.063 C 
ATOM      7  C   UNL     1     -35.640  21.704  -0.149  0.00  0.00    +0.044 C 
ATOM      8  C   UNL     1     -36.348  25.903   3.895  0.00  0.00    +0.012 C 
ATOM      9  C   UNL     1     -35.210  23.575   4.810  0.00  0.00    +0.111 C 
ATOM     10  C   UNL     1     -35.274  21.168   2.815  0.00  0.00    +0.114 C 
ATOM     11  C   UNL     1     -36.296  25.282   1.459  0.00  0.00    +0.072 C 
ATOM     12  C   UNL     1     -35.281  26.159   4.957  0.00  0.00    +0.028 C 
ATOM     13  C   UNL     1     -34.872  24.844   5.624  0.00  0.00    +0.034 C 
ATOM     14  C   UNL     1     -35.946  24.238   0.426  0.00  0.00    +0.151 C 
ATOM     15  C   UNL     1     -35.065  20.371   0.410  0.00  0.00    +0.171 C 
ATOM     16  C   UNL     1     -34.303  26.022   2.775  0.00  0.00    +0.169 C 
ATOM     17  C   UNL     1     -35.551  20.046   1.812  0.00  0.00    +0.073 C 
ATOM     18  C   UNL     1     -37.370  22.567   2.594  0.00  0.00    +0.003 C 
ATOM     19  C   UNL     1     -34.155  26.675   4.103  0.00  0.00    +0.012 C 
ATOM     20  C   UNL     1     -37.128  21.501  -0.508  0.00  0.00    +0.004 C 
ATOM     21  C   UNL     1     -34.888  21.993  -1.479  0.00  0.00    +0.004 C 
ATOM     22  C   UNL     1     -33.220  27.581   4.393  0.00  0.00    -0.002 C 
ENDROOT
BRANCH   9  23
ATOM     23  O   UNL     1     -34.297  22.563   5.243  0.00  0.00    -0.384 OA
ATOM     24  H   UNL     1     -33.800  22.229   4.480  0.00  0.00    +0.210 HD
ENDBRANCH   9  23
BRANCH  10  25
ATOM     25  O   UNL     1     -35.850  20.753   4.056  0.00  0.00    -0.384 OA
ATOM     26  H   UNL     1     -35.286  20.076   4.464  0.00  0.00    +0.210 HD
ENDBRANCH  10  25
BRANCH  15  27
ATOM     27  O   UNL     1     -33.635  20.375   0.412  0.00  0.00    -0.452 OA
BRANCH  27  29
ATOM     28  O   UNL     1     -33.174  18.759  -1.173  0.00  0.00    -0.250 OA
ATOM     29  C   UNL     1     -33.045  19.238  -0.054  0.00  0.00    +0.317 C 
ATOM     30  C   UNL     1     -32.192  18.639   1.023  0.00  0.00    +0.121 C 
ENDBRANCH  27  29
ENDBRANCH  15  27
TORSDOF 4
ENDMDL
MODEL 5
REMARK VINA RESULT:      -5.8      9.556     11.528
REMARK  Name = 53324930
REMARK  4 active torsions:
REMARK  status: ('A' for Active; 'I' for Inactive)
REMARK    1  A    between atoms: C_9  and  O_23
REMARK    2  A    between atoms: C_10  and  O_25
REMARK    3  A    between atoms: C_15  and  O_27
REMARK    4  A    between atoms: O_27  and  C_29
REMARK                            x       y       z     vdW  Elec       q    Type
REMARK                         _______ _______ _______ _____ _____    ______ ____
ROOT
ATOM      1  O   UNL     1     -43.688  30.755   2.106  0.00  0.00    -0.296 OA
ATOM      2  O   UNL     1     -42.791  30.505   6.000  0.00  0.00    -0.292 OA
ATOM      3  C   UNL     1     -45.157  27.748   3.728  0.00  0.00    +0.034 C 
ATOM      4  C   UNL     1     -44.980  28.261   5.236  0.00  0.00    +0.037 C 
ATOM      5  C   UNL     1     -45.058  29.817   5.348  0.00  0.00    +0.065 C 
ATOM      6  C   UNL     1     -44.018  28.477   2.905  0.00  0.00    +0.063 C 
ATOM      7  C   UNL     1     -43.708  27.901   1.470  0.00  0.00    +0.044 C 
ATOM      8  C   UNL     1     -46.280  30.262   6.192  0.00  0.00    +0.012 C 
ATOM      9  C   UNL     1     -45.851  27.552   6.325  0.00  0.00    +0.111 C 
ATOM     10  C   UNL     1     -44.945  26.198   3.655  0.00  0.00    +0.114 C 
ATOM     11  C   UNL     1     -44.993  30.629   4.063  0.00  0.00    +0.072 C 
ATOM     12  C   UNL     1     -45.909  29.804   7.601  0.00  0.00    +0.028 C 
ATOM     13  C   UNL     1     -45.945  28.277   7.686  0.00  0.00    +0.034 C 
ATOM     14  C   UNL     1     -44.191  30.007   2.946  0.00  0.00    +0.151 C 
ATOM     15  C   UNL     1     -43.546  26.355   1.539  0.00  0.00    +0.171 C 
ATOM     16  C   UNL     1     -43.948  30.259   6.303  0.00  0.00    +0.169 C 
ATOM     17  C   UNL     1     -44.696  25.659   2.245  0.00  0.00    +0.073 C 
ATOM     18  C   UNL     1     -46.581  28.072   3.196  0.00  0.00    +0.003 C 
ATOM     19  C   UNL     1     -44.489  30.292   7.689  0.00  0.00    +0.012 C 
ATOM     20  C   UNL     1     -44.801  28.248   0.437  0.00  0.00    +0.004 C 
ATOM     21  C   UNL     1     -42.368  28.468   0.923  0.00  0.00    +0.004 C 
ATOM     22  C   UNL     1     -43.812  30.739   8.747  0.00  0.00    -0.002 C 
ENDROOT
BRANCH   9  23
ATOM     23  O   UNL     1     -45.324  26.251   6.597  0.00  0.00    -0.384 OA
ATOM     24  H   UNL     1     -44.384  26.227   6.362  0.00  0.00    +0.210 HD
ENDBRANCH   9  23
BRANCH  10  25
ATOM     25  O   UNL     1     -46.092  25.507   4.156  0.00  0.00    -0.384 OA
ATOM     26  H   UNL     1     -45.824  24.638   4.497  0.00  0.00    +0.210 HD
ENDBRANCH  10  25
BRANCH  15  27
ATOM     27  O   UNL     1     -42.323  25.982   2.182  0.00  0.00    -0.452 OA
BRANCH  27  29
ATOM     28  O   UNL     1     -41.937  24.078   0.934  0.00  0.00    -0.250 OA
ATOM     29  C   UNL     1     -41.550  25.091   1.500  0.00  0.00    +0.317 C 
ATOM     30  C   UNL     1     -40.120  25.537   1.540  0.00  0.00    +0.121 C 
ENDBRANCH  27  29
ENDBRANCH  15  27
TORSDOF 4
ENDMDL
MODEL 6
REMARK VINA RESULT:      -5.8      2.896      5.224
REMARK  Name = 53324930
REMARK  4 active torsions:
REMARK  status: ('A' for Active; 'I' for Inactive)
REMARK    1  A    between atoms: C_9  and  O_23
REMARK    2  A    between atoms: C_10  and  O_25
REMARK    3  A    between atoms: C_15  and  O_27
REMARK    4  A    between atoms: O_27  and  C_29
REMARK                            x       y       z     vdW  Elec       q    Type
REMARK                         _______ _______ _______ _____ _____    ______ ____
ROOT
ATOM      1  O   UNL     1     -33.438  25.353  -0.101  0.00  0.00    -0.296 OA
ATOM      2  O   UNL     1     -30.205  26.055   2.153  0.00  0.00    -0.292 OA
ATOM      3  C   UNL     1     -34.300  26.334   3.381  0.00  0.00    +0.034 C 
ATOM      4  C   UNL     1     -32.864  26.942   3.750  0.00  0.00    +0.037 C 
ATOM      5  C   UNL     1     -32.132  27.537   2.505  0.00  0.00    +0.065 C 
ATOM      6  C   UNL     1     -34.017  25.249   2.263  0.00  0.00    +0.063 C 
ATOM      7  C   UNL     1     -35.182  24.231   1.960  0.00  0.00    +0.044 C 
ATOM      8  C   UNL     1     -31.922  29.066   2.650  0.00  0.00    +0.012 C 
ATOM      9  C   UNL     1     -32.805  27.908   4.980  0.00  0.00    +0.111 C 
ATOM     10  C   UNL     1     -34.933  25.641   4.635  0.00  0.00    +0.114 C 
ATOM     11  C   UNL     1     -32.695  27.221   1.127  0.00  0.00    +0.072 C 
ATOM     12  C   UNL     1     -30.891  29.166   3.773  0.00  0.00    +0.028 C 
ATOM     13  C   UNL     1     -31.521  28.756   5.106  0.00  0.00    +0.034 C 
ATOM     14  C   UNL     1     -33.397  25.889   1.007  0.00  0.00    +0.151 C 
ATOM     15  C   UNL     1     -35.733  23.639   3.289  0.00  0.00    +0.171 C 
ATOM     16  C   UNL     1     -30.669  27.097   2.586  0.00  0.00    +0.169 C 
ATOM     17  C   UNL     1     -36.094  24.697   4.318  0.00  0.00    +0.073 C 
ATOM     18  C   UNL     1     -35.267  27.451   2.900  0.00  0.00    +0.003 C 
ATOM     19  C   UNL     1     -29.896  28.128   3.332  0.00  0.00    +0.012 C 
ATOM     20  C   UNL     1     -36.346  24.869   1.172  0.00  0.00    +0.004 C 
ATOM     21  C   UNL     1     -34.665  23.032   1.116  0.00  0.00    +0.004 C 
ATOM     22  C   UNL     1     -28.572  28.104   3.488  0.00  0.00    -0.002 C 
ENDROOT
BRANCH   9  23
ATOM     23  O   UNL     1     -32.915  27.158   6.192  0.00  0.00    -0.384 OA
ATOM     24  H   UNL     1     -32.694  26.230   6.019  0.00  0.00    +0.210 HD
ENDBRANCH   9  23
BRANCH  10  25
ATOM     25  O   UNL     1     -35.443  26.617   5.548  0.00  0.00    -0.384 OA
ATOM     26  H   UNL     1     -35.023  27.474   5.372  0.00  0.00    +0.210 HD
ENDBRANCH  10  25
BRANCH  15  27
ATOM     27  O   UNL     1     -34.805  22.725   3.882  0.00  0.00    -0.452 OA
BRANCH  27  29
ATOM     28  O   UNL     1     -35.703  20.614   3.607  0.00  0.00    -0.250 OA
ATOM     29  C   UNL     1     -35.338  21.546   4.312  0.00  0.00    +0.317 C 
ATOM     30  C   UNL     1     -35.416  21.548   5.808  0.00  0.00    +0.121 C 
ENDBRANCH  27  29
ENDBRANCH  15  27
TORSDOF 4
ENDMDL
MODEL 7
REMARK VINA RESULT:      -5.8      1.658      2.200
REMARK  Name = 53324930
REMARK  4 active torsions:
REMARK  status: ('A' for Active; 'I' for Inactive)
REMARK    1  A    between atoms: C_9  and  O_23
REMARK    2  A    between atoms: C_10  and  O_25
REMARK    3  A    between atoms: C_15  and  O_27
REMARK    4  A    between atoms: O_27  and  C_29
REMARK                            x       y       z     vdW  Elec       q    Type
REMARK                         _______ _______ _______ _____ _____    ______ ____
ROOT
ATOM      1  O   UNL     1     -35.588  24.698  -0.875  0.00  0.00    -0.296 OA
ATOM      2  O   UNL     1     -32.640  25.997   1.501  0.00  0.00    -0.292 OA
ATOM      3  C   UNL     1     -35.805  23.314   2.570  0.00  0.00    +0.034 C 
ATOM      4  C   UNL     1     -34.819  24.380   3.247  0.00  0.00    +0.037 C 
ATOM      5  C   UNL     1     -34.859  25.768   2.530  0.00  0.00    +0.065 C 
ATOM      6  C   UNL     1     -35.351  23.231   1.056  0.00  0.00    +0.063 C 
ATOM      7  C   UNL     1     -35.892  22.006   0.224  0.00  0.00    +0.044 C 
ATOM      8  C   UNL     1     -35.400  26.875   3.470  0.00  0.00    +0.012 C 
ATOM      9  C   UNL     1     -34.902  24.524   4.803  0.00  0.00    +0.111 C 
ATOM     10  C   UNL     1     -35.632  21.911   3.246  0.00  0.00    +0.114 C 
ATOM     11  C   UNL     1     -35.553  25.852   1.178  0.00  0.00    +0.072 C 
ATOM     12  C   UNL     1     -34.286  27.021   4.504  0.00  0.00    +0.028 C 
ATOM     13  C   UNL     1     -34.228  25.780   5.397  0.00  0.00    +0.034 C 
ATOM     14  C   UNL     1     -35.508  24.590   0.350  0.00  0.00    +0.151 C 
ATOM     15  C   UNL     1     -35.681  20.685   1.020  0.00  0.00    +0.171 C 
ATOM     16  C   UNL     1     -33.415  26.257   2.407  0.00  0.00    +0.169 C 
ATOM     17  C   UNL     1     -36.212  20.746   2.442  0.00  0.00    +0.073 C 
ATOM     18  C   UNL     1     -37.288  23.753   2.726  0.00  0.00    +0.003 C 
ATOM     19  C   UNL     1     -33.078  27.068   3.609  0.00  0.00    +0.012 C 
ATOM     20  C   UNL     1     -37.386  22.142  -0.139  0.00  0.00    +0.004 C 
ATOM     21  C   UNL     1     -35.112  21.853  -1.112  0.00  0.00    +0.004 C 
ATOM     22  C   UNL     1     -31.933  27.732   3.768  0.00  0.00    -0.002 C 
ENDROOT
BRANCH   9  23
ATOM     23  O   UNL     1     -34.282  23.398   5.429  0.00  0.00    -0.384 OA
ATOM     24  H   UNL     1     -33.675  22.974   4.803  0.00  0.00    +0.210 HD
ENDBRANCH   9  23
BRANCH  10  25
ATOM     25  O   UNL     1     -36.277  21.883   4.522  0.00  0.00    -0.384 OA
ATOM     26  H   UNL     1     -36.754  21.044   4.625  0.00  0.00    +0.210 HD
ENDBRANCH  10  25
BRANCH  15  27
ATOM     27  O   UNL     1     -34.300  20.313   1.065  0.00  0.00    -0.452 OA
BRANCH  27  29
ATOM     28  O   UNL     1     -34.725  18.255   0.108  0.00  0.00    -0.250 OA
ATOM     29  C   UNL     1     -34.036  19.006   0.784  0.00  0.00    +0.317 C 
ATOM     30  C   UNL     1     -32.748  18.604   1.439  0.00  0.00    +0.121 C 
ENDBRANCH  27  29
ENDBRANCH  15  27
TORSDOF 4
ENDMDL
MODEL 8
REMARK VINA RESULT:      -5.7      2.759      6.495
REMARK  Name = 53324930
REMARK  4 active torsions:
REMARK  status: ('A' for Active; 'I' for Inactive)
REMARK    1  A    between atoms: C_9  and  O_23
REMARK    2  A    between atoms: C_10  and  O_25
REMARK    3  A    between atoms: C_15  and  O_27
REMARK    4  A    between atoms: O_27  and  C_29
REMARK                            x       y       z     vdW  Elec       q    Type
REMARK                         _______ _______ _______ _____ _____    ______ ____
ROOT
ATOM      1  O   UNL     1     -35.389  25.807  -0.669  0.00  0.00    -0.296 OA
ATOM      2  O   UNL     1     -36.072  22.004  -1.719  0.00  0.00    -0.292 OA
ATOM      3  C   UNL     1     -35.896  23.576   2.264  0.00  0.00    +0.034 C 
ATOM      4  C   UNL     1     -35.663  22.200   1.476  0.00  0.00    +0.037 C 
ATOM      5  C   UNL     1     -34.679  22.360   0.274  0.00  0.00    +0.065 C 
ATOM      6  C   UNL     1     -36.425  24.594   1.173  0.00  0.00    +0.063 C 
ATOM      7  C   UNL     1     -37.084  25.922   1.711  0.00  0.00    +0.044 C 
ATOM      8  C   UNL     1     -33.390  21.525   0.483  0.00  0.00    +0.012 C 
ATOM      9  C   UNL     1     -35.326  20.943   2.344  0.00  0.00    +0.111 C 
ATOM     10  C   UNL     1     -36.983  23.387   3.375  0.00  0.00    +0.114 C 
ATOM     11  C   UNL     1     -34.316  23.771  -0.167  0.00  0.00    +0.072 C 
ATOM     12  C   UNL     1     -33.891  20.086   0.366  0.00  0.00    +0.028 C 
ATOM     13  C   UNL     1     -34.758  19.730   1.576  0.00  0.00    +0.034 C 
ATOM     14  C   UNL     1     -35.383  24.814   0.061  0.00  0.00    +0.151 C 
ATOM     15  C   UNL     1     -38.121  25.592   2.822  0.00  0.00    +0.171 C 
ATOM     16  C   UNL     1     -35.269  21.580  -0.903  0.00  0.00    +0.169 C 
ATOM     17  C   UNL     1     -37.569  24.693   3.915  0.00  0.00    +0.073 C 
ATOM     18  C   UNL     1     -34.582  24.055   2.941  0.00  0.00    +0.003 C 
ATOM     19  C   UNL     1     -34.745  20.187  -0.868  0.00  0.00    +0.012 C 
ATOM     20  C   UNL     1     -36.048  26.921   2.270  0.00  0.00    +0.004 C 
ATOM     21  C   UNL     1     -37.858  26.655   0.580  0.00  0.00    +0.004 C 
ATOM     22  C   UNL     1     -34.977  19.276  -1.813  0.00  0.00    -0.002 C 
ENDROOT
BRANCH   9  23
ATOM     23  O   UNL     1     -36.503  20.482   3.011  0.00  0.00    -0.384 OA
ATOM     24  H   UNL     1     -37.288  20.764   2.515  0.00  0.00    +0.210 HD
ENDBRANCH   9  23
BRANCH  10  25
ATOM     25  O   UNL     1     -36.439  22.691   4.500  0.00  0.00    -0.384 OA
ATOM     26  H   UNL     1     -35.674  23.179   4.843  0.00  0.00    +0.210 HD
ENDBRANCH  10  25
BRANCH  15  27
ATOM     27  O   UNL     1     -39.296  24.980   2.280  0.00  0.00    -0.452 OA
BRANCH  27  29
ATOM     28  O   UNL     1     -40.635  26.609   3.223  0.00  0.00    -0.250 OA
ATOM     29  C   UNL     1     -40.451  25.686   2.441  0.00  0.00    +0.317 C 
ATOM     30  C   UNL     1     -41.493  25.160   1.501  0.00  0.00    +0.121 C 
ENDBRANCH  27  29
ENDBRANCH  15  27
TORSDOF 4
ENDMDL
MODEL 9
REMARK VINA RESULT:      -5.5      3.442      6.004
REMARK  Name = 53324930
REMARK  4 active torsions:
REMARK  status: ('A' for Active; 'I' for Inactive)
REMARK    1  A    between atoms: C_9  and  O_23
REMARK    2  A    between atoms: C_10  and  O_25
REMARK    3  A    between atoms: C_15  and  O_27
REMARK    4  A    between atoms: O_27  and  C_29
REMARK                            x       y       z     vdW  Elec       q    Type
REMARK                         _______ _______ _______ _____ _____    ______ ____
ROOT
ATOM      1  O   UNL     1     -36.440  26.165   0.441  0.00  0.00    -0.296 OA
ATOM      2  O   UNL     1     -40.378  25.829   1.082  0.00  0.00    -0.292 OA
ATOM      3  C   UNL     1     -37.506  22.649   1.019  0.00  0.00    +0.034 C 
ATOM      4  C   UNL     1     -39.068  22.898   0.761  0.00  0.00    +0.037 C 
ATOM      5  C   UNL     1     -39.328  24.055  -0.255  0.00  0.00    +0.065 C 
ATOM      6  C   UNL     1     -36.942  24.040   1.523  0.00  0.00    +0.063 C 
ATOM      7  C   UNL     1     -35.519  24.018   2.200  0.00  0.00    +0.044 C 
ATOM      8  C   UNL     1     -40.020  23.535  -1.540  0.00  0.00    +0.012 C 
ATOM      9  C   UNL     1     -39.937  21.636   0.443  0.00  0.00    +0.111 C 
ATOM     10  C   UNL     1     -37.308  21.568   2.136  0.00  0.00    +0.114 C 
ATOM     11  C   UNL     1     -38.156  24.954  -0.625  0.00  0.00    +0.072 C 
ATOM     12  C   UNL     1     -41.414  23.152  -1.048  0.00  0.00    +0.028 C 
ATOM     13  C   UNL     1     -41.335  21.915  -0.150  0.00  0.00    +0.034 C 
ATOM     14  C   UNL     1     -37.114  25.133   0.452  0.00  0.00    +0.151 C 
ATOM     15  C   UNL     1     -35.452  22.887   3.266  0.00  0.00    +0.171 C 
ATOM     16  C   UNL     1     -40.478  24.897   0.300  0.00  0.00    +0.169 C 
ATOM     17  C   UNL     1     -35.903  21.535   2.740  0.00  0.00    +0.073 C 
ATOM     18  C   UNL     1     -36.804  22.151  -0.274  0.00  0.00    +0.003 C 
ATOM     19  C   UNL     1     -41.763  24.363  -0.227  0.00  0.00    +0.012 C 
ATOM     20  C   UNL     1     -34.375  23.821   1.183  0.00  0.00    +0.004 C 
ATOM     21  C   UNL     1     -35.239  25.353   2.946  0.00  0.00    +0.004 C 
ATOM     22  C   UNL     1     -42.951  24.934  -0.024  0.00  0.00    -0.002 C 
ENDROOT
BRANCH   9  23
ATOM     23  O   UNL     1     -40.149  20.878   1.637  0.00  0.00    -0.384 OA
ATOM     24  H   UNL     1     -39.799  19.981   1.517  0.00  0.00    +0.210 HD
ENDBRANCH   9  23
BRANCH  10  25
ATOM     25  O   UNL     1     -37.558  20.258   1.620  0.00  0.00    -0.384 OA
ATOM     26  H   UNL     1     -37.079  20.143   0.784  0.00  0.00    +0.210 HD
ENDBRANCH  10  25
BRANCH  15  27
ATOM     27  O   UNL     1     -36.229  23.208   4.424  0.00  0.00    -0.452 OA
BRANCH  27  29
ATOM     28  O   UNL     1     -34.979  24.307   6.026  0.00  0.00    -0.250 OA
ATOM     29  C   UNL     1     -35.530  23.305   5.590  0.00  0.00    +0.317 C 
ATOM     30  C   UNL     1     -35.531  21.977   6.285  0.00  0.00    +0.121 C 
ENDBRANCH  27  29
ENDBRANCH  15  27
TORSDOF 4
ENDMDL
