MODEL 1
REMARK VINA RESULT:      -6.6      0.000      0.000
REMARK  Name = 504670
REMARK  5 active torsions:
REMARK  status: ('A' for Active; 'I' for Inactive)
REMARK    1  A    between atoms: N_4  and  C_9
REMARK    2  A    between atoms: C_8  and  C_19
REMARK    3  A    between atoms: C_11  and  C_18
REMARK    4  A    between atoms: C_22  and  C_26
REMARK    5  A    between atoms: C_26  and  O_27
REMARK                            x       y       z     vdW  Elec       q    Type
REMARK                         _______ _______ _______ _____ _____    ______ ____
ROOT
ATOM      1  S   UNL     1     -31.752  27.922   3.402  0.00  0.00    -0.060 S 
ATOM      2  S   UNL     1     -33.295  26.326   1.408  0.00  0.00    -0.027 S 
ATOM      3  O   UNL     1     -33.698  26.853   6.495  0.00  0.00    -0.269 OA
ATOM      4  N   UNL     1     -33.667  26.364   4.178  0.00  0.00    -0.222 N 
ATOM      5  C   UNL     1     -33.283  27.027   5.355  0.00  0.00    +0.263 C 
ATOM      6  C   UNL     1     -32.199  27.991   5.051  0.00  0.00    +0.085 C 
ATOM      7  C   UNL     1     -33.002  26.738   3.005  0.00  0.00    +0.125 C 
ATOM      8  C   UNL     1     -31.651  28.790   5.969  0.00  0.00    +0.011 C 
ENDROOT
BRANCH   4   9
ATOM      9  C   UNL     1     -34.693  25.363   4.241  0.00  0.00    +0.059 C 
ATOM     10  C   UNL     1     -34.421  24.130   4.826  0.00  0.00    +0.019 C 
ATOM     11  C   UNL     1     -35.419  23.158   4.886  0.00  0.00    +0.073 C 
ATOM     12  C   UNL     1     -35.954  25.633   3.717  0.00  0.00    +0.015 C 
ATOM     13  C   UNL     1     -36.685  23.423   4.362  0.00  0.00    +0.004 C 
ATOM     14  C   UNL     1     -36.952  24.661   3.778  0.00  0.00    +0.001 C 
BRANCH  11  18
ATOM     15  F   UNL     1     -36.008  21.499   6.507  0.00  0.00    -0.166 F 
ATOM     16  F   UNL     1     -35.183  20.792   4.630  0.00  0.00    -0.166 F 
ATOM     17  F   UNL     1     -33.895  21.777   6.079  0.00  0.00    -0.166 F 
ATOM     18  C   UNL     1     -35.135  21.834   5.513  0.00  0.00    +0.419 C 
ENDBRANCH  11  18
ENDBRANCH   4   9
BRANCH   8  19
ATOM     19  C   UNL     1     -30.584  29.753   5.745  0.00  0.00    +0.001 C 
ATOM     20  C   UNL     1     -30.846  30.936   5.055  0.00  0.00    +0.000 C 
ATOM     21  C   UNL     1     -29.298  29.492   6.219  0.00  0.00    +0.000 C 
ATOM     22  C   UNL     1     -28.537  31.598   5.314  0.00  0.00    +0.075 C 
ATOM     23  C   UNL     1     -29.822  31.859   4.839  0.00  0.00    +0.006 C 
ATOM     24  C   UNL     1     -28.274  30.415   6.004  0.00  0.00    +0.006 C 
BRANCH  22  26
ATOM     25  O   UNL     1     -27.063  33.384   5.915  0.00  0.00    -0.245 OA
ATOM     26  C   UNL     1     -27.470  32.560   5.089  0.00  0.00    +0.338 C 
BRANCH  26  27
ATOM     27  O   UNL     1     -26.938  32.466   3.840  0.00  0.00    -0.477 OA
ATOM     28  H   UNL     1     -26.414  31.724   3.609  0.00  0.00    +0.295 HD
ENDBRANCH  26  27
ENDBRANCH  22  26
ENDBRANCH   8  19
TORSDOF 5
ENDMDL
MODEL 2
REMARK VINA RESULT:      -6.6      4.138      9.354
REMARK  Name = 504670
REMARK  5 active torsions:
REMARK  status: ('A' for Active; 'I' for Inactive)
REMARK    1  A    between atoms: N_4  and  C_9
REMARK    2  A    between atoms: C_8  and  C_19
REMARK    3  A    between atoms: C_11  and  C_18
REMARK    4  A    between atoms: C_22  and  C_26
REMARK    5  A    between atoms: C_26  and  O_27
REMARK                            x       y       z     vdW  Elec       q    Type
REMARK                         _______ _______ _______ _____ _____    ______ ____
ROOT
ATOM      1  S   UNL     1     -34.311  26.175   2.525  0.00  0.00    -0.060 S 
ATOM      2  S   UNL     1     -32.156  28.013   1.585  0.00  0.00    -0.027 S 
ATOM      3  O   UNL     1     -33.777  26.669   6.263  0.00  0.00    -0.269 OA
ATOM      4  N   UNL     1     -32.907  27.521   4.233  0.00  0.00    -0.222 N 
ATOM      5  C   UNL     1     -33.704  26.693   5.040  0.00  0.00    +0.263 C 
ATOM      6  C   UNL     1     -34.549  25.829   4.183  0.00  0.00    +0.085 C 
ATOM      7  C   UNL     1     -33.043  27.362   2.849  0.00  0.00    +0.125 C 
ATOM      8  C   UNL     1     -35.390  24.914   4.669  0.00  0.00    +0.011 C 
ENDROOT
BRANCH   4   9
ATOM      9  C   UNL     1     -32.020  28.462   4.854  0.00  0.00    +0.059 C 
ATOM     10  C   UNL     1     -30.850  28.013   5.459  0.00  0.00    +0.019 C 
ATOM     11  C   UNL     1     -29.988  28.929   6.064  0.00  0.00    +0.073 C 
ATOM     12  C   UNL     1     -32.336  29.817   4.848  0.00  0.00    +0.015 C 
ATOM     13  C   UNL     1     -30.301  30.288   6.060  0.00  0.00    +0.004 C 
ATOM     14  C   UNL     1     -31.474  30.733   5.452  0.00  0.00    +0.001 C 
BRANCH  11  18
ATOM     15  F   UNL     1     -28.433  29.110   7.872  0.00  0.00    -0.166 F 
ATOM     16  F   UNL     1     -28.757  27.130   7.047  0.00  0.00    -0.166 F 
ATOM     17  F   UNL     1     -27.637  28.609   5.912  0.00  0.00    -0.166 F 
ATOM     18  C   UNL     1     -28.731  28.455   6.713  0.00  0.00    +0.419 C 
ENDBRANCH  11  18
ENDBRANCH   4   9
BRANCH   8  19
ATOM     19  C   UNL     1     -36.252  24.036   3.892  0.00  0.00    +0.001 C 
ATOM     20  C   UNL     1     -35.797  22.777   3.503  0.00  0.00    +0.000 C 
ATOM     21  C   UNL     1     -37.533  24.457   3.534  0.00  0.00    +0.000 C 
ATOM     22  C   UNL     1     -37.904  22.357   2.399  0.00  0.00    +0.075 C 
ATOM     23  C   UNL     1     -36.623  21.937   2.756  0.00  0.00    +0.006 C 
ATOM     24  C   UNL     1     -38.359  23.617   2.787  0.00  0.00    +0.006 C 
BRANCH  22  26
ATOM     25  O   UNL     1     -38.571  21.144   0.447  0.00  0.00    -0.245 OA
ATOM     26  C   UNL     1     -38.765  21.482   1.620  0.00  0.00    +0.338 C 
BRANCH  26  27
ATOM     27  O   UNL     1     -39.846  21.050   2.327  0.00  0.00    -0.477 OA
ATOM     28  H   UNL     1     -39.748  20.799   3.224  0.00  0.00    +0.295 HD
ENDBRANCH  26  27
ENDBRANCH  22  26
ENDBRANCH   8  19
TORSDOF 5
ENDMDL
MODEL 3
REMARK VINA RESULT:      -6.5      6.607      9.742
REMARK  Name = 504670
REMARK  5 active torsions:
REMARK  status: ('A' for Active; 'I' for Inactive)
REMARK    1  A    between atoms: N_4  and  C_9
REMARK    2  A    between atoms: C_8  and  C_19
REMARK    3  A    between atoms: C_11  and  C_18
REMARK    4  A    between atoms: C_22  and  C_26
REMARK    5  A    between atoms: C_26  and  O_27
REMARK                            x       y       z     vdW  Elec       q    Type
REMARK                         _______ _______ _______ _____ _____    ______ ____
ROOT
ATOM      1  S   UNL     1     -36.537  27.368   1.725  0.00  0.00    -0.060 S 
ATOM      2  S   UNL     1     -37.583  28.958  -0.574  0.00  0.00    -0.027 S 
ATOM      3  O   UNL     1     -34.423  30.117   3.297  0.00  0.00    -0.269 OA
ATOM      4  N   UNL     1     -35.921  29.870   1.480  0.00  0.00    -0.222 N 
ATOM      5  C   UNL     1     -35.151  29.446   2.576  0.00  0.00    +0.263 C 
ATOM      6  C   UNL     1     -35.381  28.001   2.815  0.00  0.00    +0.085 C 
ATOM      7  C   UNL     1     -36.696  28.893   0.846  0.00  0.00    +0.125 C 
ATOM      8  C   UNL     1     -34.762  27.310   3.774  0.00  0.00    +0.011 C 
ENDROOT
BRANCH   4   9
ATOM      9  C   UNL     1     -35.871  31.247   1.080  0.00  0.00    +0.059 C 
ATOM     10  C   UNL     1     -36.884  32.117   1.472  0.00  0.00    +0.019 C 
ATOM     11  C   UNL     1     -36.835  33.456   1.083  0.00  0.00    +0.073 C 
ATOM     12  C   UNL     1     -34.810  31.703   0.304  0.00  0.00    +0.015 C 
ATOM     13  C   UNL     1     -35.773  33.918   0.305  0.00  0.00    +0.004 C 
ATOM     14  C   UNL     1     -34.760  33.042  -0.084  0.00  0.00    +0.001 C 
BRANCH  11  18
ATOM     15  F   UNL     1     -38.853  34.616   0.532  0.00  0.00    -0.166 F 
ATOM     16  F   UNL     1     -38.622  33.964   2.588  0.00  0.00    -0.166 F 
ATOM     17  F   UNL     1     -37.439  35.627   1.838  0.00  0.00    -0.166 F 
ATOM     18  C   UNL     1     -37.916  34.395   1.500  0.00  0.00    +0.419 C 
ENDBRANCH  11  18
ENDBRANCH   4   9
BRANCH   8  19
ATOM     19  C   UNL     1     -34.941  25.896   4.069  0.00  0.00    +0.001 C 
ATOM     20  C   UNL     1     -34.640  24.939   3.102  0.00  0.00    +0.000 C 
ATOM     21  C   UNL     1     -35.416  25.501   5.320  0.00  0.00    +0.000 C 
ATOM     22  C   UNL     1     -35.288  23.188   4.636  0.00  0.00    +0.075 C 
ATOM     23  C   UNL     1     -34.814  23.584   3.385  0.00  0.00    +0.006 C 
ATOM     24  C   UNL     1     -35.590  24.146   5.603  0.00  0.00    +0.006 C 
BRANCH  22  26
ATOM     25  O   UNL     1     -35.209  20.843   4.162  0.00  0.00    -0.245 OA
ATOM     26  C   UNL     1     -35.469  21.775   4.931  0.00  0.00    +0.338 C 
BRANCH  26  27
ATOM     27  O   UNL     1     -35.967  21.564   6.180  0.00  0.00    -0.477 OA
ATOM     28  H   UNL     1     -35.384  21.412   6.898  0.00  0.00    +0.295 HD
ENDBRANCH  26  27
ENDBRANCH  22  26
ENDBRANCH   8  19
TORSDOF 5
ENDMDL
MODEL 4
REMARK VINA RESULT:      -6.3      3.943      4.538
REMARK  Name = 504670
REMARK  5 active torsions:
REMARK  status: ('A' for Active; 'I' for Inactive)
REMARK    1  A    between atoms: N_4  and  C_9
REMARK    2  A    between atoms: C_8  and  C_19
REMARK    3  A    between atoms: C_11  and  C_18
REMARK    4  A    between atoms: C_22  and  C_26
REMARK    5  A    between atoms: C_26  and  O_27
REMARK                            x       y       z     vdW  Elec       q    Type
REMARK                         _______ _______ _______ _____ _____    ______ ____
ROOT
ATOM      1  S   UNL     1     -35.691  27.830   2.327  0.00  0.00    -0.060 S 
ATOM      2  S   UNL     1     -37.873  25.841   2.760  0.00  0.00    -0.027 S 
ATOM      3  O   UNL     1     -32.880  25.830   3.940  0.00  0.00    -0.269 OA
ATOM      4  N   UNL     1     -35.175  25.545   3.427  0.00  0.00    -0.222 N 
ATOM      5  C   UNL     1     -33.956  26.237   3.516  0.00  0.00    +0.263 C 
ATOM      6  C   UNL     1     -34.113  27.596   2.945  0.00  0.00    +0.085 C 
ATOM      7  C   UNL     1     -36.250  26.243   2.867  0.00  0.00    +0.125 C 
ATOM      8  C   UNL     1     -33.130  28.498   2.918  0.00  0.00    +0.011 C 
ENDROOT
BRANCH   4   9
ATOM      9  C   UNL     1     -35.249  24.194   3.903  0.00  0.00    +0.059 C 
ATOM     10  C   UNL     1     -35.298  23.142   2.992  0.00  0.00    +0.019 C 
ATOM     11  C   UNL     1     -35.370  21.828   3.456  0.00  0.00    +0.073 C 
ATOM     12  C   UNL     1     -35.270  23.943   5.272  0.00  0.00    +0.015 C 
ATOM     13  C   UNL     1     -35.392  21.572   4.827  0.00  0.00    +0.004 C 
ATOM     14  C   UNL     1     -35.341  22.630   5.735  0.00  0.00    +0.001 C 
BRANCH  11  18
ATOM     15  F   UNL     1     -34.368  19.836   2.591  0.00  0.00    -0.166 F 
ATOM     16  F   UNL     1     -36.535  19.915   2.619  0.00  0.00    -0.166 F 
ATOM     17  F   UNL     1     -35.424  21.118   1.188  0.00  0.00    -0.166 F 
ATOM     18  C   UNL     1     -35.422  20.696   2.485  0.00  0.00    +0.419 C 
ENDBRANCH  11  18
ENDBRANCH   4   9
BRANCH   8  19
ATOM     19  C   UNL     1     -33.211  29.843   2.371  0.00  0.00    +0.001 C 
ATOM     20  C   UNL     1     -32.907  30.070   1.030  0.00  0.00    +0.000 C 
ATOM     21  C   UNL     1     -33.590  30.907   3.191  0.00  0.00    +0.000 C 
ATOM     22  C   UNL     1     -33.363  32.424   1.325  0.00  0.00    +0.075 C 
ATOM     23  C   UNL     1     -32.983  31.361   0.506  0.00  0.00    +0.006 C 
ATOM     24  C   UNL     1     -33.666  32.198   2.668  0.00  0.00    +0.006 C 
BRANCH  22  26
ATOM     25  O   UNL     1     -32.843  34.173  -0.223  0.00  0.00    -0.245 OA
ATOM     26  C   UNL     1     -33.442  33.770   0.780  0.00  0.00    +0.338 C 
BRANCH  26  27
ATOM     27  O   UNL     1     -34.269  34.576   1.501  0.00  0.00    -0.477 OA
ATOM     28  H   UNL     1     -33.910  35.189   2.112  0.00  0.00    +0.295 HD
ENDBRANCH  26  27
ENDBRANCH  22  26
ENDBRANCH   8  19
TORSDOF 5
ENDMDL
MODEL 5
REMARK VINA RESULT:      -6.3      6.763      9.876
REMARK  Name = 504670
REMARK  5 active torsions:
REMARK  status: ('A' for Active; 'I' for Inactive)
REMARK    1  A    between atoms: N_4  and  C_9
REMARK    2  A    between atoms: C_8  and  C_19
REMARK    3  A    between atoms: C_11  and  C_18
REMARK    4  A    between atoms: C_22  and  C_26
REMARK    5  A    between atoms: C_26  and  O_27
REMARK                            x       y       z     vdW  Elec       q    Type
REMARK                         _______ _______ _______ _____ _____    ______ ____
ROOT
ATOM      1  S   UNL     1     -34.519  27.955   3.113  0.00  0.00    -0.060 S 
ATOM      2  S   UNL     1     -33.312  30.683   3.191  0.00  0.00    -0.027 S 
ATOM      3  O   UNL     1     -37.386  28.758   0.741  0.00  0.00    -0.269 OA
ATOM      4  N   UNL     1     -35.514  29.865   1.678  0.00  0.00    -0.222 N 
ATOM      5  C   UNL     1     -36.410  28.801   1.480  0.00  0.00    +0.263 C 
ATOM      6  C   UNL     1     -35.977  27.632   2.280  0.00  0.00    +0.085 C 
ATOM      7  C   UNL     1     -34.455  29.633   2.563  0.00  0.00    +0.125 C 
ATOM      8  C   UNL     1     -36.650  26.480   2.318  0.00  0.00    +0.011 C 
ENDROOT
BRANCH   4   9
ATOM      9  C   UNL     1     -35.728  31.099   0.979  0.00  0.00    +0.059 C 
ATOM     10  C   UNL     1     -36.612  32.042   1.495  0.00  0.00    +0.019 C 
ATOM     11  C   UNL     1     -36.819  33.242   0.815  0.00  0.00    +0.073 C 
ATOM     12  C   UNL     1     -35.049  31.346  -0.211  0.00  0.00    +0.015 C 
ATOM     13  C   UNL     1     -36.141  33.494  -0.378  0.00  0.00    +0.004 C 
ATOM     14  C   UNL     1     -35.255  32.547  -0.890  0.00  0.00    +0.001 C 
BRANCH  11  18
ATOM     15  F   UNL     1     -38.474  33.818   2.444  0.00  0.00    -0.166 F 
ATOM     16  F   UNL     1     -37.150  35.403   1.784  0.00  0.00    -0.166 F 
ATOM     17  F   UNL     1     -38.696  34.655   0.449  0.00  0.00    -0.166 F 
ATOM     18  C   UNL     1     -37.764  34.258   1.364  0.00  0.00    +0.419 C 
ENDBRANCH  11  18
ENDBRANCH   4   9
BRANCH   8  19
ATOM     19  C   UNL     1     -36.284  25.293   3.075  0.00  0.00    +0.001 C 
ATOM     20  C   UNL     1     -35.832  24.154   2.409  0.00  0.00    +0.000 C 
ATOM     21  C   UNL     1     -36.387  25.294   4.466  0.00  0.00    +0.000 C 
ATOM     22  C   UNL     1     -35.583  23.016   4.526  0.00  0.00    +0.075 C 
ATOM     23  C   UNL     1     -35.482  23.015   3.135  0.00  0.00    +0.006 C 
ATOM     24  C   UNL     1     -36.037  24.155   5.192  0.00  0.00    +0.006 C 
BRANCH  22  26
ATOM     25  O   UNL     1     -34.886  21.813   6.473  0.00  0.00    -0.245 OA
ATOM     26  C   UNL     1     -35.219  21.829   5.283  0.00  0.00    +0.338 C 
BRANCH  26  27
ATOM     27  O   UNL     1     -35.280  20.694   4.534  0.00  0.00    -0.477 OA
ATOM     28  H   UNL     1     -35.775  20.684   3.738  0.00  0.00    +0.295 HD
ENDBRANCH  26  27
ENDBRANCH  22  26
ENDBRANCH   8  19
TORSDOF 5
ENDMDL
MODEL 6
REMARK VINA RESULT:      -6.3      6.813      9.690
REMARK  Name = 504670
REMARK  5 active torsions:
REMARK  status: ('A' for Active; 'I' for Inactive)
REMARK    1  A    between atoms: N_4  and  C_9
REMARK    2  A    between atoms: C_8  and  C_19
REMARK    3  A    between atoms: C_11  and  C_18
REMARK    4  A    between atoms: C_22  and  C_26
REMARK    5  A    between atoms: C_26  and  O_27
REMARK                            x       y       z     vdW  Elec       q    Type
REMARK                         _______ _______ _______ _____ _____    ______ ____
ROOT
ATOM      1  S   UNL     1     -37.754  21.873   1.119  0.00  0.00    -0.060 S 
ATOM      2  S   UNL     1     -39.981  20.869  -0.595  0.00  0.00    -0.027 S 
ATOM      3  O   UNL     1     -35.409  18.909   0.658  0.00  0.00    -0.269 OA
ATOM      4  N   UNL     1     -37.517  19.627  -0.145  0.00  0.00    -0.222 N 
ATOM      5  C   UNL     1     -36.353  19.690   0.637  0.00  0.00    +0.263 C 
ATOM      6  C   UNL     1     -36.368  20.928   1.452  0.00  0.00    +0.085 C 
ATOM      7  C   UNL     1     -38.429  20.678   0.005  0.00  0.00    +0.125 C 
ATOM      8  C   UNL     1     -35.404  21.247   2.318  0.00  0.00    +0.011 C 
ENDROOT
BRANCH   4   9
ATOM      9  C   UNL     1     -37.705  18.517  -1.034  0.00  0.00    +0.059 C 
ATOM     10  C   UNL     1     -38.554  17.476  -0.670  0.00  0.00    +0.019 C 
ATOM     11  C   UNL     1     -38.736  16.396  -1.535  0.00  0.00    +0.073 C 
ATOM     12  C   UNL     1     -37.036  18.488  -2.254  0.00  0.00    +0.015 C 
ATOM     13  C   UNL     1     -38.068  16.363  -2.760  0.00  0.00    +0.004 C 
ATOM     14  C   UNL     1     -37.219  17.409  -3.119  0.00  0.00    +0.001 C 
BRANCH  11  18
ATOM     15  F   UNL     1     -39.259  14.621  -0.020  0.00  0.00    -0.166 F 
ATOM     16  F   UNL     1     -40.930  15.678  -0.912  0.00  0.00    -0.166 F 
ATOM     17  F   UNL     1     -39.735  14.320  -2.120  0.00  0.00    -0.166 F 
ATOM     18  C   UNL     1     -39.646  15.278  -1.152  0.00  0.00    +0.419 C 
ENDBRANCH  11  18
ENDBRANCH   4   9
BRANCH   8  19
ATOM     19  C   UNL     1     -35.350  22.443   3.145  0.00  0.00    +0.001 C 
ATOM     20  C   UNL     1     -35.086  23.681   2.562  0.00  0.00    +0.000 C 
ATOM     21  C   UNL     1     -35.561  22.348   4.521  0.00  0.00    +0.000 C 
ATOM     22  C   UNL     1     -35.245  24.734   4.731  0.00  0.00    +0.075 C 
ATOM     23  C   UNL     1     -35.033  24.828   3.356  0.00  0.00    +0.006 C 
ATOM     24  C   UNL     1     -35.508  23.494   5.314  0.00  0.00    +0.006 C 
BRANCH  22  26
ATOM     25  O   UNL     1     -34.203  26.313   6.196  0.00  0.00    -0.245 OA
ATOM     26  C   UNL     1     -35.189  25.928   5.559  0.00  0.00    +0.338 C 
BRANCH  26  27
ATOM     27  O   UNL     1     -36.366  26.611   5.568  0.00  0.00    -0.477 OA
ATOM     28  H   UNL     1     -36.716  26.952   4.768  0.00  0.00    +0.295 HD
ENDBRANCH  26  27
ENDBRANCH  22  26
ENDBRANCH   8  19
TORSDOF 5
ENDMDL
MODEL 7
REMARK VINA RESULT:      -6.2      6.730     10.503
REMARK  Name = 504670
REMARK  5 active torsions:
REMARK  status: ('A' for Active; 'I' for Inactive)
REMARK    1  A    between atoms: N_4  and  C_9
REMARK    2  A    between atoms: C_8  and  C_19
REMARK    3  A    between atoms: C_11  and  C_18
REMARK    4  A    between atoms: C_22  and  C_26
REMARK    5  A    between atoms: C_26  and  O_27
REMARK                            x       y       z     vdW  Elec       q    Type
REMARK                         _______ _______ _______ _____ _____    ______ ____
ROOT
ATOM      1  S   UNL     1     -33.600  20.947  -0.037  0.00  0.00    -0.060 S 
ATOM      2  S   UNL     1     -34.268  23.838  -0.359  0.00  0.00    -0.027 S 
ATOM      3  O   UNL     1     -35.303  20.424   3.328  0.00  0.00    -0.269 OA
ATOM      4  N   UNL     1     -35.045  22.158   1.736  0.00  0.00    -0.222 N 
ATOM      5  C   UNL     1     -34.841  20.884   2.290  0.00  0.00    +0.263 C 
ATOM      6  C   UNL     1     -33.988  20.079   1.384  0.00  0.00    +0.085 C 
ATOM      7  C   UNL     1     -34.418  22.414   0.511  0.00  0.00    +0.125 C 
ATOM      8  C   UNL     1     -33.598  18.833   1.661  0.00  0.00    +0.011 C 
ENDROOT
BRANCH   4   9
ATOM      9  C   UNL     1     -35.865  23.104   2.437  0.00  0.00    +0.059 C 
ATOM     10  C   UNL     1     -35.302  23.912   3.420  0.00  0.00    +0.019 C 
ATOM     11  C   UNL     1     -36.100  24.830   4.102  0.00  0.00    +0.073 C 
ATOM     12  C   UNL     1     -37.218  23.208   2.128  0.00  0.00    +0.015 C 
ATOM     13  C   UNL     1     -37.457  24.938   3.796  0.00  0.00    +0.004 C 
ATOM     14  C   UNL     1     -38.016  24.127   2.809  0.00  0.00    +0.001 C 
BRANCH  11  18
ATOM     15  F   UNL     1     -36.423  26.243   6.005  0.00  0.00    -0.166 F 
ATOM     16  F   UNL     1     -34.615  25.046   5.964  0.00  0.00    -0.166 F 
ATOM     17  F   UNL     1     -34.814  26.758   4.637  0.00  0.00    -0.166 F 
ATOM     18  C   UNL     1     -35.502  25.700   5.156  0.00  0.00    +0.419 C 
ENDBRANCH  11  18
ENDBRANCH   4   9
BRANCH   8  19
ATOM     19  C   UNL     1     -32.768  17.984   0.820  0.00  0.00    +0.001 C 
ATOM     20  C   UNL     1     -31.379  18.048   0.919  0.00  0.00    +0.000 C 
ATOM     21  C   UNL     1     -33.364  17.106  -0.087  0.00  0.00    +0.000 C 
ATOM     22  C   UNL     1     -31.179  16.357  -0.795  0.00  0.00    +0.075 C 
ATOM     23  C   UNL     1     -30.584  17.235   0.111  0.00  0.00    +0.006 C 
ATOM     24  C   UNL     1     -32.569  16.293  -0.895  0.00  0.00    +0.006 C 
BRANCH  22  26
ATOM     25  O   UNL     1     -30.769  14.641  -2.411  0.00  0.00    -0.245 OA
ATOM     26  C   UNL     1     -30.350  15.509  -1.637  0.00  0.00    +0.338 C 
BRANCH  26  27
ATOM     27  O   UNL     1     -29.022  15.769  -1.492  0.00  0.00    -0.477 OA
ATOM     28  H   UNL     1     -28.404  15.064  -1.490  0.00  0.00    +0.295 HD
ENDBRANCH  26  27
ENDBRANCH  22  26
ENDBRANCH   8  19
TORSDOF 5
ENDMDL
MODEL 8
REMARK VINA RESULT:      -6.1      4.632      9.594
REMARK  Name = 504670
REMARK  5 active torsions:
REMARK  status: ('A' for Active; 'I' for Inactive)
REMARK    1  A    between atoms: N_4  and  C_9
REMARK    2  A    between atoms: C_8  and  C_19
REMARK    3  A    between atoms: C_11  and  C_18
REMARK    4  A    between atoms: C_22  and  C_26
REMARK    5  A    between atoms: C_26  and  O_27
REMARK                            x       y       z     vdW  Elec       q    Type
REMARK                         _______ _______ _______ _____ _____    ______ ____
ROOT
ATOM      1  S   UNL     1     -33.900  25.063   1.616  0.00  0.00    -0.060 S 
ATOM      2  S   UNL     1     -31.622  26.934   1.152  0.00  0.00    -0.027 S 
ATOM      3  O   UNL     1     -35.241  26.700   4.781  0.00  0.00    -0.269 OA
ATOM      4  N   UNL     1     -33.533  27.086   3.186  0.00  0.00    -0.222 N 
ATOM      5  C   UNL     1     -34.591  26.387   3.790  0.00  0.00    +0.263 C 
ATOM      6  C   UNL     1     -34.892  25.167   3.005  0.00  0.00    +0.085 C 
ATOM      7  C   UNL     1     -32.983  26.514   2.034  0.00  0.00    +0.125 C 
ATOM      8  C   UNL     1     -35.831  24.285   3.353  0.00  0.00    +0.011 C 
ENDROOT
BRANCH   4   9
ATOM      9  C   UNL     1     -33.086  28.319   3.769  0.00  0.00    +0.059 C 
ATOM     10  C   UNL     1     -32.204  28.295   4.846  0.00  0.00    +0.019 C 
ATOM     11  C   UNL     1     -31.770  29.493   5.411  0.00  0.00    +0.073 C 
ATOM     12  C   UNL     1     -33.536  29.530   3.253  0.00  0.00    +0.015 C 
ATOM     13  C   UNL     1     -32.218  30.710   4.897  0.00  0.00    +0.004 C 
ATOM     14  C   UNL     1     -33.101  30.729   3.818  0.00  0.00    +0.001 C 
BRANCH  11  18
ATOM     15  F   UNL     1     -31.416  29.753   7.763  0.00  0.00    -0.166 F 
ATOM     16  F   UNL     1     -30.207  28.269   6.744  0.00  0.00    -0.166 F 
ATOM     17  F   UNL     1     -29.817  30.386   6.433  0.00  0.00    -0.166 F 
ATOM     18  C   UNL     1     -30.824  29.475   6.565  0.00  0.00    +0.419 C 
ENDBRANCH  11  18
ENDBRANCH   4   9
BRANCH   8  19
ATOM     19  C   UNL     1     -36.184  23.073   2.630  0.00  0.00    +0.001 C 
ATOM     20  C   UNL     1     -35.598  21.857   2.980  0.00  0.00    +0.000 C 
ATOM     21  C   UNL     1     -37.108  23.128   1.586  0.00  0.00    +0.000 C 
ATOM     22  C   UNL     1     -36.860  20.750   1.243  0.00  0.00    +0.075 C 
ATOM     23  C   UNL     1     -35.936  20.695   2.286  0.00  0.00    +0.006 C 
ATOM     24  C   UNL     1     -37.446  21.966   0.892  0.00  0.00    +0.006 C 
BRANCH  22  26
ATOM     25  O   UNL     1     -36.435  18.619   0.239  0.00  0.00    -0.245 OA
ATOM     26  C   UNL     1     -37.212  19.538   0.519  0.00  0.00    +0.338 C 
BRANCH  26  27
ATOM     27  O   UNL     1     -38.526  19.506   0.165  0.00  0.00    -0.477 OA
ATOM     28  H   UNL     1     -39.187  19.419   0.824  0.00  0.00    +0.295 HD
ENDBRANCH  26  27
ENDBRANCH  22  26
ENDBRANCH   8  19
TORSDOF 5
ENDMDL
MODEL 9
REMARK VINA RESULT:      -6.1      8.282      9.905
REMARK  Name = 504670
REMARK  5 active torsions:
REMARK  status: ('A' for Active; 'I' for Inactive)
REMARK    1  A    between atoms: N_4  and  C_9
REMARK    2  A    between atoms: C_8  and  C_19
REMARK    3  A    between atoms: C_11  and  C_18
REMARK    4  A    between atoms: C_22  and  C_26
REMARK    5  A    between atoms: C_26  and  O_27
REMARK                            x       y       z     vdW  Elec       q    Type
REMARK                         _______ _______ _______ _____ _____    ______ ____
ROOT
ATOM      1  S   UNL     1     -36.316  22.603   0.219  0.00  0.00    -0.060 S 
ATOM      2  S   UNL     1     -34.893  21.331  -2.075  0.00  0.00    -0.027 S 
ATOM      3  O   UNL     1     -35.085  20.233   2.932  0.00  0.00    -0.269 OA
ATOM      4  N   UNL     1     -34.753  20.579   0.613  0.00  0.00    -0.222 N 
ATOM      5  C   UNL     1     -35.326  20.805   1.876  0.00  0.00    +0.263 C 
ATOM      6  C   UNL     1     -36.283  21.933   1.792  0.00  0.00    +0.085 C 
ATOM      7  C   UNL     1     -35.190  21.404  -0.428  0.00  0.00    +0.125 C 
ATOM      8  C   UNL     1     -37.006  22.359   2.829  0.00  0.00    +0.011 C 
ENDROOT
BRANCH   4   9
ATOM      9  C   UNL     1     -33.774  19.541   0.464  0.00  0.00    +0.059 C 
ATOM     10  C   UNL     1     -34.181  18.247   0.150  0.00  0.00    +0.019 C 
ATOM     11  C   UNL     1     -33.228  17.238   0.005  0.00  0.00    +0.073 C 
ATOM     12  C   UNL     1     -32.424  19.834   0.635  0.00  0.00    +0.015 C 
ATOM     13  C   UNL     1     -31.874  17.527   0.175  0.00  0.00    +0.004 C 
ATOM     14  C   UNL     1     -31.472  18.825   0.489  0.00  0.00    +0.001 C 
BRANCH  11  18
ATOM     15  F   UNL     1     -33.925  15.667  -1.659  0.00  0.00    -0.166 F 
ATOM     16  F   UNL     1     -32.724  14.901  -0.023  0.00  0.00    -0.166 F 
ATOM     17  F   UNL     1     -34.792  15.477   0.326  0.00  0.00    -0.166 F 
ATOM     18  C   UNL     1     -33.657  15.850  -0.333  0.00  0.00    +0.419 C 
ENDBRANCH  11  18
ENDBRANCH   4   9
BRANCH   8  19
ATOM     19  C   UNL     1     -37.958  23.460   2.822  0.00  0.00    +0.001 C 
ATOM     20  C   UNL     1     -39.281  23.234   2.446  0.00  0.00    +0.000 C 
ATOM     21  C   UNL     1     -37.544  24.740   3.191  0.00  0.00    +0.000 C 
ATOM     22  C   UNL     1     -39.780  25.570   2.807  0.00  0.00    +0.075 C 
ATOM     23  C   UNL     1     -40.192  24.291   2.437  0.00  0.00    +0.006 C 
ATOM     24  C   UNL     1     -38.456  25.796   3.183  0.00  0.00    +0.006 C 
BRANCH  22  26
ATOM     25  O   UNL     1     -41.152  27.246   1.789  0.00  0.00    -0.245 OA
ATOM     26  C   UNL     1     -40.730  26.671   2.798  0.00  0.00    +0.338 C 
BRANCH  26  27
ATOM     27  O   UNL     1     -41.129  27.025   4.050  0.00  0.00    -0.477 OA
ATOM     28  H   UNL     1     -41.763  26.505   4.505  0.00  0.00    +0.295 HD
ENDBRANCH  26  27
ENDBRANCH  22  26
ENDBRANCH   8  19
TORSDOF 5
ENDMDL
