MODEL 1
REMARK VINA RESULT:      -6.6      0.000      0.000
REMARK  Name = 5353939
REMARK  5 active torsions:
REMARK  status: ('A' for Active; 'I' for Inactive)
REMARK    1  A    between atoms: C_8  and  O_17
REMARK    2  A    between atoms: C_13  and  C_24
REMARK    3  A    between atoms: C_15  and  O_19
REMARK    4  A    between atoms: C_16  and  O_21
REMARK    5  A    between atoms: C_24  and  O_25
REMARK                            x       y       z     vdW  Elec       q    Type
REMARK                         _______ _______ _______ _____ _____    ______ ____
ROOT
ATOM      1  O   UNL     1     -34.683  24.134   5.394  0.00  0.00    -0.329 OA
ATOM      2  O   UNL     1     -38.041  25.913   3.695  0.00  0.00    -0.458 OA
ATOM      3  O   UNL     1     -37.246  22.062   2.621  0.00  0.00    -0.287 OA
ATOM      4  C   UNL     1     -34.588  25.508   5.012  0.00  0.00    +0.126 C 
ATOM      5  C   UNL     1     -35.998  26.105   4.977  0.00  0.00    +0.094 C 
ATOM      6  C   UNL     1     -36.595  23.978   3.870  0.00  0.00    +0.103 A 
ATOM      7  C   UNL     1     -36.914  25.255   4.146  0.00  0.00    +0.129 A 
ATOM      8  C   UNL     1     -35.344  23.327   4.409  0.00  0.00    +0.266 C 
ATOM      9  C   UNL     1     -37.495  23.208   2.974  0.00  0.00    +0.202 A 
ATOM     10  C   UNL     1     -38.712  23.900   2.518  0.00  0.00    +0.083 A 
ATOM     11  C   UNL     1     -38.922  25.222   2.905  0.00  0.00    +0.151 A 
ATOM     12  C   UNL     1     -33.711  26.224   6.030  0.00  0.00    +0.033 C 
ATOM     13  C   UNL     1     -39.642  23.247   1.705  0.00  0.00    +0.118 C 
ATOM     14  C   UNL     1     -40.066  25.899   2.482  0.00  0.00    +0.077 C 
ATOM     15  C   UNL     1     -40.787  23.927   1.284  0.00  0.00    +0.174 C 
ATOM     16  C   UNL     1     -40.998  25.250   1.672  0.00  0.00    +0.171 C 
ENDROOT
BRANCH   8  17
ATOM     17  O   UNL     1     -35.689  22.075   4.997  0.00  0.00    -0.324 OA
ATOM     18  C   UNL     1     -35.459  22.082   6.397  0.00  0.00    +0.177 C 
ENDBRANCH   8  17
BRANCH  15  19
ATOM     19  O   UNL     1     -41.711  23.308   0.493  0.00  0.00    -0.503 OA
ATOM     20  H   UNL     1     -42.245  22.623   0.845  0.00  0.00    +0.292 HD
ENDBRANCH  15  19
BRANCH  16  21
ATOM     21  O   UNL     1     -42.113  25.922   1.268  0.00  0.00    -0.503 OA
ATOM     22  H   UNL     1     -42.954  25.678   1.601  0.00  0.00    +0.292 HD
ENDBRANCH  16  21
BRANCH  13  24
ATOM     23  O   UNL     1     -38.935  21.507   0.225  0.00  0.00    -0.245 OA
ATOM     24  C   UNL     1     -39.488  21.862   1.265  0.00  0.00    +0.341 C 
BRANCH  24  25
ATOM     25  O   UNL     1     -40.031  20.981   2.145  0.00  0.00    -0.477 OA
ATOM     26  H   UNL     1     -39.854  21.063   3.061  0.00  0.00    +0.295 HD
ENDBRANCH  24  25
ENDBRANCH  13  24
TORSDOF 5
ENDMDL
MODEL 2
REMARK VINA RESULT:      -6.5      2.073      4.254
REMARK  Name = 5353939
REMARK  5 active torsions:
REMARK  status: ('A' for Active; 'I' for Inactive)
REMARK    1  A    between atoms: C_8  and  O_17
REMARK    2  A    between atoms: C_13  and  C_24
REMARK    3  A    between atoms: C_15  and  O_19
REMARK    4  A    between atoms: C_16  and  O_21
REMARK    5  A    between atoms: C_24  and  O_25
REMARK                            x       y       z     vdW  Elec       q    Type
REMARK                         _______ _______ _______ _____ _____    ______ ____
ROOT
ATOM      1  O   UNL     1     -36.028  26.048   4.619  0.00  0.00    -0.329 OA
ATOM      2  O   UNL     1     -34.998  22.340   3.032  0.00  0.00    -0.458 OA
ATOM      3  O   UNL     1     -38.885  23.503   2.640  0.00  0.00    -0.287 OA
ATOM      4  C   UNL     1     -35.108  25.240   5.355  0.00  0.00    +0.126 C 
ATOM      5  C   UNL     1     -34.433  24.262   4.390  0.00  0.00    +0.094 C 
ATOM      6  C   UNL     1     -36.712  23.994   3.473  0.00  0.00    +0.103 A 
ATOM      7  C   UNL     1     -35.458  23.519   3.584  0.00  0.00    +0.129 A 
ATOM      8  C   UNL     1     -37.136  25.299   4.102  0.00  0.00    +0.266 C 
ATOM      9  C   UNL     1     -37.708  23.177   2.734  0.00  0.00    +0.202 A 
ATOM     10  C   UNL     1     -37.209  21.935   2.121  0.00  0.00    +0.083 A 
ATOM     11  C   UNL     1     -35.874  21.581   2.302  0.00  0.00    +0.151 A 
ATOM     12  C   UNL     1     -34.087  26.161   6.010  0.00  0.00    +0.033 C 
ATOM     13  C   UNL     1     -38.059  21.118   1.370  0.00  0.00    +0.118 C 
ATOM     14  C   UNL     1     -35.379  20.407   1.732  0.00  0.00    +0.077 C 
ATOM     15  C   UNL     1     -37.562  19.945   0.801  0.00  0.00    +0.174 C 
ATOM     16  C   UNL     1     -36.225  19.591   0.981  0.00  0.00    +0.171 C 
ENDROOT
BRANCH   8  17
ATOM     17  O   UNL     1     -37.809  26.088   3.124  0.00  0.00    -0.324 OA
ATOM     18  C   UNL     1     -36.892  26.680   2.218  0.00  0.00    +0.177 C 
ENDBRANCH   8  17
BRANCH  15  19
ATOM     19  O   UNL     1     -38.372  19.133   0.061  0.00  0.00    -0.503 OA
ATOM     20  H   UNL     1     -38.534  19.329  -0.842  0.00  0.00    +0.292 HD
ENDBRANCH  15  19
BRANCH  16  21
ATOM     21  O   UNL     1     -35.729  18.448   0.428  0.00  0.00    -0.503 OA
ATOM     22  H   UNL     1     -35.390  17.769   0.978  0.00  0.00    +0.292 HD
ENDBRANCH  16  21
BRANCH  13  24
ATOM     23  O   UNL     1     -39.916  21.967   0.123  0.00  0.00    -0.245 OA
ATOM     24  C   UNL     1     -39.467  21.429   1.136  0.00  0.00    +0.341 C 
BRANCH  24  25
ATOM     25  O   UNL     1     -40.256  21.054   2.176  0.00  0.00    -0.477 OA
ATOM     26  H   UNL     1     -41.080  20.637   2.014  0.00  0.00    +0.295 HD
ENDBRANCH  24  25
ENDBRANCH  13  24
TORSDOF 5
ENDMDL
MODEL 3
REMARK VINA RESULT:      -6.3      2.235      5.979
REMARK  Name = 5353939
REMARK  5 active torsions:
REMARK  status: ('A' for Active; 'I' for Inactive)
REMARK    1  A    between atoms: C_8  and  O_17
REMARK    2  A    between atoms: C_13  and  C_24
REMARK    3  A    between atoms: C_15  and  O_19
REMARK    4  A    between atoms: C_16  and  O_21
REMARK    5  A    between atoms: C_24  and  O_25
REMARK                            x       y       z     vdW  Elec       q    Type
REMARK                         _______ _______ _______ _____ _____    ______ ____
ROOT
ATOM      1  O   UNL     1     -37.593  19.609   0.306  0.00  0.00    -0.329 OA
ATOM      2  O   UNL     1     -35.281  21.779   3.003  0.00  0.00    -0.458 OA
ATOM      3  O   UNL     1     -38.734  23.518   1.711  0.00  0.00    -0.287 OA
ATOM      4  C   UNL     1     -36.173  19.557   0.159  0.00  0.00    +0.126 C 
ATOM      5  C   UNL     1     -35.528  19.894   1.507  0.00  0.00    +0.094 C 
ATOM      6  C   UNL     1     -37.253  21.660   1.601  0.00  0.00    +0.103 A 
ATOM      7  C   UNL     1     -36.084  21.175   2.056  0.00  0.00    +0.129 A 
ATOM      8  C   UNL     1     -38.078  20.934   0.567  0.00  0.00    +0.266 C 
ATOM      9  C   UNL     1     -37.715  22.974   2.118  0.00  0.00    +0.202 A 
ATOM     10  C   UNL     1     -36.874  23.603   3.149  0.00  0.00    +0.083 A 
ATOM     11  C   UNL     1     -35.697  22.970   3.540  0.00  0.00    +0.151 A 
ATOM     12  C   UNL     1     -35.794  18.155  -0.298  0.00  0.00    +0.033 C 
ATOM     13  C   UNL     1     -37.245  24.820   3.728  0.00  0.00    +0.118 C 
ATOM     14  C   UNL     1     -34.882  23.549   4.514  0.00  0.00    +0.077 C 
ATOM     15  C   UNL     1     -36.429  25.397   4.703  0.00  0.00    +0.174 C 
ATOM     16  C   UNL     1     -35.250  24.762   5.095  0.00  0.00    +0.171 C 
ENDROOT
BRANCH   8  17
ATOM     17  O   UNL     1     -39.426  20.849   1.023  0.00  0.00    -0.324 OA
ATOM     18  C   UNL     1     -40.344  21.002  -0.047  0.00  0.00    +0.177 C 
ENDBRANCH   8  17
BRANCH  15  19
ATOM     19  O   UNL     1     -36.773  26.583   5.284  0.00  0.00    -0.503 OA
ATOM     20  H   UNL     1     -36.113  27.224   5.465  0.00  0.00    +0.292 HD
ENDBRANCH  15  19
BRANCH  16  21
ATOM     21  O   UNL     1     -34.447  25.317   6.046  0.00  0.00    -0.503 OA
ATOM     22  H   UNL     1     -34.484  25.006   6.930  0.00  0.00    +0.292 HD
ENDBRANCH  16  21
BRANCH  13  24
ATOM     23  O   UNL     1     -38.523  26.512   2.621  0.00  0.00    -0.245 OA
ATOM     24  C   UNL     1     -38.467  25.537   3.370  0.00  0.00    +0.341 C 
BRANCH  24  25
ATOM     25  O   UNL     1     -39.567  25.005   3.963  0.00  0.00    -0.477 OA
ATOM     26  H   UNL     1     -39.723  24.082   3.921  0.00  0.00    +0.295 HD
ENDBRANCH  24  25
ENDBRANCH  13  24
TORSDOF 5
ENDMDL
MODEL 4
REMARK VINA RESULT:      -6.2      2.643      5.623
REMARK  Name = 5353939
REMARK  5 active torsions:
REMARK  status: ('A' for Active; 'I' for Inactive)
REMARK    1  A    between atoms: C_8  and  O_17
REMARK    2  A    between atoms: C_13  and  C_24
REMARK    3  A    between atoms: C_15  and  O_19
REMARK    4  A    between atoms: C_16  and  O_21
REMARK    5  A    between atoms: C_24  and  O_25
REMARK                            x       y       z     vdW  Elec       q    Type
REMARK                         _______ _______ _______ _____ _____    ______ ____
ROOT
ATOM      1  O   UNL     1     -35.914  19.027   0.195  0.00  0.00    -0.329 OA
ATOM      2  O   UNL     1     -38.120  22.453   1.046  0.00  0.00    -0.458 OA
ATOM      3  O   UNL     1     -35.121  21.495   3.635  0.00  0.00    -0.287 OA
ATOM      4  C   UNL     1     -37.323  18.989  -0.043  0.00  0.00    +0.126 C 
ATOM      5  C   UNL     1     -37.826  20.423  -0.237  0.00  0.00    +0.094 C 
ATOM      6  C   UNL     1     -36.348  20.927   1.679  0.00  0.00    +0.103 A 
ATOM      7  C   UNL     1     -37.375  21.301   0.894  0.00  0.00    +0.129 A 
ATOM      8  C   UNL     1     -35.577  19.652   1.442  0.00  0.00    +0.266 C 
ATOM      9  C   UNL     1     -35.998  21.793   2.835  0.00  0.00    +0.202 A 
ATOM     10  C   UNL     1     -36.773  23.036   2.978  0.00  0.00    +0.083 A 
ATOM     11  C   UNL     1     -37.797  23.303   2.072  0.00  0.00    +0.151 A 
ATOM     12  C   UNL     1     -37.571  18.145  -1.285  0.00  0.00    +0.033 C 
ATOM     13  C   UNL     1     -36.492  23.937   4.009  0.00  0.00    +0.118 C 
ATOM     14  C   UNL     1     -38.546  24.474   2.190  0.00  0.00    +0.077 C 
ATOM     15  C   UNL     1     -37.243  25.108   4.124  0.00  0.00    +0.174 C 
ATOM     16  C   UNL     1     -38.268  25.376   3.217  0.00  0.00    +0.171 C 
ENDROOT
BRANCH   8  17
ATOM     17  O   UNL     1     -34.182  19.944   1.447  0.00  0.00    -0.324 OA
ATOM     18  C   UNL     1     -33.406  18.759   1.380  0.00  0.00    +0.177 C 
ENDBRANCH   8  17
BRANCH  15  19
ATOM     19  O   UNL     1     -36.984  26.004   5.121  0.00  0.00    -0.503 OA
ATOM     20  H   UNL     1     -37.558  26.061   5.861  0.00  0.00    +0.292 HD
ENDBRANCH  15  19
BRANCH  16  21
ATOM     21  O   UNL     1     -39.006  26.517   3.320  0.00  0.00    -0.503 OA
ATOM     22  H   UNL     1     -39.935  26.466   3.427  0.00  0.00    +0.292 HD
ENDBRANCH  16  21
BRANCH  13  24
ATOM     23  O   UNL     1     -34.305  24.217   4.936  0.00  0.00    -0.245 OA
ATOM     24  C   UNL     1     -35.431  23.724   4.991  0.00  0.00    +0.341 C 
BRANCH  24  25
ATOM     25  O   UNL     1     -35.824  22.906   6.002  0.00  0.00    -0.477 OA
ATOM     26  H   UNL     1     -35.555  22.009   6.011  0.00  0.00    +0.295 HD
ENDBRANCH  24  25
ENDBRANCH  13  24
TORSDOF 5
ENDMDL
MODEL 5
REMARK VINA RESULT:      -6.2      3.189      5.815
REMARK  Name = 5353939
REMARK  5 active torsions:
REMARK  status: ('A' for Active; 'I' for Inactive)
REMARK    1  A    between atoms: C_8  and  O_17
REMARK    2  A    between atoms: C_13  and  C_24
REMARK    3  A    between atoms: C_15  and  O_19
REMARK    4  A    between atoms: C_16  and  O_21
REMARK    5  A    between atoms: C_24  and  O_25
REMARK                            x       y       z     vdW  Elec       q    Type
REMARK                         _______ _______ _______ _____ _____    ______ ____
ROOT
ATOM      1  O   UNL     1     -31.846  29.745   3.926  0.00  0.00    -0.329 OA
ATOM      2  O   UNL     1     -33.385  26.251   5.583  0.00  0.00    -0.458 OA
ATOM      3  O   UNL     1     -35.430  27.868   2.449  0.00  0.00    -0.287 OA
ATOM      4  C   UNL     1     -31.788  29.599   5.346  0.00  0.00    +0.126 C 
ATOM      5  C   UNL     1     -31.837  28.107   5.688  0.00  0.00    +0.094 C 
ATOM      6  C   UNL     1     -33.594  28.029   3.951  0.00  0.00    +0.103 A 
ATOM      7  C   UNL     1     -32.999  27.444   5.007  0.00  0.00    +0.129 A 
ATOM      8  C   UNL     1     -33.106  29.336   3.375  0.00  0.00    +0.266 C 
ATOM      9  C   UNL     1     -34.792  27.372   3.369  0.00  0.00    +0.202 A 
ATOM     10  C   UNL     1     -35.185  26.084   3.964  0.00  0.00    +0.083 A 
ATOM     11  C   UNL     1     -34.457  25.588   5.043  0.00  0.00    +0.151 A 
ATOM     12  C   UNL     1     -30.494  30.234   5.836  0.00  0.00    +0.033 C 
ATOM     13  C   UNL     1     -36.273  25.367   3.459  0.00  0.00    +0.118 C 
ATOM     14  C   UNL     1     -34.812  24.371   5.625  0.00  0.00    +0.077 C 
ATOM     15  C   UNL     1     -36.626  24.149   4.042  0.00  0.00    +0.174 C 
ATOM     16  C   UNL     1     -35.897  23.652   5.123  0.00  0.00    +0.171 C 
ENDROOT
BRANCH   8  17
ATOM     17  O   UNL     1     -32.967  29.197   1.963  0.00  0.00    -0.324 OA
ATOM     18  C   UNL     1     -31.699  28.662   1.619  0.00  0.00    +0.177 C 
ENDBRANCH   8  17
BRANCH  15  19
ATOM     19  O   UNL     1     -37.684  23.430   3.564  0.00  0.00    -0.503 OA
ATOM     20  H   UNL     1     -37.711  22.500   3.685  0.00  0.00    +0.292 HD
ENDBRANCH  15  19
BRANCH  16  21
ATOM     21  O   UNL     1     -36.234  22.463   5.698  0.00  0.00    -0.503 OA
ATOM     22  H   UNL     1     -37.114  22.312   5.982  0.00  0.00    +0.292 HD
ENDBRANCH  16  21
BRANCH  13  24
ATOM     23  O   UNL     1     -36.874  25.532   1.150  0.00  0.00    -0.245 OA
ATOM     24  C   UNL     1     -37.077  25.824   2.328  0.00  0.00    +0.341 C 
BRANCH  24  25
ATOM     25  O   UNL     1     -38.103  26.625   2.718  0.00  0.00    -0.477 OA
ATOM     26  H   UNL     1     -38.061  27.075   3.538  0.00  0.00    +0.295 HD
ENDBRANCH  24  25
ENDBRANCH  13  24
TORSDOF 5
ENDMDL
MODEL 6
REMARK VINA RESULT:      -6.1      2.341      4.012
REMARK  Name = 5353939
REMARK  5 active torsions:
REMARK  status: ('A' for Active; 'I' for Inactive)
REMARK    1  A    between atoms: C_8  and  O_17
REMARK    2  A    between atoms: C_13  and  C_24
REMARK    3  A    between atoms: C_15  and  O_19
REMARK    4  A    between atoms: C_16  and  O_21
REMARK    5  A    between atoms: C_24  and  O_25
REMARK                            x       y       z     vdW  Elec       q    Type
REMARK                         _______ _______ _______ _____ _____    ______ ____
ROOT
ATOM      1  O   UNL     1     -33.257  28.479   4.536  0.00  0.00    -0.329 OA
ATOM      2  O   UNL     1     -36.342  26.880   2.244  0.00  0.00    -0.458 OA
ATOM      3  O   UNL     1     -34.334  24.311   4.691  0.00  0.00    -0.287 OA
ATOM      4  C   UNL     1     -33.409  28.956   3.198  0.00  0.00    +0.126 C 
ATOM      5  C   UNL     1     -34.856  28.720   2.755  0.00  0.00    +0.094 C 
ATOM      6  C   UNL     1     -34.563  26.524   3.849  0.00  0.00    +0.103 A 
ATOM      7  C   UNL     1     -35.259  27.294   2.993  0.00  0.00    +0.129 A 
ATOM      8  C   UNL     1     -33.391  27.054   4.638  0.00  0.00    +0.266 C 
ATOM      9  C   UNL     1     -34.952  25.096   3.983  0.00  0.00    +0.202 A 
ATOM     10  C   UNL     1     -36.127  24.664   3.208  0.00  0.00    +0.083 A 
ATOM     11  C   UNL     1     -36.763  25.582   2.377  0.00  0.00    +0.151 A 
ATOM     12  C   UNL     1     -33.062  30.438   3.180  0.00  0.00    +0.033 C 
ATOM     13  C   UNL     1     -36.597  23.351   3.298  0.00  0.00    +0.118 C 
ATOM     14  C   UNL     1     -37.876  25.194   1.630  0.00  0.00    +0.077 C 
ATOM     15  C   UNL     1     -37.711  22.965   2.550  0.00  0.00    +0.174 C 
ATOM     16  C   UNL     1     -38.350  23.885   1.718  0.00  0.00    +0.171 C 
ENDROOT
BRANCH   8  17
ATOM     17  O   UNL     1     -33.559  26.705   6.010  0.00  0.00    -0.324 OA
ATOM     18  C   UNL     1     -32.571  27.318   6.823  0.00  0.00    +0.177 C 
ENDBRANCH   8  17
BRANCH  15  19
ATOM     19  O   UNL     1     -38.191  21.689   2.625  0.00  0.00    -0.503 OA
ATOM     20  H   UNL     1     -38.467  21.340   3.450  0.00  0.00    +0.292 HD
ENDBRANCH  15  19
BRANCH  16  21
ATOM     21  O   UNL     1     -39.439  23.519   0.986  0.00  0.00    -0.503 OA
ATOM     22  H   UNL     1     -40.218  23.228   1.417  0.00  0.00    +0.292 HD
ENDBRANCH  16  21
BRANCH  13  24
ATOM     23  O   UNL     1     -35.271  21.413   3.756  0.00  0.00    -0.245 OA
ATOM     24  C   UNL     1     -35.982  22.337   4.151  0.00  0.00    +0.341 C 
BRANCH  24  25
ATOM     25  O   UNL     1     -36.280  22.521   5.464  0.00  0.00    -0.477 OA
ATOM     26  H   UNL     1     -36.270  23.383   5.831  0.00  0.00    +0.295 HD
ENDBRANCH  24  25
ENDBRANCH  13  24
TORSDOF 5
ENDMDL
MODEL 7
REMARK VINA RESULT:      -5.8      3.691      7.693
REMARK  Name = 5353939
REMARK  5 active torsions:
REMARK  status: ('A' for Active; 'I' for Inactive)
REMARK    1  A    between atoms: C_8  and  O_17
REMARK    2  A    between atoms: C_13  and  C_24
REMARK    3  A    between atoms: C_15  and  O_19
REMARK    4  A    between atoms: C_16  and  O_21
REMARK    5  A    between atoms: C_24  and  O_25
REMARK                            x       y       z     vdW  Elec       q    Type
REMARK                         _______ _______ _______ _____ _____    ______ ____
ROOT
ATOM      1  O   UNL     1     -36.656  24.140   4.417  0.00  0.00    -0.329 OA
ATOM      2  O   UNL     1     -34.938  27.490   2.641  0.00  0.00    -0.458 OA
ATOM      3  O   UNL     1     -33.446  26.345   6.258  0.00  0.00    -0.287 OA
ATOM      4  C   UNL     1     -37.520  25.049   3.733  0.00  0.00    +0.126 C 
ATOM      5  C   UNL     1     -36.696  25.829   2.704  0.00  0.00    +0.094 C 
ATOM      6  C   UNL     1     -35.032  25.971   4.526  0.00  0.00    +0.103 A 
ATOM      7  C   UNL     1     -35.483  26.436   3.346  0.00  0.00    +0.129 A 
ATOM      8  C   UNL     1     -35.681  24.806   5.232  0.00  0.00    +0.266 C 
ATOM      9  C   UNL     1     -33.879  26.663   5.157  0.00  0.00    +0.202 A 
ATOM     10  C   UNL     1     -33.279  27.767   4.390  0.00  0.00    +0.083 A 
ATOM     11  C   UNL     1     -33.842  28.123   3.167  0.00  0.00    +0.151 A 
ATOM     12  C   UNL     1     -38.620  24.241   3.059  0.00  0.00    +0.033 C 
ATOM     13  C   UNL     1     -32.165  28.453   4.880  0.00  0.00    +0.118 C 
ATOM     14  C   UNL     1     -33.292  29.169   2.424  0.00  0.00    +0.077 C 
ATOM     15  C   UNL     1     -31.616  29.498   4.134  0.00  0.00    +0.174 C 
ATOM     16  C   UNL     1     -32.179  29.855   2.909  0.00  0.00    +0.171 C 
ENDROOT
BRANCH   8  17
ATOM     17  O   UNL     1     -34.674  23.868   5.603  0.00  0.00    -0.324 OA
ATOM     18  C   UNL     1     -35.244  22.648   6.048  0.00  0.00    +0.177 C 
ENDBRANCH   8  17
BRANCH  15  19
ATOM     19  O   UNL     1     -30.526  30.181   4.591  0.00  0.00    -0.503 OA
ATOM     20  H   UNL     1     -29.748  30.225   4.069  0.00  0.00    +0.292 HD
ENDBRANCH  15  19
BRANCH  16  21
ATOM     21  O   UNL     1     -31.650  30.873   2.173  0.00  0.00    -0.503 OA
ATOM     22  H   UNL     1     -30.754  30.839   1.902  0.00  0.00    +0.292 HD
ENDBRANCH  16  21
BRANCH  13  24
ATOM     23  O   UNL     1     -30.450  27.537   6.273  0.00  0.00    -0.245 OA
ATOM     24  C   UNL     1     -31.521  28.131   6.151  0.00  0.00    +0.341 C 
BRANCH  24  25
ATOM     25  O   UNL     1     -32.243  28.565   7.217  0.00  0.00    -0.477 OA
ATOM     26  H   UNL     1     -32.074  28.217   8.071  0.00  0.00    +0.295 HD
ENDBRANCH  24  25
ENDBRANCH  13  24
TORSDOF 5
ENDMDL
MODEL 8
REMARK VINA RESULT:      -5.8      3.945      6.018
REMARK  Name = 5353939
REMARK  5 active torsions:
REMARK  status: ('A' for Active; 'I' for Inactive)
REMARK    1  A    between atoms: C_8  and  O_17
REMARK    2  A    between atoms: C_13  and  C_24
REMARK    3  A    between atoms: C_15  and  O_19
REMARK    4  A    between atoms: C_16  and  O_21
REMARK    5  A    between atoms: C_24  and  O_25
REMARK                            x       y       z     vdW  Elec       q    Type
REMARK                         _______ _______ _______ _____ _____    ______ ____
ROOT
ATOM      1  O   UNL     1     -34.902  17.398  -0.210  0.00  0.00    -0.329 OA
ATOM      2  O   UNL     1     -34.815  20.739   2.272  0.00  0.00    -0.458 OA
ATOM      3  O   UNL     1     -38.243  20.091   0.163  0.00  0.00    -0.287 OA
ATOM      4  C   UNL     1     -33.685  18.144  -0.138  0.00  0.00    +0.126 C 
ATOM      5  C   UNL     1     -33.658  18.912   1.186  0.00  0.00    +0.094 C 
ATOM      6  C   UNL     1     -36.024  19.395   0.659  0.00  0.00    +0.103 A 
ATOM      7  C   UNL     1     -34.922  19.700   1.369  0.00  0.00    +0.129 A 
ATOM      8  C   UNL     1     -36.063  18.236  -0.306  0.00  0.00    +0.266 C 
ATOM      9  C   UNL     1     -37.221  20.260   0.817  0.00  0.00    +0.202 A 
ATOM     10  C   UNL     1     -37.116  21.348   1.802  0.00  0.00    +0.083 A 
ATOM     11  C   UNL     1     -35.914  21.530   2.482  0.00  0.00    +0.151 A 
ATOM     12  C   UNL     1     -32.523  17.165  -0.232  0.00  0.00    +0.033 C 
ATOM     13  C   UNL     1     -38.202  22.191   2.053  0.00  0.00    +0.118 C 
ATOM     14  C   UNL     1     -35.790  22.557   3.419  0.00  0.00    +0.077 C 
ATOM     15  C   UNL     1     -38.076  23.217   2.991  0.00  0.00    +0.174 C 
ATOM     16  C   UNL     1     -36.873  23.399   3.673  0.00  0.00    +0.171 C 
ENDROOT
BRANCH   8  17
ATOM     17  O   UNL     1     -37.221  17.448  -0.040  0.00  0.00    -0.324 OA
ATOM     18  C   UNL     1     -36.994  16.080  -0.338  0.00  0.00    +0.177 C 
ENDBRANCH   8  17
BRANCH  15  19
ATOM     19  O   UNL     1     -39.125  24.050   3.255  0.00  0.00    -0.503 OA
ATOM     20  H   UNL     1     -39.014  24.771   3.845  0.00  0.00    +0.292 HD
ENDBRANCH  15  19
BRANCH  16  21
ATOM     21  O   UNL     1     -36.740  24.397   4.591  0.00  0.00    -0.503 OA
ATOM     22  H   UNL     1     -35.945  24.891   4.635  0.00  0.00    +0.292 HD
ENDBRANCH  16  21
BRANCH  13  24
ATOM     23  O   UNL     1     -39.882  22.754   0.446  0.00  0.00    -0.245 OA
ATOM     24  C   UNL     1     -39.493  22.055   1.381  0.00  0.00    +0.341 C 
BRANCH  24  25
ATOM     25  O   UNL     1     -40.242  21.051   1.906  0.00  0.00    -0.477 OA
ATOM     26  H   UNL     1     -40.675  20.443   1.340  0.00  0.00    +0.295 HD
ENDBRANCH  24  25
ENDBRANCH  13  24
TORSDOF 5
ENDMDL
MODEL 9
REMARK VINA RESULT:      -5.8      3.622      5.599
REMARK  Name = 5353939
REMARK  5 active torsions:
REMARK  status: ('A' for Active; 'I' for Inactive)
REMARK    1  A    between atoms: C_8  and  O_17
REMARK    2  A    between atoms: C_13  and  C_24
REMARK    3  A    between atoms: C_15  and  O_19
REMARK    4  A    between atoms: C_16  and  O_21
REMARK    5  A    between atoms: C_24  and  O_25
REMARK                            x       y       z     vdW  Elec       q    Type
REMARK                         _______ _______ _______ _____ _____    ______ ____
ROOT
ATOM      1  O   UNL     1     -31.841  28.772   3.313  0.00  0.00    -0.329 OA
ATOM      2  O   UNL     1     -33.731  25.856   5.605  0.00  0.00    -0.458 OA
ATOM      3  O   UNL     1     -34.127  25.571   1.558  0.00  0.00    -0.287 OA
ATOM      4  C   UNL     1     -32.463  29.182   4.533  0.00  0.00    +0.126 C 
ATOM      5  C   UNL     1     -32.562  27.970   5.464  0.00  0.00    +0.094 C 
ATOM      6  C   UNL     1     -33.256  26.775   3.415  0.00  0.00    +0.103 A 
ATOM      7  C   UNL     1     -33.203  26.810   4.758  0.00  0.00    +0.129 A 
ATOM      8  C   UNL     1     -32.647  27.857   2.557  0.00  0.00    +0.266 C 
ATOM      9  C   UNL     1     -33.976  25.646   2.771  0.00  0.00    +0.202 A 
ATOM     10  C   UNL     1     -34.512  24.614   3.673  0.00  0.00    +0.083 A 
ATOM     11  C   UNL     1     -34.360  24.772   5.048  0.00  0.00    +0.151 A 
ATOM     12  C   UNL     1     -31.614  30.283   5.151  0.00  0.00    +0.033 C 
ATOM     13  C   UNL     1     -35.169  23.491   3.162  0.00  0.00    +0.118 C 
ATOM     14  C   UNL     1     -34.862  23.808   5.923  0.00  0.00    +0.077 C 
ATOM     15  C   UNL     1     -35.670  22.527   4.038  0.00  0.00    +0.174 C 
ATOM     16  C   UNL     1     -35.517  22.686   5.416  0.00  0.00    +0.171 C 
ENDROOT
BRANCH   8  17
ATOM     17  O   UNL     1     -31.837  27.252   1.552  0.00  0.00    -0.324 OA
ATOM     18  C   UNL     1     -30.546  26.938   2.050  0.00  0.00    +0.177 C 
ENDBRANCH   8  17
BRANCH  15  19
ATOM     19  O   UNL     1     -36.312  21.421   3.562  0.00  0.00    -0.503 OA
ATOM     20  H   UNL     1     -36.148  21.123   2.688  0.00  0.00    +0.292 HD
ENDBRANCH  15  19
BRANCH  16  21
ATOM     21  O   UNL     1     -36.002  21.750   6.280  0.00  0.00    -0.503 OA
ATOM     22  H   UNL     1     -36.062  20.853   6.015  0.00  0.00    +0.292 HD
ENDBRANCH  16  21
BRANCH  13  24
ATOM     23  O   UNL     1     -34.675  22.506   1.038  0.00  0.00    -0.245 OA
ATOM     24  C   UNL     1     -35.361  23.257   1.732  0.00  0.00    +0.341 C 
BRANCH  24  25
ATOM     25  O   UNL     1     -36.402  23.970   1.230  0.00  0.00    -0.477 OA
ATOM     26  H   UNL     1     -36.284  24.498   0.465  0.00  0.00    +0.295 HD
ENDBRANCH  24  25
ENDBRANCH  13  24
TORSDOF 5
ENDMDL
