MODEL 1
REMARK VINA RESULT:      -5.6      0.000      0.000
REMARK  Name = 198215
REMARK  4 active torsions:
REMARK  status: ('A' for Active; 'I' for Inactive)
REMARK    1  A    between atoms: C_8  and  C_14
REMARK    2  A    between atoms: C_9  and  C_21
REMARK    3  A    between atoms: C_14  and  C_15
REMARK    4  A    between atoms: C_21  and  O_22
REMARK                            x       y       z     vdW  Elec       q    Type
REMARK                         _______ _______ _______ _____ _____    ______ ____
ROOT
ATOM      1  S   UNL     1     -34.255  24.590   2.743  0.00  0.00    -0.045 S 
ATOM      2  S   UNL     1     -34.710  21.894   1.102  0.00  0.00    -0.043 S 
ATOM      3  S   UNL     1     -34.589  23.917   0.841  0.00  0.00    -0.019 S 
ATOM      4  O   UNL     1     -37.681  24.996   2.452  0.00  0.00    -0.272 OA
ATOM      5  O   UNL     1     -35.180  20.549   4.114  0.00  0.00    -0.272 OA
ATOM      6  N   UNL     1     -35.608  22.815   4.353  0.00  0.00    -0.262 N 
ATOM      7  N   UNL     1     -37.188  22.746   2.135  0.00  0.00    -0.261 N 
ATOM      8  C   UNL     1     -35.791  24.112   3.666  0.00  0.00    +0.183 C 
ATOM      9  C   UNL     1     -36.170  21.674   2.221  0.00  0.00    +0.206 C 
ATOM     10  C   UNL     1     -36.999  24.005   2.729  0.00  0.00    +0.254 C 
ATOM     11  C   UNL     1     -35.634  21.601   3.658  0.00  0.00    +0.256 C 
ATOM     12  C   UNL     1     -35.134  22.804   5.738  0.00  0.00    +0.116 C 
ATOM     13  C   UNL     1     -38.308  22.586   1.206  0.00  0.00    +0.116 C 
ENDROOT
BRANCH   8  14
ATOM     14  C   UNL     1     -36.059  25.280   4.641  0.00  0.00    +0.065 C 
BRANCH  14  15
ATOM     15  C   UNL     1     -34.906  26.235   4.664  0.00  0.00    -0.019 C 
ATOM     16  C   UNL     1     -34.762  27.168   3.640  0.00  0.00    -0.004 C 
ATOM     17  C   UNL     1     -33.988  26.185   5.708  0.00  0.00    -0.004 C 
ATOM     18  C   UNL     1     -33.688  28.058   3.662  0.00  0.00    -0.000 C 
ATOM     19  C   UNL     1     -32.914  27.075   5.729  0.00  0.00    -0.000 C 
ATOM     20  C   UNL     1     -32.765  28.012   4.706  0.00  0.00    -0.000 C 
ENDBRANCH  14  15
ENDBRANCH   8  14
BRANCH   9  21
ATOM     21  C   UNL     1     -36.743  20.281   1.874  0.00  0.00    +0.176 C 
BRANCH  21  22
ATOM     22  O   UNL     1     -35.665  19.450   1.508  0.00  0.00    -0.379 OA
ATOM     23  H   UNL     1     -35.683  18.642   2.045  0.00  0.00    +0.211 HD
ENDBRANCH  21  22
ENDBRANCH   9  21
TORSDOF 4
ENDMDL
MODEL 2
REMARK VINA RESULT:      -5.5      2.537      6.150
REMARK  Name = 198215
REMARK  4 active torsions:
REMARK  status: ('A' for Active; 'I' for Inactive)
REMARK    1  A    between atoms: C_8  and  C_14
REMARK    2  A    between atoms: C_9  and  C_21
REMARK    3  A    between atoms: C_14  and  C_15
REMARK    4  A    between atoms: C_21  and  O_22
REMARK                            x       y       z     vdW  Elec       q    Type
REMARK                         _______ _______ _______ _____ _____    ______ ____
ROOT
ATOM      1  S   UNL     1     -34.968  24.242   1.674  0.00  0.00    -0.045 S 
ATOM      2  S   UNL     1     -33.824  27.083   0.785  0.00  0.00    -0.043 S 
ATOM      3  S   UNL     1     -33.212  25.178   1.201  0.00  0.00    -0.019 S 
ATOM      4  O   UNL     1     -33.750  25.064   4.809  0.00  0.00    -0.272 OA
ATOM      5  O   UNL     1     -36.823  28.194   1.719  0.00  0.00    -0.272 OA
ATOM      6  N   UNL     1     -36.500  26.200   2.856  0.00  0.00    -0.262 N 
ATOM      7  N   UNL     1     -34.013  27.029   3.596  0.00  0.00    -0.261 N 
ATOM      8  C   UNL     1     -35.549  25.120   3.201  0.00  0.00    +0.183 C 
ATOM      9  C   UNL     1     -34.560  27.674   2.380  0.00  0.00    +0.206 C 
ATOM     10  C   UNL     1     -34.378  25.728   3.980  0.00  0.00    +0.254 C 
ATOM     11  C   UNL     1     -36.071  27.413   2.307  0.00  0.00    +0.256 C 
ATOM     12  C   UNL     1     -37.934  25.908   2.841  0.00  0.00    +0.116 C 
ATOM     13  C   UNL     1     -32.881  27.656   4.281  0.00  0.00    +0.116 C 
ENDROOT
BRANCH   8  14
ATOM     14  C   UNL     1     -36.179  24.022   4.087  0.00  0.00    +0.065 C 
BRANCH  14  15
ATOM     15  C   UNL     1     -36.303  22.732   3.336  0.00  0.00    -0.019 C 
ATOM     16  C   UNL     1     -35.289  21.782   3.423  0.00  0.00    -0.004 C 
ATOM     17  C   UNL     1     -37.430  22.492   2.556  0.00  0.00    -0.004 C 
ATOM     18  C   UNL     1     -35.404  20.580   2.724  0.00  0.00    -0.000 C 
ATOM     19  C   UNL     1     -37.545  21.291   1.857  0.00  0.00    -0.000 C 
ATOM     20  C   UNL     1     -36.532  20.335   1.941  0.00  0.00    -0.000 C 
ENDBRANCH  14  15
ENDBRANCH   8  14
BRANCH   9  21
ATOM     21  C   UNL     1     -34.358  29.206   2.378  0.00  0.00    +0.176 C 
BRANCH  21  22
ATOM     22  O   UNL     1     -35.277  29.764   3.291  0.00  0.00    -0.379 OA
ATOM     23  H   UNL     1     -35.415  29.148   4.027  0.00  0.00    +0.211 HD
ENDBRANCH  21  22
ENDBRANCH   9  21
TORSDOF 4
ENDMDL
MODEL 3
REMARK VINA RESULT:      -5.5      2.410      6.090
REMARK  Name = 198215
REMARK  4 active torsions:
REMARK  status: ('A' for Active; 'I' for Inactive)
REMARK    1  A    between atoms: C_8  and  C_14
REMARK    2  A    between atoms: C_9  and  C_21
REMARK    3  A    between atoms: C_14  and  C_15
REMARK    4  A    between atoms: C_21  and  O_22
REMARK                            x       y       z     vdW  Elec       q    Type
REMARK                         _______ _______ _______ _____ _____    ______ ____
ROOT
ATOM      1  S   UNL     1     -35.300  22.262   0.750  0.00  0.00    -0.045 S 
ATOM      2  S   UNL     1     -36.136  25.250   1.491  0.00  0.00    -0.043 S 
ATOM      3  S   UNL     1     -34.501  24.026   1.408  0.00  0.00    -0.019 S 
ATOM      4  O   UNL     1     -35.214  21.754   4.173  0.00  0.00    -0.272 OA
ATOM      5  O   UNL     1     -39.234  24.026   1.442  0.00  0.00    -0.272 OA
ATOM      6  N   UNL     1     -37.839  22.213   1.814  0.00  0.00    -0.262 N 
ATOM      7  N   UNL     1     -36.537  23.618   3.751  0.00  0.00    -0.261 N 
ATOM      8  C   UNL     1     -36.461  21.760   2.107  0.00  0.00    +0.183 C 
ATOM      9  C   UNL     1     -37.240  24.438   2.738  0.00  0.00    +0.206 C 
ATOM     10  C   UNL     1     -36.030  22.341   3.458  0.00  0.00    +0.254 C 
ATOM     11  C   UNL     1     -38.223  23.550   1.964  0.00  0.00    +0.256 C 
ATOM     12  C   UNL     1     -38.750  21.310   1.109  0.00  0.00    +0.116 C 
ATOM     13  C   UNL     1     -36.139  24.241   5.014  0.00  0.00    +0.116 C 
ENDROOT
BRANCH   8  14
ATOM     14  C   UNL     1     -36.338  20.223   2.199  0.00  0.00    +0.065 C 
BRANCH  14  15
ATOM     15  C   UNL     1     -35.288  19.712   1.261  0.00  0.00    -0.019 C 
ATOM     16  C   UNL     1     -33.966  19.618   1.689  0.00  0.00    -0.004 C 
ATOM     17  C   UNL     1     -35.640  19.334  -0.031  0.00  0.00    -0.004 C 
ATOM     18  C   UNL     1     -32.989  19.141   0.815  0.00  0.00    -0.000 C 
ATOM     19  C   UNL     1     -34.662  18.858  -0.904  0.00  0.00    -0.000 C 
ATOM     20  C   UNL     1     -33.337  18.761  -0.481  0.00  0.00    -0.000 C 
ENDBRANCH  14  15
ENDBRANCH   8  14
BRANCH   9  21
ATOM     21  C   UNL     1     -38.057  25.588   3.368  0.00  0.00    +0.176 C 
BRANCH  21  22
ATOM     22  O   UNL     1     -39.206  25.026   3.962  0.00  0.00    -0.379 OA
ATOM     23  H   UNL     1     -39.579  25.653   4.601  0.00  0.00    +0.211 HD
ENDBRANCH  21  22
ENDBRANCH   9  21
TORSDOF 4
ENDMDL
MODEL 4
REMARK VINA RESULT:      -5.3      3.091      5.318
REMARK  Name = 198215
REMARK  4 active torsions:
REMARK  status: ('A' for Active; 'I' for Inactive)
REMARK    1  A    between atoms: C_8  and  C_14
REMARK    2  A    between atoms: C_9  and  C_21
REMARK    3  A    between atoms: C_14  and  C_15
REMARK    4  A    between atoms: C_21  and  O_22
REMARK                            x       y       z     vdW  Elec       q    Type
REMARK                         _______ _______ _______ _____ _____    ______ ____
ROOT
ATOM      1  S   UNL     1     -37.490  24.583   3.550  0.00  0.00    -0.045 S 
ATOM      2  S   UNL     1     -39.815  26.179   2.061  0.00  0.00    -0.043 S 
ATOM      3  S   UNL     1     -39.413  24.356   2.892  0.00  0.00    -0.019 S 
ATOM      4  O   UNL     1     -37.001  23.034   0.493  0.00  0.00    -0.272 OA
ATOM      5  O   UNL     1     -37.382  28.324   1.301  0.00  0.00    -0.272 OA
ATOM      6  N   UNL     1     -36.336  26.302   1.735  0.00  0.00    -0.262 N 
ATOM      7  N   UNL     1     -38.125  25.034   0.120  0.00  0.00    -0.261 N 
ATOM      8  C   UNL     1     -36.512  24.856   1.998  0.00  0.00    +0.183 C 
ATOM      9  C   UNL     1     -38.584  26.324   0.683  0.00  0.00    +0.206 C 
ATOM     10  C   UNL     1     -37.195  24.217   0.784  0.00  0.00    +0.254 C 
ATOM     11  C   UNL     1     -37.375  27.093   1.234  0.00  0.00    +0.256 C 
ATOM     12  C   UNL     1     -35.143  26.978   2.248  0.00  0.00    +0.116 C 
ATOM     13  C   UNL     1     -38.835  24.472  -1.031  0.00  0.00    +0.116 C 
ENDROOT
BRANCH   8  14
ATOM     14  C   UNL     1     -35.175  24.116   2.224  0.00  0.00    +0.065 C 
BRANCH  14  15
ATOM     15  C   UNL     1     -35.149  23.453   3.566  0.00  0.00    -0.019 C 
ATOM     16  C   UNL     1     -34.783  24.186   4.692  0.00  0.00    -0.004 C 
ATOM     17  C   UNL     1     -35.492  22.110   3.680  0.00  0.00    -0.004 C 
ATOM     18  C   UNL     1     -34.759  23.569   5.943  0.00  0.00    -0.000 C 
ATOM     19  C   UNL     1     -35.468  21.492   4.931  0.00  0.00    -0.000 C 
ATOM     20  C   UNL     1     -35.102  22.223   6.062  0.00  0.00    -0.000 C 
ENDBRANCH  14  15
ENDBRANCH   8  14
BRANCH   9  21
ATOM     21  C   UNL     1     -39.260  27.227  -0.373  0.00  0.00    +0.176 C 
BRANCH  21  22
ATOM     22  O   UNL     1     -40.087  28.144   0.308  0.00  0.00    -0.379 OA
ATOM     23  H   UNL     1     -40.405  28.817  -0.314  0.00  0.00    +0.211 HD
ENDBRANCH  21  22
ENDBRANCH   9  21
TORSDOF 4
ENDMDL
MODEL 5
REMARK VINA RESULT:      -5.1      2.555      3.289
REMARK  Name = 198215
REMARK  4 active torsions:
REMARK  status: ('A' for Active; 'I' for Inactive)
REMARK    1  A    between atoms: C_8  and  C_14
REMARK    2  A    between atoms: C_9  and  C_21
REMARK    3  A    between atoms: C_14  and  C_15
REMARK    4  A    between atoms: C_21  and  O_22
REMARK                            x       y       z     vdW  Elec       q    Type
REMARK                         _______ _______ _______ _____ _____    ______ ____
ROOT
ATOM      1  S   UNL     1     -36.153  22.641   3.020  0.00  0.00    -0.045 S 
ATOM      2  S   UNL     1     -36.886  20.014   1.368  0.00  0.00    -0.043 S 
ATOM      3  S   UNL     1     -35.280  21.142   1.936  0.00  0.00    -0.019 S 
ATOM      4  O   UNL     1     -35.806  24.136  -0.083  0.00  0.00    -0.272 OA
ATOM      5  O   UNL     1     -39.996  21.199   1.531  0.00  0.00    -0.272 OA
ATOM      6  N   UNL     1     -38.600  23.028   1.821  0.00  0.00    -0.262 N 
ATOM      7  N   UNL     1     -37.132  22.244  -0.335  0.00  0.00    -0.261 N 
ATOM      8  C   UNL     1     -37.210  23.533   1.784  0.00  0.00    +0.183 C 
ATOM      9  C   UNL     1     -37.901  21.168   0.333  0.00  0.00    +0.206 C 
ATOM     10  C   UNL     1     -36.668  23.372   0.360  0.00  0.00    +0.254 C 
ATOM     11  C   UNL     1     -38.954  21.798   1.254  0.00  0.00    +0.256 C 
ATOM     12  C   UNL     1     -39.576  23.691   2.687  0.00  0.00    +0.116 C 
ATOM     13  C   UNL     1     -36.629  22.016  -1.691  0.00  0.00    +0.116 C 
ENDROOT
BRANCH   8  14
ATOM     14  C   UNL     1     -37.101  25.028   2.159  0.00  0.00    +0.065 C 
BRANCH  14  15
ATOM     15  C   UNL     1     -36.152  25.226   3.300  0.00  0.00    -0.019 C 
ATOM     16  C   UNL     1     -34.787  25.341   3.052  0.00  0.00    -0.004 C 
ATOM     17  C   UNL     1     -36.640  25.296   4.601  0.00  0.00    -0.004 C 
ATOM     18  C   UNL     1     -33.903  25.526   4.115  0.00  0.00    -0.000 C 
ATOM     19  C   UNL     1     -35.756  25.481   5.664  0.00  0.00    -0.000 C 
ATOM     20  C   UNL     1     -34.387  25.596   5.420  0.00  0.00    -0.000 C 
ENDBRANCH  14  15
ENDBRANCH   8  14
BRANCH   9  21
ATOM     21  C   UNL     1     -38.651  20.263  -0.671  0.00  0.00    +0.176 C 
BRANCH  21  22
ATOM     22  O   UNL     1     -38.706  18.965  -0.123  0.00  0.00    -0.379 OA
ATOM     23  H   UNL     1     -37.929  18.817   0.439  0.00  0.00    +0.211 HD
ENDBRANCH  21  22
ENDBRANCH   9  21
TORSDOF 4
ENDMDL
MODEL 6
REMARK VINA RESULT:      -5.1      1.884      2.820
REMARK  Name = 198215
REMARK  4 active torsions:
REMARK  status: ('A' for Active; 'I' for Inactive)
REMARK    1  A    between atoms: C_8  and  C_14
REMARK    2  A    between atoms: C_9  and  C_21
REMARK    3  A    between atoms: C_14  and  C_15
REMARK    4  A    between atoms: C_21  and  O_22
REMARK                            x       y       z     vdW  Elec       q    Type
REMARK                         _______ _______ _______ _____ _____    ______ ____
ROOT
ATOM      1  S   UNL     1     -35.639  23.924   1.901  0.00  0.00    -0.045 S 
ATOM      2  S   UNL     1     -37.011  23.035  -0.838  0.00  0.00    -0.043 S 
ATOM      3  S   UNL     1     -36.859  24.637   0.422  0.00  0.00    -0.019 S 
ATOM      4  O   UNL     1     -38.774  23.433   3.286  0.00  0.00    -0.272 OA
ATOM      5  O   UNL     1     -36.160  19.964   0.135  0.00  0.00    -0.272 OA
ATOM      6  N   UNL     1     -36.246  21.244   2.067  0.00  0.00    -0.262 N 
ATOM      7  N   UNL     1     -38.665  22.234   1.297  0.00  0.00    -0.261 N 
ATOM      8  C   UNL     1     -36.617  22.545   2.665  0.00  0.00    +0.183 C 
ATOM      9  C   UNL     1     -37.811  21.724   0.199  0.00  0.00    +0.206 C 
ATOM     10  C   UNL     1     -38.124  22.757   2.483  0.00  0.00    +0.254 C 
ATOM     11  C   UNL     1     -36.685  20.866   0.793  0.00  0.00    +0.256 C 
ATOM     12  C   UNL     1     -35.194  20.445   2.696  0.00  0.00    +0.116 C 
ATOM     13  C   UNL     1     -40.094  22.428   1.049  0.00  0.00    +0.116 C 
ENDROOT
BRANCH   8  14
ATOM     14  C   UNL     1     -36.314  22.622   4.178  0.00  0.00    +0.065 C 
BRANCH  14  15
ATOM     15  C   UNL     1     -35.693  23.937   4.534  0.00  0.00    -0.019 C 
ATOM     16  C   UNL     1     -34.308  24.074   4.519  0.00  0.00    -0.004 C 
ATOM     17  C   UNL     1     -36.505  25.014   4.878  0.00  0.00    -0.004 C 
ATOM     18  C   UNL     1     -33.730  25.299   4.851  0.00  0.00    -0.000 C 
ATOM     19  C   UNL     1     -35.927  26.239   5.210  0.00  0.00    -0.000 C 
ATOM     20  C   UNL     1     -34.539  26.381   5.197  0.00  0.00    -0.000 C 
ENDBRANCH  14  15
ENDBRANCH   8  14
BRANCH   9  21
ATOM     21  C   UNL     1     -38.590  20.836  -0.796  0.00  0.00    +0.176 C 
BRANCH  21  22
ATOM     22  O   UNL     1     -38.879  19.616  -0.152  0.00  0.00    -0.379 OA
ATOM     23  H   UNL     1     -38.265  18.932  -0.463  0.00  0.00    +0.211 HD
ENDBRANCH  21  22
ENDBRANCH   9  21
TORSDOF 4
ENDMDL
MODEL 7
REMARK VINA RESULT:      -5.0      3.181      5.831
REMARK  Name = 198215
REMARK  4 active torsions:
REMARK  status: ('A' for Active; 'I' for Inactive)
REMARK    1  A    between atoms: C_8  and  C_14
REMARK    2  A    between atoms: C_9  and  C_21
REMARK    3  A    between atoms: C_14  and  C_15
REMARK    4  A    between atoms: C_21  and  O_22
REMARK                            x       y       z     vdW  Elec       q    Type
REMARK                         _______ _______ _______ _____ _____    ______ ____
ROOT
ATOM      1  S   UNL     1     -34.822  24.688   2.422  0.00  0.00    -0.045 S 
ATOM      2  S   UNL     1     -33.751  26.951   0.447  0.00  0.00    -0.043 S 
ATOM      3  S   UNL     1     -33.090  25.600   1.831  0.00  0.00    -0.019 S 
ATOM      4  O   UNL     1     -34.409  27.072   4.899  0.00  0.00    -0.272 OA
ATOM      5  O   UNL     1     -36.965  27.803   0.239  0.00  0.00    -0.272 OA
ATOM      6  N   UNL     1     -36.738  26.657   2.241  0.00  0.00    -0.262 N 
ATOM      7  N   UNL     1     -34.558  28.169   2.855  0.00  0.00    -0.261 N 
ATOM      8  C   UNL     1     -35.801  26.051   3.213  0.00  0.00    +0.183 C 
ATOM      9  C   UNL     1     -34.872  28.068   1.411  0.00  0.00    +0.206 C 
ATOM     10  C   UNL     1     -34.889  27.151   3.765  0.00  0.00    +0.254 C 
ATOM     11  C   UNL     1     -36.300  27.533   1.242  0.00  0.00    +0.256 C 
ATOM     12  C   UNL     1     -38.103  26.136   2.148  0.00  0.00    +0.116 C 
ATOM     13  C   UNL     1     -33.665  29.235   3.312  0.00  0.00    +0.116 C 
ENDROOT
BRANCH   8  14
ATOM     14  C   UNL     1     -36.518  25.394   4.413  0.00  0.00    +0.065 C 
BRANCH  14  15
ATOM     15  C   UNL     1     -36.024  23.997   4.633  0.00  0.00    -0.019 C 
ATOM     16  C   UNL     1     -36.369  22.992   3.735  0.00  0.00    -0.004 C 
ATOM     17  C   UNL     1     -35.222  23.714   5.735  0.00  0.00    -0.004 C 
ATOM     18  C   UNL     1     -35.909  21.691   3.940  0.00  0.00    -0.000 C 
ATOM     19  C   UNL     1     -34.762  22.413   5.940  0.00  0.00    -0.000 C 
ATOM     20  C   UNL     1     -35.105  21.402   5.042  0.00  0.00    -0.000 C 
ENDBRANCH  14  15
ENDBRANCH   8  14
BRANCH   9  21
ATOM     21  C   UNL     1     -34.804  29.434   0.691  0.00  0.00    +0.176 C 
BRANCH  21  22
ATOM     22  O   UNL     1     -35.948  30.172   1.056  0.00  0.00    -0.379 OA
ATOM     23  H   UNL     1     -35.995  30.981   0.523  0.00  0.00    +0.211 HD
ENDBRANCH  21  22
ENDBRANCH   9  21
TORSDOF 4
ENDMDL
MODEL 8
REMARK VINA RESULT:      -5.0      1.996      6.199
REMARK  Name = 198215
REMARK  4 active torsions:
REMARK  status: ('A' for Active; 'I' for Inactive)
REMARK    1  A    between atoms: C_8  and  C_14
REMARK    2  A    between atoms: C_9  and  C_21
REMARK    3  A    between atoms: C_14  and  C_15
REMARK    4  A    between atoms: C_21  and  O_22
REMARK                            x       y       z     vdW  Elec       q    Type
REMARK                         _______ _______ _______ _____ _____    ______ ____
ROOT
ATOM      1  S   UNL     1     -36.102  23.143   0.784  0.00  0.00    -0.045 S 
ATOM      2  S   UNL     1     -35.223  25.578   2.647  0.00  0.00    -0.043 S 
ATOM      3  S   UNL     1     -34.434  24.043   1.553  0.00  0.00    -0.019 S 
ATOM      4  O   UNL     1     -35.469  21.177   3.562  0.00  0.00    -0.272 OA
ATOM      5  O   UNL     1     -38.445  25.641   3.494  0.00  0.00    -0.272 OA
ATOM      6  N   UNL     1     -38.032  23.497   2.716  0.00  0.00    -0.262 N 
ATOM      7  N   UNL     1     -35.808  23.361   4.283  0.00  0.00    -0.261 N 
ATOM      8  C   UNL     1     -37.008  22.522   2.279  0.00  0.00    +0.183 C 
ATOM      9  C   UNL     1     -36.253  24.730   3.932  0.00  0.00    +0.206 C 
ATOM     10  C   UNL     1     -36.051  22.259   3.447  0.00  0.00    +0.254 C 
ATOM     11  C   UNL     1     -37.690  24.670   3.396  0.00  0.00    +0.256 C 
ATOM     12  C   UNL     1     -39.398  23.371   2.206  0.00  0.00    +0.116 C 
ATOM     13  C   UNL     1     -34.879  23.184   5.401  0.00  0.00    +0.116 C 
ENDROOT
BRANCH   8  14
ATOM     14  C   UNL     1     -37.610  21.164   1.854  0.00  0.00    +0.065 C 
BRANCH  14  15
ATOM     15  C   UNL     1     -37.190  20.803   0.463  0.00  0.00    -0.019 C 
ATOM     16  C   UNL     1     -37.994  21.158  -0.616  0.00  0.00    -0.004 C 
ATOM     17  C   UNL     1     -35.998  20.114   0.258  0.00  0.00    -0.004 C 
ATOM     18  C   UNL     1     -37.602  20.822  -1.912  0.00  0.00    -0.000 C 
ATOM     19  C   UNL     1     -35.606  19.778  -1.038  0.00  0.00    -0.000 C 
ATOM     20  C   UNL     1     -36.409  20.132  -2.123  0.00  0.00    -0.000 C 
ENDBRANCH  14  15
ENDBRANCH   8  14
BRANCH   9  21
ATOM     21  C   UNL     1     -36.255  25.684   5.148  0.00  0.00    +0.176 C 
BRANCH  21  22
ATOM     22  O   UNL     1     -35.903  26.969   4.688  0.00  0.00    -0.379 OA
ATOM     23  H   UNL     1     -34.962  27.129   4.863  0.00  0.00    +0.211 HD
ENDBRANCH  21  22
ENDBRANCH   9  21
TORSDOF 4
ENDMDL
MODEL 9
REMARK VINA RESULT:      -5.0      3.660      5.924
REMARK  Name = 198215
REMARK  4 active torsions:
REMARK  status: ('A' for Active; 'I' for Inactive)
REMARK    1  A    between atoms: C_8  and  C_14
REMARK    2  A    between atoms: C_9  and  C_21
REMARK    3  A    between atoms: C_14  and  C_15
REMARK    4  A    between atoms: C_21  and  O_22
REMARK                            x       y       z     vdW  Elec       q    Type
REMARK                         _______ _______ _______ _____ _____    ______ ____
ROOT
ATOM      1  S   UNL     1     -35.019  22.369   2.068  0.00  0.00    -0.045 S 
ATOM      2  S   UNL     1     -36.820  24.465   3.659  0.00  0.00    -0.043 S 
ATOM      3  S   UNL     1     -36.122  22.549   3.781  0.00  0.00    -0.019 S 
ATOM      4  O   UNL     1     -38.032  20.959   1.109  0.00  0.00    -0.272 OA
ATOM      5  O   UNL     1     -36.764  26.163   0.792  0.00  0.00    -0.272 OA
ATOM      6  N   UNL     1     -36.324  23.956   0.235  0.00  0.00    -0.262 N 
ATOM      7  N   UNL     1     -38.435  23.154   1.759  0.00  0.00    -0.261 N 
ATOM      8  C   UNL     1     -36.267  22.555   0.708  0.00  0.00    +0.183 C 
ATOM      9  C   UNL     1     -37.855  24.468   2.121  0.00  0.00    +0.206 C 
ATOM     10  C   UNL     1     -37.667  22.136   1.169  0.00  0.00    +0.254 C 
ATOM     11  C   UNL     1     -36.961  24.958   0.974  0.00  0.00    +0.256 C 
ATOM     12  C   UNL     1     -35.481  24.362  -0.890  0.00  0.00    +0.116 C 
ATOM     13  C   UNL     1     -39.771  22.812   2.248  0.00  0.00    +0.116 C 
ENDROOT
BRANCH   8  14
ATOM     14  C   UNL     1     -35.822  21.565  -0.391  0.00  0.00    +0.065 C 
BRANCH  14  15
ATOM     15  C   UNL     1     -34.617  20.789   0.043  0.00  0.00    -0.019 C 
ATOM     16  C   UNL     1     -33.346  21.222  -0.327  0.00  0.00    -0.004 C 
ATOM     17  C   UNL     1     -34.774  19.640   0.812  0.00  0.00    -0.004 C 
ATOM     18  C   UNL     1     -32.224  20.499   0.077  0.00  0.00    -0.000 C 
ATOM     19  C   UNL     1     -33.652  18.917   1.216  0.00  0.00    -0.000 C 
ATOM     20  C   UNL     1     -32.376  19.348   0.848  0.00  0.00    -0.000 C 
ENDBRANCH  14  15
ENDBRANCH   8  14
BRANCH   9  21
ATOM     21  C   UNL     1     -38.934  25.549   2.358  0.00  0.00    +0.176 C 
BRANCH  21  22
ATOM     22  O   UNL     1     -38.444  26.441   3.334  0.00  0.00    -0.379 OA
ATOM     23  H   UNL     1     -37.503  26.614   3.171  0.00  0.00    +0.211 HD
ENDBRANCH  21  22
ENDBRANCH   9  21
TORSDOF 4
ENDMDL
