MODEL 1
REMARK VINA RESULT:      -6.8      0.000      0.000
REMARK  Name = 5213
REMARK  9 active torsions:
REMARK  status: ('A' for Active; 'I' for Inactive)
REMARK    1  A    between atoms: C_3  and  C_28
REMARK    2  A    between atoms: C_4  and  C_38
REMARK    3  A    between atoms: C_5  and  C_13
REMARK    4  A    between atoms: C_14  and  O_22
REMARK    5  A    between atoms: C_18  and  O_24
REMARK    6  A    between atoms: C_20  and  O_26
REMARK    7  A    between atoms: C_31  and  O_34
REMARK    8  A    between atoms: C_33  and  O_36
REMARK    9  A    between atoms: C_38  and  O_39
REMARK                            x       y       z     vdW  Elec       q    Type
REMARK                         _______ _______ _______ _____ _____    ______ ____
ROOT
ATOM      1  O   UNL     1     -34.241  27.422   3.150  0.00  0.00    -0.468 OA
ATOM      2  O   UNL     1     -33.234  26.894   5.794  0.00  0.00    -0.469 OA
ATOM      3  C   UNL     1     -33.585  28.428   3.942  0.00  0.00    +0.230 C 
ATOM      4  C   UNL     1     -32.556  27.770   4.875  0.00  0.00    +0.239 C 
ATOM      5  C   UNL     1     -35.976  24.337   4.002  0.00  0.00    +0.023 C 
ATOM      6  C   UNL     1     -34.624  26.335   3.886  0.00  0.00    +0.172 C 
ATOM      7  C   UNL     1     -34.144  26.084   5.172  0.00  0.00    +0.172 C 
ATOM      8  C   UNL     1     -35.529  25.454   3.295  0.00  0.00    +0.039 C 
ATOM      9  C   UNL     1     -35.516  24.101   5.298  0.00  0.00    +0.003 C 
ATOM     10  C   UNL     1     -34.601  24.976   5.885  0.00  0.00    +0.040 C 
ENDROOT
BRANCH   5  13
ATOM     11  O   UNL     1     -36.284  22.715   2.290  0.00  0.00    -0.471 OA
ATOM     12  O   UNL     1     -40.359  23.188   2.252  0.00  0.00    -0.288 OA
ATOM     13  C   UNL     1     -36.966  23.382   3.364  0.00  0.00    +0.222 C 
ATOM     14  C   UNL     1     -38.214  24.109   2.860  0.00  0.00    +0.217 C 
ATOM     15  C   UNL     1     -39.138  23.101   2.215  0.00  0.00    +0.209 C 
ATOM     16  C   UNL     1     -38.474  22.000   1.490  0.00  0.00    +0.105 C 
ATOM     17  C   UNL     1     -37.085  21.881   1.558  0.00  0.00    +0.148 C 
ATOM     18  C   UNL     1     -39.224  21.104   0.723  0.00  0.00    +0.142 C 
ATOM     19  C   UNL     1     -36.440  20.882   0.825  0.00  0.00    +0.074 C 
ATOM     20  C   UNL     1     -37.186  19.989   0.055  0.00  0.00    +0.140 C 
ATOM     21  C   UNL     1     -38.575  20.098   0.008  0.00  0.00    +0.073 C 
BRANCH  14  22
ATOM     22  O   UNL     1     -38.900  24.709   3.945  0.00  0.00    -0.374 OA
ATOM     23  H   UNL     1     -38.258  25.021   4.602  0.00  0.00    +0.211 HD
ENDBRANCH  14  22
BRANCH  18  24
ATOM     24  O   UNL     1     -40.581  21.175   0.626  0.00  0.00    -0.505 OA
ATOM     25  H   UNL     1     -41.114  21.008   1.378  0.00  0.00    +0.292 HD
ENDBRANCH  18  24
BRANCH  20  26
ATOM     26  O   UNL     1     -36.555  19.009  -0.650  0.00  0.00    -0.505 OA
ATOM     27  H   UNL     1     -36.769  18.868  -1.551  0.00  0.00    +0.292 HD
ENDBRANCH  20  26
ENDBRANCH   5  13
BRANCH   3  28
ATOM     28  C   UNL     1     -32.983  29.424   2.975  0.00  0.00    +0.024 C 
ATOM     29  C   UNL     1     -33.391  30.758   3.006  0.00  0.00    +0.039 C 
ATOM     30  C   UNL     1     -32.024  29.009   2.053  0.00  0.00    +0.003 C 
ATOM     31  C   UNL     1     -32.836  31.676   2.114  0.00  0.00    +0.172 C 
ATOM     32  C   UNL     1     -31.470  29.927   1.161  0.00  0.00    +0.040 C 
ATOM     33  C   UNL     1     -31.876  31.260   1.192  0.00  0.00    +0.168 C 
BRANCH  31  34
ATOM     34  O   UNL     1     -33.244  32.976   2.152  0.00  0.00    -0.468 OA
ATOM     35  C   UNL     1     -34.469  33.291   1.493  0.00  0.00    +0.253 C 
ENDBRANCH  31  34
BRANCH  33  36
ATOM     36  O   UNL     1     -31.328  32.148   0.315  0.00  0.00    -0.503 OA
ATOM     37  H   UNL     1     -30.428  32.395   0.401  0.00  0.00    +0.292 HD
ENDBRANCH  33  36
ENDBRANCH   3  28
BRANCH   4  38
ATOM     38  C   UNL     1     -31.794  28.779   5.730  0.00  0.00    +0.185 C 
BRANCH  38  39
ATOM     39  O   UNL     1     -32.030  28.485   7.093  0.00  0.00    -0.378 OA
ATOM     40  H   UNL     1     -31.837  29.268   7.632  0.00  0.00    +0.211 HD
ENDBRANCH  38  39
ENDBRANCH   4  38
TORSDOF 9
ENDMDL
MODEL 2
REMARK VINA RESULT:      -6.7      1.885      9.638
REMARK  Name = 5213
REMARK  9 active torsions:
REMARK  status: ('A' for Active; 'I' for Inactive)
REMARK    1  A    between atoms: C_3  and  C_28
REMARK    2  A    between atoms: C_4  and  C_38
REMARK    3  A    between atoms: C_5  and  C_13
REMARK    4  A    between atoms: C_14  and  O_22
REMARK    5  A    between atoms: C_18  and  O_24
REMARK    6  A    between atoms: C_20  and  O_26
REMARK    7  A    between atoms: C_31  and  O_34
REMARK    8  A    between atoms: C_33  and  O_36
REMARK    9  A    between atoms: C_38  and  O_39
REMARK                            x       y       z     vdW  Elec       q    Type
REMARK                         _______ _______ _______ _____ _____    ______ ____
ROOT
ATOM      1  O   UNL     1     -35.537  24.825   2.719  0.00  0.00    -0.468 OA
ATOM      2  O   UNL     1     -34.333  24.240   5.267  0.00  0.00    -0.469 OA
ATOM      3  C   UNL     1     -35.349  23.480   3.194  0.00  0.00    +0.230 C 
ATOM      4  C   UNL     1     -35.413  23.455   4.730  0.00  0.00    +0.239 C 
ATOM      5  C   UNL     1     -33.914  27.985   3.514  0.00  0.00    +0.023 C 
ATOM      6  C   UNL     1     -34.804  25.741   3.420  0.00  0.00    +0.172 C 
ATOM      7  C   UNL     1     -34.211  25.456   4.650  0.00  0.00    +0.172 C 
ATOM      8  C   UNL     1     -34.668  27.011   2.859  0.00  0.00    +0.039 C 
ATOM      9  C   UNL     1     -33.298  27.690   4.731  0.00  0.00    +0.003 C 
ATOM     10  C   UNL     1     -33.445  26.424   5.299  0.00  0.00    +0.040 C 
ENDROOT
BRANCH   5  13
ATOM     11  O   UNL     1     -32.707  30.032   3.618  0.00  0.00    -0.471 OA
ATOM     12  O   UNL     1     -35.674  32.146   1.729  0.00  0.00    -0.288 OA
ATOM     13  C   UNL     1     -33.757  29.363   2.901  0.00  0.00    +0.222 C 
ATOM     14  C   UNL     1     -35.061  30.161   2.957  0.00  0.00    +0.217 C 
ATOM     15  C   UNL     1     -34.821  31.528   2.356  0.00  0.00    +0.209 C 
ATOM     16  C   UNL     1     -33.487  32.108   2.602  0.00  0.00    +0.105 C 
ATOM     17  C   UNL     1     -32.513  31.331   3.232  0.00  0.00    +0.148 C 
ATOM     18  C   UNL     1     -33.209  33.427   2.234  0.00  0.00    +0.142 C 
ATOM     19  C   UNL     1     -31.267  31.888   3.527  0.00  0.00    +0.074 C 
ATOM     20  C   UNL     1     -30.989  33.207   3.164  0.00  0.00    +0.140 C 
ATOM     21  C   UNL     1     -31.957  33.972   2.515  0.00  0.00    +0.073 C 
BRANCH  14  22
ATOM     22  O   UNL     1     -36.064  29.512   2.195  0.00  0.00    -0.374 OA
ATOM     23  H   UNL     1     -36.925  29.628   2.627  0.00  0.00    +0.211 HD
ENDBRANCH  14  22
BRANCH  18  24
ATOM     24  O   UNL     1     -34.122  34.226   1.615  0.00  0.00    -0.505 OA
ATOM     25  H   UNL     1     -35.025  34.184   1.861  0.00  0.00    +0.292 HD
ENDBRANCH  18  24
BRANCH  20  26
ATOM     26  O   UNL     1     -29.770  33.745   3.444  0.00  0.00    -0.505 OA
ATOM     27  H   UNL     1     -29.441  34.454   2.928  0.00  0.00    +0.292 HD
ENDBRANCH  20  26
ENDBRANCH   5  13
BRANCH   3  28
ATOM     28  C   UNL     1     -36.406  22.627   2.526  0.00  0.00    +0.024 C 
ATOM     29  C   UNL     1     -37.752  22.975   2.633  0.00  0.00    +0.039 C 
ATOM     30  C   UNL     1     -36.034  21.494   1.804  0.00  0.00    +0.003 C 
ATOM     31  C   UNL     1     -38.726  22.189   2.017  0.00  0.00    +0.172 C 
ATOM     32  C   UNL     1     -37.007  20.708   1.189  0.00  0.00    +0.040 C 
ATOM     33  C   UNL     1     -38.353  21.055   1.295  0.00  0.00    +0.168 C 
BRANCH  31  34
ATOM     34  O   UNL     1     -40.038  22.537   2.131  0.00  0.00    -0.468 OA
ATOM     35  C   UNL     1     -40.459  23.716   1.447  0.00  0.00    +0.253 C 
ENDBRANCH  31  34
BRANCH  33  36
ATOM     36  O   UNL     1     -39.295  20.279   0.690  0.00  0.00    -0.503 OA
ATOM     37  H   UNL     1     -40.115  20.652   0.434  0.00  0.00    +0.292 HD
ENDBRANCH  33  36
ENDBRANCH   3  28
BRANCH   4  38
ATOM     38  C   UNL     1     -35.252  22.053   5.311  0.00  0.00    +0.185 C 
BRANCH  38  39
ATOM     39  O   UNL     1     -36.175  21.895   6.371  0.00  0.00    -0.378 OA
ATOM     40  H   UNL     1     -37.079  21.893   6.017  0.00  0.00    +0.211 HD
ENDBRANCH  38  39
ENDBRANCH   4  38
TORSDOF 9
ENDMDL
MODEL 3
REMARK VINA RESULT:      -6.7      3.074      5.129
REMARK  Name = 5213
REMARK  9 active torsions:
REMARK  status: ('A' for Active; 'I' for Inactive)
REMARK    1  A    between atoms: C_3  and  C_28
REMARK    2  A    between atoms: C_4  and  C_38
REMARK    3  A    between atoms: C_5  and  C_13
REMARK    4  A    between atoms: C_14  and  O_22
REMARK    5  A    between atoms: C_18  and  O_24
REMARK    6  A    between atoms: C_20  and  O_26
REMARK    7  A    between atoms: C_31  and  O_34
REMARK    8  A    between atoms: C_33  and  O_36
REMARK    9  A    between atoms: C_38  and  O_39
REMARK                            x       y       z     vdW  Elec       q    Type
REMARK                         _______ _______ _______ _____ _____    ______ ____
ROOT
ATOM      1  O   UNL     1     -35.983  29.801   2.083  0.00  0.00    -0.468 OA
ATOM      2  O   UNL     1     -33.504  31.135   2.680  0.00  0.00    -0.469 OA
ATOM      3  C   UNL     1     -35.879  31.233   2.173  0.00  0.00    +0.230 C 
ATOM      4  C   UNL     1     -34.467  31.681   1.760  0.00  0.00    +0.239 C 
ATOM      5  C   UNL     1     -33.986  27.079   3.444  0.00  0.00    +0.023 C 
ATOM      6  C   UNL     1     -34.907  29.156   2.625  0.00  0.00    +0.172 C 
ATOM      7  C   UNL     1     -33.708  29.804   2.925  0.00  0.00    +0.172 C 
ATOM      8  C   UNL     1     -35.041  27.790   2.871  0.00  0.00    +0.039 C 
ATOM      9  C   UNL     1     -32.798  27.733   3.768  0.00  0.00    +0.003 C 
ATOM     10  C   UNL     1     -32.658  29.097   3.510  0.00  0.00    +0.040 C 
ENDROOT
BRANCH   5  13
ATOM     11  O   UNL     1     -34.714  24.999   2.549  0.00  0.00    -0.471 OA
ATOM     12  O   UNL     1     -35.187  23.304   6.256  0.00  0.00    -0.288 OA
ATOM     13  C   UNL     1     -34.133  25.595   3.720  0.00  0.00    +0.222 C 
ATOM     14  C   UNL     1     -34.990  25.330   4.959  0.00  0.00    +0.217 C 
ATOM     15  C   UNL     1     -35.115  23.835   5.154  0.00  0.00    +0.209 C 
ATOM     16  C   UNL     1     -35.181  23.034   3.916  0.00  0.00    +0.105 C 
ATOM     17  C   UNL     1     -34.993  23.666   2.686  0.00  0.00    +0.148 C 
ATOM     18  C   UNL     1     -35.458  21.665   3.973  0.00  0.00    +0.142 C 
ATOM     19  C   UNL     1     -35.117  22.931   1.505  0.00  0.00    +0.074 C 
ATOM     20  C   UNL     1     -35.397  21.565   1.559  0.00  0.00    +0.140 C 
ATOM     21  C   UNL     1     -35.562  20.933   2.791  0.00  0.00    +0.073 C 
BRANCH  14  22
ATOM     22  O   UNL     1     -34.367  25.875   6.109  0.00  0.00    -0.374 OA
ATOM     23  H   UNL     1     -34.409  26.844   6.071  0.00  0.00    +0.211 HD
ENDBRANCH  14  22
BRANCH  18  24
ATOM     24  O   UNL     1     -35.647  21.000   5.147  0.00  0.00    -0.505 OA
ATOM     25  H   UNL     1     -36.434  21.133   5.639  0.00  0.00    +0.292 HD
ENDBRANCH  18  24
BRANCH  20  26
ATOM     26  O   UNL     1     -35.507  20.848   0.406  0.00  0.00    -0.505 OA
ATOM     27  H   UNL     1     -36.352  20.672   0.042  0.00  0.00    +0.292 HD
ENDBRANCH  20  26
ENDBRANCH   5  13
BRANCH   3  28
ATOM     28  C   UNL     1     -36.979  31.808   1.307  0.00  0.00    +0.024 C 
ATOM     29  C   UNL     1     -37.957  32.625   1.875  0.00  0.00    +0.039 C 
ATOM     30  C   UNL     1     -37.016  31.521  -0.056  0.00  0.00    +0.003 C 
ATOM     31  C   UNL     1     -38.971  33.155   1.078  0.00  0.00    +0.172 C 
ATOM     32  C   UNL     1     -38.031  32.050  -0.853  0.00  0.00    +0.040 C 
ATOM     33  C   UNL     1     -39.008  32.867  -0.287  0.00  0.00    +0.168 C 
BRANCH  31  34
ATOM     34  O   UNL     1     -39.922  33.950   1.644  0.00  0.00    -0.468 OA
ATOM     35  C   UNL     1     -39.484  35.185   2.207  0.00  0.00    +0.253 C 
ENDBRANCH  31  34
BRANCH  33  36
ATOM     36  O   UNL     1     -39.994  33.378  -1.076  0.00  0.00    -0.503 OA
ATOM     37  H   UNL     1     -40.886  33.134  -0.927  0.00  0.00    +0.292 HD
ENDBRANCH  33  36
ENDBRANCH   3  28
BRANCH   4  38
ATOM     38  C   UNL     1     -34.286  33.195   1.801  0.00  0.00    +0.185 C 
BRANCH  38  39
ATOM     39  O   UNL     1     -33.024  33.484   2.370  0.00  0.00    -0.378 OA
ATOM     40  H   UNL     1     -32.746  34.376   2.108  0.00  0.00    +0.211 HD
ENDBRANCH  38  39
ENDBRANCH   4  38
TORSDOF 9
ENDMDL
MODEL 4
REMARK VINA RESULT:      -6.7      6.261      9.575
REMARK  Name = 5213
REMARK  9 active torsions:
REMARK  status: ('A' for Active; 'I' for Inactive)
REMARK    1  A    between atoms: C_3  and  C_28
REMARK    2  A    between atoms: C_4  and  C_38
REMARK    3  A    between atoms: C_5  and  C_13
REMARK    4  A    between atoms: C_14  and  O_22
REMARK    5  A    between atoms: C_18  and  O_24
REMARK    6  A    between atoms: C_20  and  O_26
REMARK    7  A    between atoms: C_31  and  O_34
REMARK    8  A    between atoms: C_33  and  O_36
REMARK    9  A    between atoms: C_38  and  O_39
REMARK                            x       y       z     vdW  Elec       q    Type
REMARK                         _______ _______ _______ _____ _____    ______ ____
ROOT
ATOM      1  O   UNL     1     -42.692  27.944   4.721  0.00  0.00    -0.468 OA
ATOM      2  O   UNL     1     -43.230  28.826   2.035  0.00  0.00    -0.469 OA
ATOM      3  C   UNL     1     -43.290  29.220   4.432  0.00  0.00    +0.230 C 
ATOM      4  C   UNL     1     -44.108  29.132   3.133  0.00  0.00    +0.239 C 
ATOM      5  C   UNL     1     -40.616  25.680   2.767  0.00  0.00    +0.023 C 
ATOM      6  C   UNL     1     -42.117  27.368   3.622  0.00  0.00    +0.172 C 
ATOM      7  C   UNL     1     -42.370  27.802   2.321  0.00  0.00    +0.172 C 
ATOM      8  C   UNL     1     -41.252  26.297   3.845  0.00  0.00    +0.039 C 
ATOM      9  C   UNL     1     -40.848  26.132   1.468  0.00  0.00    +0.003 C 
ATOM     10  C   UNL     1     -41.724  27.194   1.243  0.00  0.00    +0.040 C 
ENDROOT
BRANCH   5  13
ATOM     11  O   UNL     1     -38.393  25.080   3.361  0.00  0.00    -0.471 OA
ATOM     12  O   UNL     1     -38.685  21.369   1.633  0.00  0.00    -0.288 OA
ATOM     13  C   UNL     1     -39.668  24.521   3.008  0.00  0.00    +0.222 C 
ATOM     14  C   UNL     1     -39.555  23.615   1.781  0.00  0.00    +0.217 C 
ATOM     15  C   UNL     1     -38.576  22.503   2.085  0.00  0.00    +0.209 C 
ATOM     16  C   UNL     1     -37.436  22.875   2.945  0.00  0.00    +0.105 C 
ATOM     17  C   UNL     1     -37.404  24.147   3.520  0.00  0.00    +0.148 C 
ATOM     18  C   UNL     1     -36.388  21.975   3.159  0.00  0.00    +0.142 C 
ATOM     19  C   UNL     1     -36.300  24.533   4.283  0.00  0.00    +0.074 C 
ATOM     20  C   UNL     1     -35.251  23.638   4.496  0.00  0.00    +0.140 C 
ATOM     21  C   UNL     1     -35.297  22.361   3.938  0.00  0.00    +0.073 C 
BRANCH  14  22
ATOM     22  O   UNL     1     -40.812  23.030   1.488  0.00  0.00    -0.374 OA
ATOM     23  H   UNL     1     -41.520  23.584   1.854  0.00  0.00    +0.211 HD
ENDBRANCH  14  22
BRANCH  18  24
ATOM     24  O   UNL     1     -36.372  20.723   2.624  0.00  0.00    -0.505 OA
ATOM     25  H   UNL     1     -36.257  20.609   1.701  0.00  0.00    +0.292 HD
ENDBRANCH  18  24
BRANCH  20  26
ATOM     26  O   UNL     1     -34.181  24.013   5.250  0.00  0.00    -0.505 OA
ATOM     27  H   UNL     1     -33.943  23.514   6.007  0.00  0.00    +0.292 HD
ENDBRANCH  20  26
ENDBRANCH   5  13
BRANCH   3  28
ATOM     28  C   UNL     1     -44.109  29.605   5.645  0.00  0.00    +0.024 C 
ATOM     29  C   UNL     1     -45.167  28.795   6.057  0.00  0.00    +0.039 C 
ATOM     30  C   UNL     1     -43.807  30.770   6.350  0.00  0.00    +0.003 C 
ATOM     31  C   UNL     1     -45.923  29.150   7.174  0.00  0.00    +0.172 C 
ATOM     32  C   UNL     1     -44.563  31.125   7.466  0.00  0.00    +0.040 C 
ATOM     33  C   UNL     1     -45.620  30.315   7.879  0.00  0.00    +0.168 C 
BRANCH  31  34
ATOM     34  O   UNL     1     -46.955  28.351   7.565  0.00  0.00    -0.468 OA
ATOM     35  C   UNL     1     -46.621  27.065   8.083  0.00  0.00    +0.253 C 
ENDBRANCH  31  34
BRANCH  33  36
ATOM     36  O   UNL     1     -46.351  30.673   8.971  0.00  0.00    -0.503 OA
ATOM     37  H   UNL     1     -46.485  31.579   9.169  0.00  0.00    +0.292 HD
ENDBRANCH  33  36
ENDBRANCH   3  28
BRANCH   4  38
ATOM     38  C   UNL     1     -44.801  30.444   2.775  0.00  0.00    +0.185 C 
BRANCH  38  39
ATOM     39  O   UNL     1     -43.816  31.447   2.622  0.00  0.00    -0.378 OA
ATOM     40  H   UNL     1     -44.235  32.271   2.326  0.00  0.00    +0.211 HD
ENDBRANCH  38  39
ENDBRANCH   4  38
TORSDOF 9
ENDMDL
MODEL 5
REMARK VINA RESULT:      -6.7      5.517      9.509
REMARK  Name = 5213
REMARK  9 active torsions:
REMARK  status: ('A' for Active; 'I' for Inactive)
REMARK    1  A    between atoms: C_3  and  C_28
REMARK    2  A    between atoms: C_4  and  C_38
REMARK    3  A    between atoms: C_5  and  C_13
REMARK    4  A    between atoms: C_14  and  O_22
REMARK    5  A    between atoms: C_18  and  O_24
REMARK    6  A    between atoms: C_20  and  O_26
REMARK    7  A    between atoms: C_31  and  O_34
REMARK    8  A    between atoms: C_33  and  O_36
REMARK    9  A    between atoms: C_38  and  O_39
REMARK                            x       y       z     vdW  Elec       q    Type
REMARK                         _______ _______ _______ _____ _____    ______ ____
ROOT
ATOM      1  O   UNL     1     -39.009  25.022   3.204  0.00  0.00    -0.468 OA
ATOM      2  O   UNL     1     -38.359  25.863   0.529  0.00  0.00    -0.469 OA
ATOM      3  C   UNL     1     -38.035  24.338   2.393  0.00  0.00    +0.230 C 
ATOM      4  C   UNL     1     -37.369  25.332   1.428  0.00  0.00    +0.239 C 
ATOM      5  C   UNL     1     -41.829  27.178   2.399  0.00  0.00    +0.023 C 
ATOM      6  C   UNL     1     -39.804  25.864   2.477  0.00  0.00    +0.172 C 
ATOM      7  C   UNL     1     -39.495  26.264   1.177  0.00  0.00    +0.172 C 
ATOM      8  C   UNL     1     -40.964  26.332   3.094  0.00  0.00    +0.039 C 
ATOM      9  C   UNL     1     -41.533  27.555   1.089  0.00  0.00    +0.003 C 
ATOM     10  C   UNL     1     -40.366  27.097   0.476  0.00  0.00    +0.040 C 
ENDROOT
BRANCH   5  13
ATOM     11  O   UNL     1     -42.698  28.412   4.237  0.00  0.00    -0.471 OA
ATOM     12  O   UNL     1     -46.388  26.635   3.985  0.00  0.00    -0.288 OA
ATOM     13  C   UNL     1     -43.095  27.682   3.065  0.00  0.00    +0.222 C 
ATOM     14  C   UNL     1     -44.044  26.536   3.421  0.00  0.00    +0.217 C 
ATOM     15  C   UNL     1     -45.265  27.111   4.104  0.00  0.00    +0.209 C 
ATOM     16  C   UNL     1     -45.021  28.281   4.969  0.00  0.00    +0.105 C 
ATOM     17  C   UNL     1     -43.748  28.854   4.996  0.00  0.00    +0.148 C 
ATOM     18  C   UNL     1     -46.044  28.794   5.772  0.00  0.00    +0.142 C 
ATOM     19  C   UNL     1     -43.488  29.921   5.858  0.00  0.00    +0.074 C 
ATOM     20  C   UNL     1     -44.506  30.432   6.664  0.00  0.00    +0.140 C 
ATOM     21  C   UNL     1     -45.782  29.872   6.617  0.00  0.00    +0.073 C 
BRANCH  14  22
ATOM     22  O   UNL     1     -44.467  25.869   2.245  0.00  0.00    -0.374 OA
ATOM     23  H   UNL     1     -44.339  26.450   1.479  0.00  0.00    +0.211 HD
ENDBRANCH  14  22
BRANCH  18  24
ATOM     24  O   UNL     1     -47.304  28.274   5.781  0.00  0.00    -0.505 OA
ATOM     25  H   UNL     1     -47.975  28.682   6.291  0.00  0.00    +0.292 HD
ENDBRANCH  18  24
BRANCH  20  26
ATOM     26  O   UNL     1     -44.253  31.480   7.496  0.00  0.00    -0.505 OA
ATOM     27  H   UNL     1     -43.727  31.355   8.261  0.00  0.00    +0.292 HD
ENDBRANCH  20  26
ENDBRANCH   5  13
BRANCH   3  28
ATOM     28  C   UNL     1     -37.067  23.667   3.344  0.00  0.00    +0.024 C 
ATOM     29  C   UNL     1     -36.582  22.391   3.059  0.00  0.00    +0.039 C 
ATOM     30  C   UNL     1     -36.661  24.324   4.505  0.00  0.00    +0.003 C 
ATOM     31  C   UNL     1     -35.691  21.773   3.934  0.00  0.00    +0.172 C 
ATOM     32  C   UNL     1     -35.770  23.706   5.381  0.00  0.00    +0.040 C 
ATOM     33  C   UNL     1     -35.284  22.430   5.096  0.00  0.00    +0.168 C 
BRANCH  31  34
ATOM     34  O   UNL     1     -35.226  20.525   3.646  0.00  0.00    -0.468 OA
ATOM     35  C   UNL     1     -34.995  20.219   2.272  0.00  0.00    +0.253 C 
ENDBRANCH  31  34
BRANCH  33  36
ATOM     36  O   UNL     1     -34.414  21.836   5.960  0.00  0.00    -0.503 OA
ATOM     37  H   UNL     1     -34.097  20.972   5.784  0.00  0.00    +0.292 HD
ENDBRANCH  33  36
ENDBRANCH   3  28
BRANCH   4  38
ATOM     38  C   UNL     1     -36.298  24.686   0.553  0.00  0.00    +0.185 C 
BRANCH  38  39
ATOM     39  O   UNL     1     -36.905  23.678  -0.232  0.00  0.00    -0.378 OA
ATOM     40  H   UNL     1     -37.857  23.852  -0.304  0.00  0.00    +0.211 HD
ENDBRANCH  38  39
ENDBRANCH   4  38
TORSDOF 9
ENDMDL
MODEL 6
REMARK VINA RESULT:      -6.6      1.814      2.655
REMARK  Name = 5213
REMARK  9 active torsions:
REMARK  status: ('A' for Active; 'I' for Inactive)
REMARK    1  A    between atoms: C_3  and  C_28
REMARK    2  A    between atoms: C_4  and  C_38
REMARK    3  A    between atoms: C_5  and  C_13
REMARK    4  A    between atoms: C_14  and  O_22
REMARK    5  A    between atoms: C_18  and  O_24
REMARK    6  A    between atoms: C_20  and  O_26
REMARK    7  A    between atoms: C_31  and  O_34
REMARK    8  A    between atoms: C_33  and  O_36
REMARK    9  A    between atoms: C_38  and  O_39
REMARK                            x       y       z     vdW  Elec       q    Type
REMARK                         _______ _______ _______ _____ _____    ______ ____
ROOT
ATOM      1  O   UNL     1     -33.083  26.771   3.151  0.00  0.00    -0.468 OA
ATOM      2  O   UNL     1     -33.380  27.243   5.974  0.00  0.00    -0.469 OA
ATOM      3  C   UNL     1     -32.702  28.012   3.771  0.00  0.00    +0.230 C 
ATOM      4  C   UNL     1     -32.266  27.758   5.223  0.00  0.00    +0.239 C 
ATOM      5  C   UNL     1     -35.406  24.135   4.103  0.00  0.00    +0.023 C 
ATOM      6  C   UNL     1     -33.883  26.004   3.951  0.00  0.00    +0.172 C 
ATOM      7  C   UNL     1     -34.036  26.238   5.318  0.00  0.00    +0.172 C 
ATOM      8  C   UNL     1     -34.557  24.943   3.346  0.00  0.00    +0.039 C 
ATOM      9  C   UNL     1     -35.579  24.387   5.465  0.00  0.00    +0.003 C 
ATOM     10  C   UNL     1     -34.895  25.440   6.073  0.00  0.00    +0.040 C 
ENDROOT
BRANCH   5  13
ATOM     11  O   UNL     1     -35.190  22.258   2.658  0.00  0.00    -0.471 OA
ATOM     12  O   UNL     1     -39.183  22.229   1.717  0.00  0.00    -0.288 OA
ATOM     13  C   UNL     1     -36.146  22.986   3.446  0.00  0.00    +0.222 C 
ATOM     14  C   UNL     1     -37.311  23.479   2.586  0.00  0.00    +0.217 C 
ATOM     15  C   UNL     1     -37.980  22.284   1.943  0.00  0.00    +0.209 C 
ATOM     16  C   UNL     1     -37.081  21.178   1.561  0.00  0.00    +0.105 C 
ATOM     17  C   UNL     1     -35.735  21.237   1.928  0.00  0.00    +0.148 C 
ATOM     18  C   UNL     1     -37.565  20.097   0.818  0.00  0.00    +0.142 C 
ATOM     19  C   UNL     1     -34.862  20.228   1.518  0.00  0.00    +0.074 C 
ATOM     20  C   UNL     1     -35.341  19.150   0.772  0.00  0.00    +0.140 C 
ATOM     21  C   UNL     1     -36.690  19.084   0.427  0.00  0.00    +0.073 C 
BRANCH  14  22
ATOM     22  O   UNL     1     -38.268  24.141   3.394  0.00  0.00    -0.374 OA
ATOM     23  H   UNL     1     -39.047  24.360   2.859  0.00  0.00    +0.211 HD
ENDBRANCH  14  22
BRANCH  18  24
ATOM     24  O   UNL     1     -38.868  19.990   0.437  0.00  0.00    -0.505 OA
ATOM     25  H   UNL     1     -39.086  19.922  -0.472  0.00  0.00    +0.292 HD
ENDBRANCH  18  24
BRANCH  20  26
ATOM     26  O   UNL     1     -34.489  18.162   0.382  0.00  0.00    -0.505 OA
ATOM     27  H   UNL     1     -33.566  18.259   0.515  0.00  0.00    +0.292 HD
ENDBRANCH  20  26
ENDBRANCH   5  13
BRANCH   3  28
ATOM     28  C   UNL     1     -31.619  28.620   2.906  0.00  0.00    +0.024 C 
ATOM     29  C   UNL     1     -30.440  27.915   2.668  0.00  0.00    +0.039 C 
ATOM     30  C   UNL     1     -31.800  29.885   2.348  0.00  0.00    +0.003 C 
ATOM     31  C   UNL     1     -29.442  28.475   1.871  0.00  0.00    +0.172 C 
ATOM     32  C   UNL     1     -30.802  30.446   1.552  0.00  0.00    +0.040 C 
ATOM     33  C   UNL     1     -29.623  29.741   1.313  0.00  0.00    +0.168 C 
BRANCH  31  34
ATOM     34  O   UNL     1     -28.293  27.777   1.647  0.00  0.00    -0.468 OA
ATOM     35  C   UNL     1     -28.047  26.647   2.481  0.00  0.00    +0.253 C 
ENDBRANCH  31  34
BRANCH  33  36
ATOM     36  O   UNL     1     -28.655  30.299   0.534  0.00  0.00    -0.503 OA
ATOM     37  H   UNL     1     -28.766  31.168   0.200  0.00  0.00    +0.292 HD
ENDBRANCH  33  36
ENDBRANCH   3  28
BRANCH   4  38
ATOM     38  C   UNL     1     -31.816  29.027   5.941  0.00  0.00    +0.185 C 
BRANCH  38  39
ATOM     39  O   UNL     1     -31.828  28.786   7.335  0.00  0.00    -0.378 OA
ATOM     40  H   UNL     1     -32.600  29.219   7.733  0.00  0.00    +0.211 HD
ENDBRANCH  38  39
ENDBRANCH   4  38
TORSDOF 9
ENDMDL
MODEL 7
REMARK VINA RESULT:      -6.5      4.354      7.799
REMARK  Name = 5213
REMARK  9 active torsions:
REMARK  status: ('A' for Active; 'I' for Inactive)
REMARK    1  A    between atoms: C_3  and  C_28
REMARK    2  A    between atoms: C_4  and  C_38
REMARK    3  A    between atoms: C_5  and  C_13
REMARK    4  A    between atoms: C_14  and  O_22
REMARK    5  A    between atoms: C_18  and  O_24
REMARK    6  A    between atoms: C_20  and  O_26
REMARK    7  A    between atoms: C_31  and  O_34
REMARK    8  A    between atoms: C_33  and  O_36
REMARK    9  A    between atoms: C_38  and  O_39
REMARK                            x       y       z     vdW  Elec       q    Type
REMARK                         _______ _______ _______ _____ _____    ______ ____
ROOT
ATOM      1  O   UNL     1     -37.458  32.086   1.490  0.00  0.00    -0.468 OA
ATOM      2  O   UNL     1     -36.754  32.422  -1.281  0.00  0.00    -0.469 OA
ATOM      3  C   UNL     1     -37.563  33.352   0.814  0.00  0.00    +0.230 C 
ATOM      4  C   UNL     1     -37.856  33.125  -0.678  0.00  0.00    +0.239 C 
ATOM      5  C   UNL     1     -35.480  29.096   0.861  0.00  0.00    +0.023 C 
ATOM      6  C   UNL     1     -36.699  31.181   0.803  0.00  0.00    +0.172 C 
ATOM      7  C   UNL     1     -36.348  31.348  -0.537  0.00  0.00    +0.172 C 
ATOM      8  C   UNL     1     -36.277  30.047   1.498  0.00  0.00    +0.039 C 
ATOM      9  C   UNL     1     -35.107  29.277  -0.472  0.00  0.00    +0.003 C 
ATOM     10  C   UNL     1     -35.540  30.404  -1.171  0.00  0.00    +0.040 C 
ENDROOT
BRANCH   5  13
ATOM     11  O   UNL     1     -36.183  27.097   1.940  0.00  0.00    -0.471 OA
ATOM     12  O   UNL     1     -32.778  26.854   4.218  0.00  0.00    -0.288 OA
ATOM     13  C   UNL     1     -35.014  27.867   1.617  0.00  0.00    +0.222 C 
ATOM     14  C   UNL     1     -34.230  28.239   2.877  0.00  0.00    +0.217 C 
ATOM     15  C   UNL     1     -33.825  26.968   3.590  0.00  0.00    +0.209 C 
ATOM     16  C   UNL     1     -34.795  25.858   3.518  0.00  0.00    +0.105 C 
ATOM     17  C   UNL     1     -35.925  25.994   2.709  0.00  0.00    +0.148 C 
ATOM     18  C   UNL     1     -34.600  24.697   4.271  0.00  0.00    +0.142 C 
ATOM     19  C   UNL     1     -36.882  24.978   2.682  0.00  0.00    +0.074 C 
ATOM     20  C   UNL     1     -36.692  23.819   3.436  0.00  0.00    +0.140 C 
ATOM     21  C   UNL     1     -35.551  23.678   4.225  0.00  0.00    +0.073 C 
BRANCH  14  22
ATOM     22  O   UNL     1     -33.053  28.946   2.528  0.00  0.00    -0.374 OA
ATOM     23  H   UNL     1     -32.276  28.448   2.825  0.00  0.00    +0.211 HD
ENDBRANCH  14  22
BRANCH  18  24
ATOM     24  O   UNL     1     -33.514  24.513   5.073  0.00  0.00    -0.505 OA
ATOM     25  H   UNL     1     -33.205  25.215   5.611  0.00  0.00    +0.292 HD
ENDBRANCH  18  24
BRANCH  20  26
ATOM     26  O   UNL     1     -37.621  22.824   3.399  0.00  0.00    -0.505 OA
ATOM     27  H   UNL     1     -38.528  23.025   3.525  0.00  0.00    +0.292 HD
ENDBRANCH  20  26
ENDBRANCH   5  13
BRANCH   3  28
ATOM     28  C   UNL     1     -38.633  34.146   1.532  0.00  0.00    +0.024 C 
ATOM     29  C   UNL     1     -39.974  33.781   1.405  0.00  0.00    +0.039 C 
ATOM     30  C   UNL     1     -38.280  35.241   2.319  0.00  0.00    +0.003 C 
ATOM     31  C   UNL     1     -40.960  34.513   2.066  0.00  0.00    +0.172 C 
ATOM     32  C   UNL     1     -39.266  35.972   2.979  0.00  0.00    +0.040 C 
ATOM     33  C   UNL     1     -40.606  35.608   2.854  0.00  0.00    +0.168 C 
BRANCH  31  34
ATOM     34  O   UNL     1     -42.266  34.149   1.933  0.00  0.00    -0.468 OA
ATOM     35  C   UNL     1     -42.906  34.470   0.700  0.00  0.00    +0.253 C 
ENDBRANCH  31  34
BRANCH  33  36
ATOM     36  O   UNL     1     -41.560  36.331   3.504  0.00  0.00    -0.503 OA
ATOM     37  H   UNL     1     -41.913  37.104   3.108  0.00  0.00    +0.292 HD
ENDBRANCH  33  36
ENDBRANCH   3  28
BRANCH   4  38
ATOM     38  C   UNL     1     -38.012  34.426  -1.460  0.00  0.00    +0.185 C 
BRANCH  38  39
ATOM     39  O   UNL     1     -36.810  35.164  -1.351  0.00  0.00    -0.378 OA
ATOM     40  H   UNL     1     -36.813  35.886  -2.000  0.00  0.00    +0.211 HD
ENDBRANCH  38  39
ENDBRANCH   4  38
TORSDOF 9
ENDMDL
MODEL 8
REMARK VINA RESULT:      -6.5      4.978     10.443
REMARK  Name = 5213
REMARK  9 active torsions:
REMARK  status: ('A' for Active; 'I' for Inactive)
REMARK    1  A    between atoms: C_3  and  C_28
REMARK    2  A    between atoms: C_4  and  C_38
REMARK    3  A    between atoms: C_5  and  C_13
REMARK    4  A    between atoms: C_14  and  O_22
REMARK    5  A    between atoms: C_18  and  O_24
REMARK    6  A    between atoms: C_20  and  O_26
REMARK    7  A    between atoms: C_31  and  O_34
REMARK    8  A    between atoms: C_33  and  O_36
REMARK    9  A    between atoms: C_38  and  O_39
REMARK                            x       y       z     vdW  Elec       q    Type
REMARK                         _______ _______ _______ _____ _____    ______ ____
ROOT
ATOM      1  O   UNL     1     -33.455  32.065   2.975  0.00  0.00    -0.468 OA
ATOM      2  O   UNL     1     -31.167  33.630   2.199  0.00  0.00    -0.469 OA
ATOM      3  C   UNL     1     -32.115  31.541   2.999  0.00  0.00    +0.230 C 
ATOM      4  C   UNL     1     -31.114  32.675   3.274  0.00  0.00    +0.239 C 
ATOM      5  C   UNL     1     -35.013  34.799   1.145  0.00  0.00    +0.023 C 
ATOM      6  C   UNL     1     -33.557  33.220   2.250  0.00  0.00    +0.172 C 
ATOM      7  C   UNL     1     -32.448  33.973   1.864  0.00  0.00    +0.172 C 
ATOM      8  C   UNL     1     -34.841  33.641   1.903  0.00  0.00    +0.039 C 
ATOM      9  C   UNL     1     -33.902  35.537   0.736  0.00  0.00    +0.003 C 
ATOM     10  C   UNL     1     -32.618  35.124   1.094  0.00  0.00    +0.040 C 
ENDROOT
BRANCH   5  13
ATOM     11  O   UNL     1     -37.250  35.063   1.907  0.00  0.00    -0.471 OA
ATOM     12  O   UNL     1     -38.795  35.038  -1.895  0.00  0.00    -0.288 OA
ATOM     13  C   UNL     1     -36.408  35.254   0.759  0.00  0.00    +0.222 C 
ATOM     14  C   UNL     1     -36.940  34.487  -0.452  0.00  0.00    +0.217 C 
ATOM     15  C   UNL     1     -38.340  34.973  -0.759  0.00  0.00    +0.209 C 
ATOM     16  C   UNL     1     -39.158  35.339   0.413  0.00  0.00    +0.105 C 
ATOM     17  C   UNL     1     -38.570  35.348   1.679  0.00  0.00    +0.148 C 
ATOM     18  C   UNL     1     -40.514  35.646   0.261  0.00  0.00    +0.142 C 
ATOM     19  C   UNL     1     -39.350  35.630   2.802  0.00  0.00    +0.074 C 
ATOM     20  C   UNL     1     -40.704  35.933   2.654  0.00  0.00    +0.140 C 
ATOM     21  C   UNL     1     -41.283  35.945   1.385  0.00  0.00    +0.073 C 
BRANCH  14  22
ATOM     22  O   UNL     1     -36.126  34.737  -1.585  0.00  0.00    -0.374 OA
ATOM     23  H   UNL     1     -36.648  35.193  -2.264  0.00  0.00    +0.211 HD
ENDBRANCH  14  22
BRANCH  18  24
ATOM     24  O   UNL     1     -41.136  35.654  -0.951  0.00  0.00    -0.505 OA
ATOM     25  H   UNL     1     -40.635  35.779  -1.733  0.00  0.00    +0.292 HD
ENDBRANCH  18  24
BRANCH  20  26
ATOM     26  O   UNL     1     -41.460  36.219   3.750  0.00  0.00    -0.505 OA
ATOM     27  H   UNL     1     -41.155  35.984   4.604  0.00  0.00    +0.292 HD
ENDBRANCH  20  26
ENDBRANCH   5  13
BRANCH   3  28
ATOM     28  C   UNL     1     -32.094  30.442   4.040  0.00  0.00    +0.024 C 
ATOM     29  C   UNL     1     -32.339  29.121   3.664  0.00  0.00    +0.039 C 
ATOM     30  C   UNL     1     -31.830  30.750   5.374  0.00  0.00    +0.003 C 
ATOM     31  C   UNL     1     -32.319  28.109   4.623  0.00  0.00    +0.172 C 
ATOM     32  C   UNL     1     -31.812  29.738   6.333  0.00  0.00    +0.040 C 
ATOM     33  C   UNL     1     -32.056  28.418   5.958  0.00  0.00    +0.168 C 
BRANCH  31  34
ATOM     34  O   UNL     1     -32.563  26.823   4.244  0.00  0.00    -0.468 OA
ATOM     35  C   UNL     1     -33.928  26.420   4.156  0.00  0.00    +0.253 C 
ENDBRANCH  31  34
BRANCH  33  36
ATOM     36  O   UNL     1     -32.035  27.438   6.904  0.00  0.00    -0.503 OA
ATOM     37  H   UNL     1     -32.695  27.415   7.569  0.00  0.00    +0.292 HD
ENDBRANCH  33  36
ENDBRANCH   3  28
BRANCH   4  38
ATOM     38  C   UNL     1     -29.669  32.191   3.345  0.00  0.00    +0.185 C 
BRANCH  38  39
ATOM     39  O   UNL     1     -28.851  33.271   3.750  0.00  0.00    -0.378 OA
ATOM     40  H   UNL     1     -27.927  32.977   3.800  0.00  0.00    +0.211 HD
ENDBRANCH  38  39
ENDBRANCH   4  38
TORSDOF 9
ENDMDL
MODEL 9
REMARK VINA RESULT:      -6.5      4.012      9.755
REMARK  Name = 5213
REMARK  9 active torsions:
REMARK  status: ('A' for Active; 'I' for Inactive)
REMARK    1  A    between atoms: C_3  and  C_28
REMARK    2  A    between atoms: C_4  and  C_38
REMARK    3  A    between atoms: C_5  and  C_13
REMARK    4  A    between atoms: C_14  and  O_22
REMARK    5  A    between atoms: C_18  and  O_24
REMARK    6  A    between atoms: C_20  and  O_26
REMARK    7  A    between atoms: C_31  and  O_34
REMARK    8  A    between atoms: C_33  and  O_36
REMARK    9  A    between atoms: C_38  and  O_39
REMARK                            x       y       z     vdW  Elec       q    Type
REMARK                         _______ _______ _______ _____ _____    ______ ____
ROOT
ATOM      1  O   UNL     1     -35.523  28.796   2.737  0.00  0.00    -0.468 OA
ATOM      2  O   UNL     1     -32.847  29.801   3.070  0.00  0.00    -0.469 OA
ATOM      3  C   UNL     1     -34.386  27.928   2.891  0.00  0.00    +0.230 C 
ATOM      4  C   UNL     1     -33.313  28.620   3.748  0.00  0.00    +0.239 C 
ATOM      5  C   UNL     1     -35.880  32.240   1.615  0.00  0.00    +0.023 C 
ATOM      6  C   UNL     1     -35.171  30.081   2.434  0.00  0.00    +0.172 C 
ATOM      7  C   UNL     1     -33.872  30.566   2.585  0.00  0.00    +0.172 C 
ATOM      8  C   UNL     1     -36.179  30.922   1.963  0.00  0.00    +0.039 C 
ATOM      9  C   UNL     1     -34.575  32.716   1.740  0.00  0.00    +0.003 C 
ATOM     10  C   UNL     1     -33.569  31.879   2.224  0.00  0.00    +0.040 C 
ENDROOT
BRANCH   5  13
ATOM     11  O   UNL     1     -37.843  33.449   2.198  0.00  0.00    -0.471 OA
ATOM     12  O   UNL     1     -39.201  33.569  -1.672  0.00  0.00    -0.288 OA
ATOM     13  C   UNL     1     -36.973  33.154   1.094  0.00  0.00    +0.222 C 
ATOM     14  C   UNL     1     -37.743  32.516  -0.063  0.00  0.00    +0.217 C 
ATOM     15  C   UNL     1     -38.830  33.469  -0.509  0.00  0.00    +0.209 C 
ATOM     16  C   UNL     1     -39.458  34.266   0.563  0.00  0.00    +0.105 C 
ATOM     17  C   UNL     1     -38.938  34.197   1.857  0.00  0.00    +0.148 C 
ATOM     18  C   UNL     1     -40.577  35.058   0.292  0.00  0.00    +0.142 C 
ATOM     19  C   UNL     1     -39.562  34.896   2.891  0.00  0.00    +0.074 C 
ATOM     20  C   UNL     1     -40.682  35.685   2.625  0.00  0.00    +0.140 C 
ATOM     21  C   UNL     1     -41.185  35.769   1.327  0.00  0.00    +0.073 C 
BRANCH  14  22
ATOM     22  O   UNL     1     -36.876  32.288  -1.160  0.00  0.00    -0.374 OA
ATOM     23  H   UNL     1     -36.119  32.892  -1.105  0.00  0.00    +0.211 HD
ENDBRANCH  14  22
BRANCH  18  24
ATOM     24  O   UNL     1     -41.122  35.162  -0.952  0.00  0.00    -0.505 OA
ATOM     25  H   UNL     1     -40.707  34.747  -1.682  0.00  0.00    +0.292 HD
ENDBRANCH  18  24
BRANCH  20  26
ATOM     26  O   UNL     1     -41.283  36.375   3.634  0.00  0.00    -0.505 OA
ATOM     27  H   UNL     1     -40.859  36.452   4.466  0.00  0.00    +0.292 HD
ENDBRANCH  20  26
ENDBRANCH   5  13
BRANCH   3  28
ATOM     28  C   UNL     1     -34.899  26.633   3.484  0.00  0.00    +0.024 C 
ATOM     29  C   UNL     1     -34.807  25.449   2.753  0.00  0.00    +0.039 C 
ATOM     30  C   UNL     1     -35.464  26.625   4.758  0.00  0.00    +0.003 C 
ATOM     31  C   UNL     1     -35.280  24.256   3.299  0.00  0.00    +0.172 C 
ATOM     32  C   UNL     1     -35.938  25.433   5.303  0.00  0.00    +0.040 C 
ATOM     33  C   UNL     1     -35.845  24.248   4.574  0.00  0.00    +0.168 C 
BRANCH  31  34
ATOM     34  O   UNL     1     -35.187  23.105   2.575  0.00  0.00    -0.468 OA
ATOM     35  C   UNL     1     -36.185  22.882   1.581  0.00  0.00    +0.253 C 
ENDBRANCH  31  34
BRANCH  33  36
ATOM     36  O   UNL     1     -36.312  23.089   5.118  0.00  0.00    -0.503 OA
ATOM     37  H   UNL     1     -35.775  22.600   5.710  0.00  0.00    +0.292 HD
ENDBRANCH  33  36
ENDBRANCH   3  28
BRANCH   4  38
ATOM     38  C   UNL     1     -32.083  27.748   3.983  0.00  0.00    +0.185 C 
BRANCH  38  39
ATOM     39  O   UNL     1     -31.810  27.718   5.370  0.00  0.00    -0.378 OA
ATOM     40  H   UNL     1     -32.609  27.960   5.864  0.00  0.00    +0.211 HD
ENDBRANCH  38  39
ENDBRANCH   4  38
TORSDOF 9
ENDMDL
