MODEL 1
REMARK VINA RESULT:      -6.0      0.000      0.000
REMARK  Name = 5281160
REMARK  4 active torsions:
REMARK  status: ('A' for Active; 'I' for Inactive)
REMARK    1  A    between atoms: C_5  and  C_22
REMARK    2  A    between atoms: C_6  and  O_18
REMARK    3  A    between atoms: C_12  and  O_20
REMARK    4  A    between atoms: C_22  and  C_23
REMARK                            x       y       z     vdW  Elec       q    Type
REMARK                         _______ _______ _______ _____ _____    ______ ____
ROOT
ATOM      1  O   UNL     1     -34.652  24.200   5.875  0.00  0.00    -0.386 OA
ATOM      2  O   UNL     1     -38.048  24.751   3.729  0.00  0.00    -0.293 OA
ATOM      3  O   UNL     1     -35.909  22.287   5.973  0.00  0.00    -0.245 OA
ATOM      4  O   UNL     1     -33.524  26.016   5.039  0.00  0.00    -0.245 OA
ATOM      5  C   UNL     1     -35.922  22.361   2.908  0.00  0.00    +0.063 C 
ATOM      6  C   UNL     1     -37.434  22.629   2.795  0.00  0.00    +0.172 C 
ATOM      7  C   UNL     1     -35.262  23.286   3.886  0.00  0.00    +0.059 C 
ATOM      8  C   UNL     1     -34.589  24.406   3.615  0.00  0.00    +0.060 C 
ATOM      9  C   UNL     1     -34.272  25.027   2.297  0.00  0.00    +0.057 C 
ATOM     10  C   UNL     1     -37.783  24.116   2.702  0.00  0.00    +0.180 C 
ATOM     11  C   UNL     1     -37.781  24.823   1.357  0.00  0.00    +0.100 C 
ATOM     12  C   UNL     1     -36.413  25.191   0.768  0.00  0.00    +0.136 C 
ATOM     13  C   UNL     1     -35.420  25.834   1.723  0.00  0.00    -0.017 C 
ATOM     14  C   UNL     1     -35.335  23.156   5.343  0.00  0.00    +0.344 C 
ATOM     15  C   UNL     1     -34.173  24.997   4.888  0.00  0.00    +0.344 C 
ATOM     16  C   UNL     1     -35.511  27.150   1.988  0.00  0.00    -0.032 C 
ATOM     17  C   UNL     1     -36.598  28.023   1.472  0.00  0.00    +0.030 C 
ENDROOT
BRANCH   6  18
ATOM     18  O   UNL     1     -37.954  21.944   1.668  0.00  0.00    -0.377 OA
ATOM     19  H   UNL     1     -38.903  21.790   1.792  0.00  0.00    +0.211 HD
ENDBRANCH   6  18
BRANCH  12  20
ATOM     20  O   UNL     1     -35.841  24.071   0.098  0.00  0.00    -0.380 OA
ATOM     21  H   UNL     1     -36.526  23.404  -0.061  0.00  0.00    +0.211 HD
ENDBRANCH  12  20
BRANCH   5  22
ATOM     22  C   UNL     1     -35.639  20.882   3.210  0.00  0.00    +0.007 C 
BRANCH  22  23
ATOM     23  C   UNL     1     -34.926  20.216   2.043  0.00  0.00    +0.000 C 
ATOM     24  C   UNL     1     -34.377  21.255   1.079  0.00  0.00    +0.000 C 
ENDBRANCH  22  23
ENDBRANCH   5  22
TORSDOF 4
ENDMDL
MODEL 2
REMARK VINA RESULT:      -5.9      2.068      4.703
REMARK  Name = 5281160
REMARK  4 active torsions:
REMARK  status: ('A' for Active; 'I' for Inactive)
REMARK    1  A    between atoms: C_5  and  C_22
REMARK    2  A    between atoms: C_6  and  O_18
REMARK    3  A    between atoms: C_12  and  O_20
REMARK    4  A    between atoms: C_22  and  C_23
REMARK                            x       y       z     vdW  Elec       q    Type
REMARK                         _______ _______ _______ _____ _____    ______ ____
ROOT
ATOM      1  O   UNL     1     -38.154  20.808   1.439  0.00  0.00    -0.386 OA
ATOM      2  O   UNL     1     -37.005  24.352  -0.160  0.00  0.00    -0.293 OA
ATOM      3  O   UNL     1     -35.881  21.011   1.644  0.00  0.00    -0.245 OA
ATOM      4  O   UNL     1     -40.396  21.290   1.546  0.00  0.00    -0.245 OA
ATOM      5  C   UNL     1     -36.433  23.692   3.025  0.00  0.00    +0.063 C 
ATOM      6  C   UNL     1     -35.803  24.542   1.907  0.00  0.00    +0.172 C 
ATOM      7  C   UNL     1     -37.395  22.678   2.481  0.00  0.00    +0.059 C 
ATOM      8  C   UNL     1     -38.725  22.774   2.418  0.00  0.00    +0.060 C 
ATOM      9  C   UNL     1     -39.621  23.869   2.891  0.00  0.00    +0.057 C 
ATOM     10  C   UNL     1     -36.814  25.020   0.861  0.00  0.00    +0.180 C 
ATOM     11  C   UNL     1     -37.603  26.300   1.087  0.00  0.00    +0.100 C 
ATOM     12  C   UNL     1     -38.777  26.227   2.071  0.00  0.00    +0.136 C 
ATOM     13  C   UNL     1     -39.706  25.033   1.924  0.00  0.00    -0.017 C 
ATOM     14  C   UNL     1     -37.011  21.426   1.826  0.00  0.00    +0.344 C 
ATOM     15  C   UNL     1     -39.230  21.566   1.765  0.00  0.00    +0.344 C 
ATOM     16  C   UNL     1     -40.669  25.052   0.984  0.00  0.00    -0.032 C 
ATOM     17  C   UNL     1     -40.833  26.148  -0.008  0.00  0.00    +0.030 C 
ENDROOT
BRANCH   6  18
ATOM     18  O   UNL     1     -35.138  25.657   2.476  0.00  0.00    -0.377 OA
ATOM     19  H   UNL     1     -35.766  26.174   3.004  0.00  0.00    +0.211 HD
ENDBRANCH   6  18
BRANCH  12  20
ATOM     20  O   UNL     1     -38.314  26.365   3.411  0.00  0.00    -0.380 OA
ATOM     21  H   UNL     1     -37.395  26.675   3.406  0.00  0.00    +0.211 HD
ENDBRANCH  12  20
BRANCH   5  22
ATOM     22  C   UNL     1     -35.358  23.064   3.923  0.00  0.00    +0.007 C 
BRANCH  22  23
ATOM     23  C   UNL     1     -35.577  23.443   5.380  0.00  0.00    +0.000 C 
ATOM     24  C   UNL     1     -35.471  22.223   6.279  0.00  0.00    +0.000 C 
ENDBRANCH  22  23
ENDBRANCH   5  22
TORSDOF 4
ENDMDL
MODEL 3
REMARK VINA RESULT:      -5.9      2.148      3.225
REMARK  Name = 5281160
REMARK  4 active torsions:
REMARK  status: ('A' for Active; 'I' for Inactive)
REMARK    1  A    between atoms: C_5  and  C_22
REMARK    2  A    between atoms: C_6  and  O_18
REMARK    3  A    between atoms: C_12  and  O_20
REMARK    4  A    between atoms: C_22  and  C_23
REMARK                            x       y       z     vdW  Elec       q    Type
REMARK                         _______ _______ _______ _____ _____    ______ ____
ROOT
ATOM      1  O   UNL     1     -32.684  26.609   3.646  0.00  0.00    -0.386 OA
ATOM      2  O   UNL     1     -36.457  27.374   2.374  0.00  0.00    -0.293 OA
ATOM      3  O   UNL     1     -34.062  26.770   5.470  0.00  0.00    -0.245 OA
ATOM      4  O   UNL     1     -31.849  25.973   1.605  0.00  0.00    -0.245 OA
ATOM      5  C   UNL     1     -35.800  24.642   4.110  0.00  0.00    +0.063 C 
ATOM      6  C   UNL     1     -36.995  25.584   3.877  0.00  0.00    +0.172 C 
ATOM      7  C   UNL     1     -34.508  25.255   3.659  0.00  0.00    +0.059 C 
ATOM      8  C   UNL     1     -33.872  25.049   2.504  0.00  0.00    +0.060 C 
ATOM      9  C   UNL     1     -34.229  24.145   1.372  0.00  0.00    +0.057 C 
ATOM     10  C   UNL     1     -36.979  26.262   2.505  0.00  0.00    +0.180 C 
ATOM     11  C   UNL     1     -37.580  25.561   1.297  0.00  0.00    +0.100 C 
ATOM     12  C   UNL     1     -36.750  24.438   0.662  0.00  0.00    +0.136 C 
ATOM     13  C   UNL     1     -35.274  24.731   0.444  0.00  0.00    -0.017 C 
ATOM     14  C   UNL     1     -33.767  26.282   4.394  0.00  0.00    +0.344 C 
ATOM     15  C   UNL     1     -32.683  25.902   2.489  0.00  0.00    +0.344 C 
ATOM     16  C   UNL     1     -34.891  25.441  -0.633  0.00  0.00    -0.032 C 
ATOM     17  C   UNL     1     -35.841  26.055  -1.599  0.00  0.00    +0.030 C 
ENDROOT
BRANCH   6  18
ATOM     18  O   UNL     1     -38.205  24.865   4.043  0.00  0.00    -0.377 OA
ATOM     19  H   UNL     1     -38.011  23.980   4.388  0.00  0.00    +0.211 HD
ENDBRANCH   6  18
BRANCH  12  20
ATOM     20  O   UNL     1     -36.939  23.217   1.371  0.00  0.00    -0.380 OA
ATOM     21  H   UNL     1     -37.760  23.265   1.886  0.00  0.00    +0.211 HD
ENDBRANCH  12  20
BRANCH   5  22
ATOM     22  C   UNL     1     -35.747  24.156   5.565  0.00  0.00    +0.007 C 
BRANCH  22  23
ATOM     23  C   UNL     1     -34.825  22.953   5.703  0.00  0.00    +0.000 C 
ATOM     24  C   UNL     1     -35.560  21.775   6.322  0.00  0.00    +0.000 C 
ENDBRANCH  22  23
ENDBRANCH   5  22
TORSDOF 4
ENDMDL
MODEL 4
REMARK VINA RESULT:      -5.7      2.279      4.765
REMARK  Name = 5281160
REMARK  4 active torsions:
REMARK  status: ('A' for Active; 'I' for Inactive)
REMARK    1  A    between atoms: C_5  and  C_22
REMARK    2  A    between atoms: C_6  and  O_18
REMARK    3  A    between atoms: C_12  and  O_20
REMARK    4  A    between atoms: C_22  and  C_23
REMARK                            x       y       z     vdW  Elec       q    Type
REMARK                         _______ _______ _______ _____ _____    ______ ____
ROOT
ATOM      1  O   UNL     1     -36.138  22.026   0.493  0.00  0.00    -0.386 OA
ATOM      2  O   UNL     1     -37.385  25.869   0.825  0.00  0.00    -0.293 OA
ATOM      3  O   UNL     1     -34.528  23.235   1.587  0.00  0.00    -0.245 OA
ATOM      4  O   UNL     1     -38.179  21.142  -0.075  0.00  0.00    -0.245 OA
ATOM      5  C   UNL     1     -36.747  24.080   3.527  0.00  0.00    +0.063 C 
ATOM      6  C   UNL     1     -36.722  25.562   3.109  0.00  0.00    +0.172 C 
ATOM      7  C   UNL     1     -36.809  23.166   2.340  0.00  0.00    +0.059 C 
ATOM      8  C   UNL     1     -37.890  22.577   1.826  0.00  0.00    +0.060 C 
ATOM      9  C   UNL     1     -39.307  22.621   2.291  0.00  0.00    +0.057 C 
ATOM     10  C   UNL     1     -37.732  25.903   2.011  0.00  0.00    +0.180 C 
ATOM     11  C   UNL     1     -39.166  26.256   2.370  0.00  0.00    +0.100 C 
ATOM     12  C   UNL     1     -40.093  25.095   2.750  0.00  0.00    +0.136 C 
ATOM     13  C   UNL     1     -40.043  23.871   1.850  0.00  0.00    -0.017 C 
ATOM     14  C   UNL     1     -35.675  22.842   1.472  0.00  0.00    +0.344 C 
ATOM     15  C   UNL     1     -37.470  21.822   0.645  0.00  0.00    +0.344 C 
ATOM     16  C   UNL     1     -40.732  23.868   0.694  0.00  0.00    -0.032 C 
ATOM     17  C   UNL     1     -41.484  25.043   0.178  0.00  0.00    +0.030 C 
ENDROOT
BRANCH   6  18
ATOM     18  O   UNL     1     -36.955  26.378   4.245  0.00  0.00    -0.377 OA
ATOM     19  H   UNL     1     -37.664  25.992   4.781  0.00  0.00    +0.211 HD
ENDBRANCH   6  18
BRANCH  12  20
ATOM     20  O   UNL     1     -39.915  24.743   4.118  0.00  0.00    -0.380 OA
ATOM     21  H   UNL     1     -39.552  23.846   4.177  0.00  0.00    +0.211 HD
ENDBRANCH  12  20
BRANCH   5  22
ATOM     22  C   UNL     1     -35.582  23.746   4.469  0.00  0.00    +0.007 C 
BRANCH  22  23
ATOM     23  C   UNL     1     -35.651  22.296   4.925  0.00  0.00    +0.000 C 
ATOM     24  C   UNL     1     -35.334  22.178   6.407  0.00  0.00    +0.000 C 
ENDBRANCH  22  23
ENDBRANCH   5  22
TORSDOF 4
ENDMDL
MODEL 5
REMARK VINA RESULT:      -5.6      1.860      4.985
REMARK  Name = 5281160
REMARK  4 active torsions:
REMARK  status: ('A' for Active; 'I' for Inactive)
REMARK    1  A    between atoms: C_5  and  C_22
REMARK    2  A    between atoms: C_6  and  O_18
REMARK    3  A    between atoms: C_12  and  O_20
REMARK    4  A    between atoms: C_22  and  C_23
REMARK                            x       y       z     vdW  Elec       q    Type
REMARK                         _______ _______ _______ _____ _____    ______ ____
ROOT
ATOM      1  O   UNL     1     -38.323  22.225   0.874  0.00  0.00    -0.386 OA
ATOM      2  O   UNL     1     -38.185  24.617   4.145  0.00  0.00    -0.293 OA
ATOM      3  O   UNL     1     -39.033  24.323   0.288  0.00  0.00    -0.245 OA
ATOM      4  O   UNL     1     -37.041  20.530   1.742  0.00  0.00    -0.245 OA
ATOM      5  C   UNL     1     -36.393  25.343   1.468  0.00  0.00    +0.063 C 
ATOM      6  C   UNL     1     -37.059  26.098   2.632  0.00  0.00    +0.172 C 
ATOM      7  C   UNL     1     -36.909  23.940   1.344  0.00  0.00    +0.059 C 
ATOM      8  C   UNL     1     -36.341  22.824   1.804  0.00  0.00    +0.060 C 
ATOM      9  C   UNL     1     -35.045  22.644   2.521  0.00  0.00    +0.057 C 
ATOM     10  C   UNL     1     -37.162  25.271   3.916  0.00  0.00    +0.180 C 
ATOM     11  C   UNL     1     -36.001  25.229   4.896  0.00  0.00    +0.100 C 
ATOM     12  C   UNL     1     -34.805  24.346   4.519  0.00  0.00    +0.136 C 
ATOM     13  C   UNL     1     -35.132  22.954   4.002  0.00  0.00    -0.017 C 
ATOM     14  C   UNL     1     -38.204  23.571   0.767  0.00  0.00    +0.344 C 
ATOM     15  C   UNL     1     -37.232  21.706   1.491  0.00  0.00    +0.344 C 
ATOM     16  C   UNL     1     -35.413  21.970   4.876  0.00  0.00    -0.032 C 
ATOM     17  C   UNL     1     -35.519  22.175   6.345  0.00  0.00    +0.030 C 
ENDROOT
BRANCH   6  18
ATOM     18  O   UNL     1     -36.345  27.296   2.890  0.00  0.00    -0.377 OA
ATOM     19  H   UNL     1     -35.823  27.194   3.700  0.00  0.00    +0.211 HD
ENDBRANCH   6  18
BRANCH  12  20
ATOM     20  O   UNL     1     -33.934  25.040   3.632  0.00  0.00    -0.380 OA
ATOM     21  H   UNL     1     -33.970  24.629   2.754  0.00  0.00    +0.211 HD
ENDBRANCH  12  20
BRANCH   5  22
ATOM     22  C   UNL     1     -36.504  26.130   0.155  0.00  0.00    +0.007 C 
BRANCH  22  23
ATOM     23  C   UNL     1     -35.232  25.998  -0.668  0.00  0.00    +0.000 C 
ATOM     24  C   UNL     1     -34.009  25.931   0.232  0.00  0.00    +0.000 C 
ENDBRANCH  22  23
ENDBRANCH   5  22
TORSDOF 4
ENDMDL
MODEL 6
REMARK VINA RESULT:      -5.6      2.534      5.477
REMARK  Name = 5281160
REMARK  4 active torsions:
REMARK  status: ('A' for Active; 'I' for Inactive)
REMARK    1  A    between atoms: C_5  and  C_22
REMARK    2  A    between atoms: C_6  and  O_18
REMARK    3  A    between atoms: C_12  and  O_20
REMARK    4  A    between atoms: C_22  and  C_23
REMARK                            x       y       z     vdW  Elec       q    Type
REMARK                         _______ _______ _______ _____ _____    ______ ____
ROOT
ATOM      1  O   UNL     1     -32.777  26.230   0.857  0.00  0.00    -0.386 OA
ATOM      2  O   UNL     1     -36.173  24.216   1.779  0.00  0.00    -0.293 OA
ATOM      3  O   UNL     1     -34.487  27.026  -0.444  0.00  0.00    -0.245 OA
ATOM      4  O   UNL     1     -31.578  25.565   2.698  0.00  0.00    -0.245 OA
ATOM      5  C   UNL     1     -36.013  27.491   2.174  0.00  0.00    +0.063 C 
ATOM      6  C   UNL     1     -37.090  26.430   1.882  0.00  0.00    +0.172 C 
ATOM      7  C   UNL     1     -34.629  26.958   1.953  0.00  0.00    +0.059 C 
ATOM      8  C   UNL     1     -33.783  26.493   2.875  0.00  0.00    +0.060 C 
ATOM      9  C   UNL     1     -33.946  26.405   4.355  0.00  0.00    +0.057 C 
ATOM     10  C   UNL     1     -36.764  25.054   2.469  0.00  0.00    +0.180 C 
ATOM     11  C   UNL     1     -37.141  24.723   3.904  0.00  0.00    +0.100 C 
ATOM     12  C   UNL     1     -36.254  25.314   5.008  0.00  0.00    +0.136 C 
ATOM     13  C   UNL     1     -34.753  25.201   4.799  0.00  0.00    -0.017 C 
ATOM     14  C   UNL     1     -34.004  26.767   0.643  0.00  0.00    +0.344 C 
ATOM     15  C   UNL     1     -32.576  26.037   2.184  0.00  0.00    +0.344 C 
ATOM     16  C   UNL     1     -34.126  24.048   5.096  0.00  0.00    -0.032 C 
ATOM     17  C   UNL     1     -34.830  22.815   5.539  0.00  0.00    +0.030 C 
ENDROOT
BRANCH   6  18
ATOM     18  O   UNL     1     -38.342  26.877   2.376  0.00  0.00    -0.377 OA
ATOM     19  H   UNL     1     -38.738  26.186   2.927  0.00  0.00    +0.211 HD
ENDBRANCH   6  18
BRANCH  12  20
ATOM     20  O   UNL     1     -36.641  26.654   5.294  0.00  0.00    -0.380 OA
ATOM     21  H   UNL     1     -37.606  26.732   5.235  0.00  0.00    +0.211 HD
ENDBRANCH  12  20
BRANCH   5  22
ATOM     22  C   UNL     1     -36.279  28.786   1.393  0.00  0.00    +0.007 C 
BRANCH  22  23
ATOM     23  C   UNL     1     -35.294  29.874   1.793  0.00  0.00    +0.000 C 
ATOM     24  C   UNL     1     -36.018  31.065   2.398  0.00  0.00    +0.000 C 
ENDBRANCH  22  23
ENDBRANCH   5  22
TORSDOF 4
ENDMDL
MODEL 7
REMARK VINA RESULT:      -5.6      1.622      4.246
REMARK  Name = 5281160
REMARK  4 active torsions:
REMARK  status: ('A' for Active; 'I' for Inactive)
REMARK    1  A    between atoms: C_5  and  C_22
REMARK    2  A    between atoms: C_6  and  O_18
REMARK    3  A    between atoms: C_12  and  O_20
REMARK    4  A    between atoms: C_22  and  C_23
REMARK                            x       y       z     vdW  Elec       q    Type
REMARK                         _______ _______ _______ _____ _____    ______ ____
ROOT
ATOM      1  O   UNL     1     -35.409  23.237   5.651  0.00  0.00    -0.386 OA
ATOM      2  O   UNL     1     -33.962  24.616   2.123  0.00  0.00    -0.293 OA
ATOM      3  O   UNL     1     -36.036  25.426   5.398  0.00  0.00    -0.245 OA
ATOM      4  O   UNL     1     -35.076  21.009   5.210  0.00  0.00    -0.245 OA
ATOM      5  C   UNL     1     -37.215  24.582   2.696  0.00  0.00    +0.063 C 
ATOM      6  C   UNL     1     -36.214  25.400   1.861  0.00  0.00    +0.172 C 
ATOM      7  C   UNL     1     -36.526  23.756   3.742  0.00  0.00    +0.059 C 
ATOM      8  C   UNL     1     -36.209  22.461   3.674  0.00  0.00    +0.060 C 
ATOM      9  C   UNL     1     -36.475  21.475   2.586  0.00  0.00    +0.057 C 
ATOM     10  C   UNL     1     -34.984  24.599   1.427  0.00  0.00    +0.180 C 
ATOM     11  C   UNL     1     -35.021  23.763   0.158  0.00  0.00    +0.100 C 
ATOM     12  C   UNL     1     -35.767  22.424   0.231  0.00  0.00    +0.136 C 
ATOM     13  C   UNL     1     -35.478  21.558   1.447  0.00  0.00    -0.017 C 
ATOM     14  C   UNL     1     -35.989  24.276   5.001  0.00  0.00    +0.344 C 
ATOM     15  C   UNL     1     -35.505  22.107   4.907  0.00  0.00    +0.344 C 
ATOM     16  C   UNL     1     -34.372  20.791   1.468  0.00  0.00    -0.032 C 
ATOM     17  C   UNL     1     -33.339  20.802   0.399  0.00  0.00    +0.030 C 
ENDROOT
BRANCH   6  18
ATOM     18  O   UNL     1     -36.869  25.928   0.720  0.00  0.00    -0.377 OA
ATOM     19  H   UNL     1     -36.215  26.324   0.125  0.00  0.00    +0.211 HD
ENDBRANCH   6  18
BRANCH  12  20
ATOM     20  O   UNL     1     -37.166  22.622   0.053  0.00  0.00    -0.380 OA
ATOM     21  H   UNL     1     -37.655  21.961   0.568  0.00  0.00    +0.211 HD
ENDBRANCH  12  20
BRANCH   5  22
ATOM     22  C   UNL     1     -38.316  25.476   3.282  0.00  0.00    +0.007 C 
BRANCH  22  23
ATOM     23  C   UNL     1     -39.649  24.743   3.320  0.00  0.00    +0.000 C 
ATOM     24  C   UNL     1     -39.775  23.786   2.146  0.00  0.00    +0.000 C 
ENDBRANCH  22  23
ENDBRANCH   5  22
TORSDOF 4
ENDMDL
MODEL 8
REMARK VINA RESULT:      -5.6      1.756      4.111
REMARK  Name = 5281160
REMARK  4 active torsions:
REMARK  status: ('A' for Active; 'I' for Inactive)
REMARK    1  A    between atoms: C_5  and  C_22
REMARK    2  A    between atoms: C_6  and  O_18
REMARK    3  A    between atoms: C_12  and  O_20
REMARK    4  A    between atoms: C_22  and  C_23
REMARK                            x       y       z     vdW  Elec       q    Type
REMARK                         _______ _______ _______ _____ _____    ______ ____
ROOT
ATOM      1  O   UNL     1     -37.564  22.220   2.304  0.00  0.00    -0.386 OA
ATOM      2  O   UNL     1     -34.917  24.715   0.514  0.00  0.00    -0.293 OA
ATOM      3  O   UNL     1     -35.440  21.584   2.882  0.00  0.00    -0.245 OA
ATOM      4  O   UNL     1     -39.421  23.523   1.955  0.00  0.00    -0.245 OA
ATOM      5  C   UNL     1     -35.026  24.478   3.806  0.00  0.00    +0.063 C 
ATOM      6  C   UNL     1     -33.985  24.809   2.721  0.00  0.00    +0.172 C 
ATOM      7  C   UNL     1     -36.244  23.821   3.229  0.00  0.00    +0.059 C 
ATOM      8  C   UNL     1     -37.407  24.398   2.921  0.00  0.00    +0.060 C 
ATOM      9  C   UNL     1     -37.838  25.816   3.092  0.00  0.00    +0.057 C 
ATOM     10  C   UNL     1     -34.592  25.435   1.464  0.00  0.00    +0.180 C 
ATOM     11  C   UNL     1     -34.823  26.935   1.389  0.00  0.00    +0.100 C 
ATOM     12  C   UNL     1     -36.032  27.491   2.152  0.00  0.00    +0.136 C 
ATOM     13  C   UNL     1     -37.339  26.730   1.990  0.00  0.00    -0.017 C 
ATOM     14  C   UNL     1     -36.322  22.420   2.809  0.00  0.00    +0.344 C 
ATOM     15  C   UNL     1     -38.276  23.373   2.341  0.00  0.00    +0.344 C 
ATOM     16  C   UNL     1     -38.099  26.941   0.900  0.00  0.00    -0.032 C 
ATOM     17  C   UNL     1     -37.695  27.818  -0.231  0.00  0.00    +0.030 C 
ENDROOT
BRANCH   6  18
ATOM     18  O   UNL     1     -32.999  25.674   3.260  0.00  0.00    -0.377 OA
ATOM     19  H   UNL     1     -32.346  25.155   3.754  0.00  0.00    +0.211 HD
ENDBRANCH   6  18
BRANCH  12  20
ATOM     20  O   UNL     1     -35.709  27.684   3.526  0.00  0.00    -0.380 OA
ATOM     21  H   UNL     1     -35.032  28.374   3.606  0.00  0.00    +0.211 HD
ENDBRANCH  12  20
BRANCH   5  22
ATOM     22  C   UNL     1     -34.403  23.664   4.949  0.00  0.00    +0.007 C 
BRANCH  22  23
ATOM     23  C   UNL     1     -35.426  23.387   6.040  0.00  0.00    +0.000 C 
ATOM     24  C   UNL     1     -35.433  21.914   6.415  0.00  0.00    +0.000 C 
ENDBRANCH  22  23
ENDBRANCH   5  22
TORSDOF 4
ENDMDL
MODEL 9
REMARK VINA RESULT:      -5.5      2.293      5.300
REMARK  Name = 5281160
REMARK  4 active torsions:
REMARK  status: ('A' for Active; 'I' for Inactive)
REMARK    1  A    between atoms: C_5  and  C_22
REMARK    2  A    between atoms: C_6  and  O_18
REMARK    3  A    between atoms: C_12  and  O_20
REMARK    4  A    between atoms: C_22  and  C_23
REMARK                            x       y       z     vdW  Elec       q    Type
REMARK                         _______ _______ _______ _____ _____    ______ ____
ROOT
ATOM      1  O   UNL     1     -32.336  27.392   4.258  0.00  0.00    -0.386 OA
ATOM      2  O   UNL     1     -34.030  24.358   2.169  0.00  0.00    -0.293 OA
ATOM      3  O   UNL     1     -32.603  28.052   2.079  0.00  0.00    -0.245 OA
ATOM      4  O   UNL     1     -32.795  26.554   6.344  0.00  0.00    -0.245 OA
ATOM      5  C   UNL     1     -35.552  27.279   2.404  0.00  0.00    +0.063 C 
ATOM      6  C   UNL     1     -35.486  26.106   1.409  0.00  0.00    +0.172 C 
ATOM      7  C   UNL     1     -34.434  27.231   3.401  0.00  0.00    +0.059 C 
ATOM      8  C   UNL     1     -34.479  26.756   4.648  0.00  0.00    +0.060 C 
ATOM      9  C   UNL     1     -35.631  26.188   5.406  0.00  0.00    +0.057 C 
ATOM     10  C   UNL     1     -35.195  24.759   2.075  0.00  0.00    +0.180 C 
ATOM     11  C   UNL     1     -36.330  23.924   2.644  0.00  0.00    +0.100 C 
ATOM     12  C   UNL     1     -36.913  24.371   3.990  0.00  0.00    +0.136 C 
ATOM     13  C   UNL     1     -35.909  24.735   5.072  0.00  0.00    -0.017 C 
ATOM     14  C   UNL     1     -33.049  27.618   3.126  0.00  0.00    +0.344 C 
ATOM     15  C   UNL     1     -33.137  26.872   5.220  0.00  0.00    +0.344 C 
ATOM     16  C   UNL     1     -35.332  23.760   5.798  0.00  0.00    -0.032 C 
ATOM     17  C   UNL     1     -35.543  22.309   5.547  0.00  0.00    +0.030 C 
ENDROOT
BRANCH   6  18
ATOM     18  O   UNL     1     -36.702  26.030   0.684  0.00  0.00    -0.377 OA
ATOM     19  H   UNL     1     -37.276  26.770   0.935  0.00  0.00    +0.211 HD
ENDBRANCH   6  18
BRANCH  12  20
ATOM     20  O   UNL     1     -37.871  25.408   3.799  0.00  0.00    -0.380 OA
ATOM     21  H   UNL     1     -37.560  26.219   4.228  0.00  0.00    +0.211 HD
ENDBRANCH  12  20
BRANCH   5  22
ATOM     22  C   UNL     1     -35.634  28.627   1.673  0.00  0.00    +0.007 C 
BRANCH  22  23
ATOM     23  C   UNL     1     -35.565  29.784   2.658  0.00  0.00    +0.000 C 
ATOM     24  C   UNL     1     -36.006  31.082   2.001  0.00  0.00    +0.000 C 
ENDBRANCH  22  23
ENDBRANCH   5  22
TORSDOF 4
ENDMDL
