MODEL 1
REMARK VINA RESULT:      -7.5      0.000      0.000
REMARK  Name = 5330790
REMARK  4 active torsions:
REMARK  status: ('A' for Active; 'I' for Inactive)
REMARK    1  A    between atoms: N_2  and  C_21
REMARK    2  A    between atoms: C_8  and  C_15
REMARK    3  A    between atoms: C_22  and  S_27
REMARK    4  A    between atoms: S_27  and  N_30
REMARK                            x       y       z     vdW  Elec       q    Type
REMARK                         _______ _______ _______ _____ _____    ______ ____
ROOT
ATOM      1  O   UNL     1     -35.043  21.555   3.290  0.00  0.00    -0.268 OA
ATOM      2  N   UNL     1     -40.263  23.167   1.894  0.00  0.00    -0.246 N 
ATOM      3  N   UNL     1     -37.110  22.259   2.825  0.00  0.00    -0.103 N 
ATOM      4  N   UNL     1     -38.046  23.231   2.795  0.00  0.00    -0.088 NA
ATOM      5  N   UNL     1     -38.821  21.329   1.796  0.00  0.00    -0.304 NA
ATOM      6  N   UNL     1     -36.835  20.015   2.098  0.00  0.00    -0.319 N 
ATOM      7  C   UNL     1     -39.052  22.618   2.174  0.00  0.00    +0.167 C 
ATOM      8  C   UNL     1     -35.845  22.481   3.373  0.00  0.00    +0.280 C 
ATOM      9  C   UNL     1     -37.592  21.131   2.209  0.00  0.00    +0.273 C 
ATOM     10  H   UNL     1     -40.867  22.545   1.427  0.00  0.00    +0.165 HD
ATOM     11  H   UNL     1     -35.918  20.004   2.456  0.00  0.00    +0.146 HD
ATOM     12  H   UNL     1     -37.201  19.215   1.657  0.00  0.00    +0.146 HD
ENDROOT
BRANCH   8  15
ATOM     13  F   UNL     1     -35.883  22.836   6.168  0.00  0.00    -0.204 F 
ATOM     14  F   UNL     1     -34.913  24.700   1.908  0.00  0.00    -0.204 F 
ATOM     15  C   UNL     1     -35.408  23.736   4.022  0.00  0.00    +0.110 C 
ATOM     16  C   UNL     1     -35.449  23.854   5.412  0.00  0.00    +0.147 C 
ATOM     17  C   UNL     1     -34.956  24.803   3.244  0.00  0.00    +0.147 C 
ATOM     18  C   UNL     1     -35.038  25.039   6.023  0.00  0.00    +0.030 C 
ATOM     19  C   UNL     1     -34.545  25.986   3.856  0.00  0.00    +0.030 C 
ATOM     20  C   UNL     1     -34.585  26.105   5.245  0.00  0.00    +0.005 C 
ENDBRANCH   8  15
BRANCH   2  21
ATOM     21  C   UNL     1     -40.859  24.462   2.128  0.00  0.00    +0.058 C 
ATOM     22  C   UNL     1     -41.994  26.933   2.575  0.00  0.00    +0.122 C 
ATOM     23  C   UNL     1     -40.476  25.176   3.242  0.00  0.00    +0.017 C 
ATOM     24  C   UNL     1     -41.788  24.937   1.228  0.00  0.00    +0.017 C 
ATOM     25  C   UNL     1     -41.051  26.427   3.468  0.00  0.00    +0.021 C 
ATOM     26  C   UNL     1     -42.363  26.187   1.454  0.00  0.00    +0.021 C 
BRANCH  22  27
ATOM     27  S   UNL     1     -42.712  28.498   2.856  0.00  0.00    +0.057 S 
ATOM     28  O   UNL     1     -42.101  29.454   1.943  0.00  0.00    -0.153 OA
ATOM     29  O   UNL     1     -44.160  28.346   2.880  0.00  0.00    -0.153 OA
BRANCH  27  30
ATOM     30  N   UNL     1     -42.169  28.827   4.442  0.00  0.00    -0.203 NA
ATOM     31  H   UNL     1     -42.301  28.001   5.025  0.00  0.00    +0.144 HD
ATOM     32  H   UNL     1     -42.701  29.606   4.830  0.00  0.00    +0.144 HD
ENDBRANCH  27  30
ENDBRANCH  22  27
ENDBRANCH   2  21
TORSDOF 4
ENDMDL
MODEL 2
REMARK VINA RESULT:      -7.5      0.052      1.845
REMARK  Name = 5330790
REMARK  4 active torsions:
REMARK  status: ('A' for Active; 'I' for Inactive)
REMARK    1  A    between atoms: N_2  and  C_21
REMARK    2  A    between atoms: C_8  and  C_15
REMARK    3  A    between atoms: C_22  and  S_27
REMARK    4  A    between atoms: S_27  and  N_30
REMARK                            x       y       z     vdW  Elec       q    Type
REMARK                         _______ _______ _______ _____ _____    ______ ____
ROOT
ATOM      1  O   UNL     1     -35.030  21.519   3.263  0.00  0.00    -0.268 OA
ATOM      2  N   UNL     1     -40.253  23.132   1.880  0.00  0.00    -0.246 N 
ATOM      3  N   UNL     1     -37.097  22.224   2.803  0.00  0.00    -0.103 N 
ATOM      4  N   UNL     1     -38.032  23.198   2.772  0.00  0.00    -0.088 NA
ATOM      5  N   UNL     1     -38.814  21.292   1.786  0.00  0.00    -0.304 NA
ATOM      6  N   UNL     1     -36.828  19.976   2.086  0.00  0.00    -0.319 N 
ATOM      7  C   UNL     1     -39.042  22.582   2.158  0.00  0.00    +0.167 C 
ATOM      8  C   UNL     1     -35.829  22.447   3.345  0.00  0.00    +0.280 C 
ATOM      9  C   UNL     1     -37.583  21.094   2.195  0.00  0.00    +0.273 C 
ATOM     10  H   UNL     1     -40.859  22.509   1.419  0.00  0.00    +0.165 HD
ATOM     11  H   UNL     1     -35.910  19.965   2.441  0.00  0.00    +0.146 HD
ATOM     12  H   UNL     1     -37.198  19.174   1.651  0.00  0.00    +0.146 HD
ENDROOT
BRANCH   8  15
ATOM     13  F   UNL     1     -34.855  24.640   1.869  0.00  0.00    -0.204 F 
ATOM     14  F   UNL     1     -35.898  22.831   6.136  0.00  0.00    -0.204 F 
ATOM     15  C   UNL     1     -35.388  23.705   3.986  0.00  0.00    +0.110 C 
ATOM     16  C   UNL     1     -34.914  24.758   3.203  0.00  0.00    +0.147 C 
ATOM     17  C   UNL     1     -35.445  23.837   5.374  0.00  0.00    +0.147 C 
ATOM     18  C   UNL     1     -34.497  25.943   3.808  0.00  0.00    +0.030 C 
ATOM     19  C   UNL     1     -35.028  25.023   5.977  0.00  0.00    +0.030 C 
ATOM     20  C   UNL     1     -34.555  26.076   5.196  0.00  0.00    +0.005 C 
ENDBRANCH   8  15
BRANCH   2  21
ATOM     21  C   UNL     1     -40.845  24.429   2.110  0.00  0.00    +0.058 C 
ATOM     22  C   UNL     1     -41.978  26.902   2.550  0.00  0.00    +0.122 C 
ATOM     23  C   UNL     1     -41.749  24.918   1.192  0.00  0.00    +0.017 C 
ATOM     24  C   UNL     1     -40.488  25.130   3.241  0.00  0.00    +0.017 C 
ATOM     25  C   UNL     1     -42.321  26.170   1.414  0.00  0.00    +0.021 C 
ATOM     26  C   UNL     1     -41.060  26.382   3.464  0.00  0.00    +0.021 C 
BRANCH  22  27
ATOM     27  S   UNL     1     -42.696  28.468   2.830  0.00  0.00    +0.057 S 
ATOM     28  O   UNL     1     -42.064  29.430   1.938  0.00  0.00    -0.153 OA
ATOM     29  O   UNL     1     -44.144  28.322   2.825  0.00  0.00    -0.153 OA
BRANCH  27  30
ATOM     30  N   UNL     1     -42.182  28.781   4.430  0.00  0.00    -0.203 NA
ATOM     31  H   UNL     1     -42.943  29.211   4.954  0.00  0.00    +0.144 HD
ATOM     32  H   UNL     1     -41.381  29.413   4.413  0.00  0.00    +0.144 HD
ENDBRANCH  27  30
ENDBRANCH  22  27
ENDBRANCH   2  21
TORSDOF 4
ENDMDL
MODEL 3
REMARK VINA RESULT:      -7.5      4.876      6.645
REMARK  Name = 5330790
REMARK  4 active torsions:
REMARK  status: ('A' for Active; 'I' for Inactive)
REMARK    1  A    between atoms: N_2  and  C_21
REMARK    2  A    between atoms: C_8  and  C_15
REMARK    3  A    between atoms: C_22  and  S_27
REMARK    4  A    between atoms: S_27  and  N_30
REMARK                            x       y       z     vdW  Elec       q    Type
REMARK                         _______ _______ _______ _____ _____    ______ ____
ROOT
ATOM      1  O   UNL     1     -36.786  20.197   0.417  0.00  0.00    -0.268 OA
ATOM      2  N   UNL     1     -36.680  24.568   3.976  0.00  0.00    -0.246 N 
ATOM      3  N   UNL     1     -36.638  21.906   1.845  0.00  0.00    -0.103 N 
ATOM      4  N   UNL     1     -35.946  22.924   2.397  0.00  0.00    -0.088 NA
ATOM      5  N   UNL     1     -38.101  22.904   3.155  0.00  0.00    -0.304 NA
ATOM      6  N   UNL     1     -38.834  21.001   1.887  0.00  0.00    -0.319 N 
ATOM      7  C   UNL     1     -36.869  23.485   3.178  0.00  0.00    +0.167 C 
ATOM      8  C   UNL     1     -36.053  21.049   0.910  0.00  0.00    +0.280 C 
ATOM      9  C   UNL     1     -37.931  21.919   2.304  0.00  0.00    +0.273 C 
ATOM     10  H   UNL     1     -37.491  24.825   4.472  0.00  0.00    +0.165 HD
ATOM     11  H   UNL     1     -38.568  20.309   1.238  0.00  0.00    +0.146 HD
ATOM     12  H   UNL     1     -39.755  21.025   2.233  0.00  0.00    +0.146 HD
ENDROOT
BRANCH   8  15
ATOM     13  F   UNL     1     -34.137  19.146   1.714  0.00  0.00    -0.204 F 
ATOM     14  F   UNL     1     -35.076  23.071  -0.792  0.00  0.00    -0.204 F 
ATOM     15  C   UNL     1     -34.642  21.106   0.471  0.00  0.00    +0.110 C 
ATOM     16  C   UNL     1     -33.737  20.135   0.902  0.00  0.00    +0.147 C 
ATOM     17  C   UNL     1     -34.215  22.132  -0.372  0.00  0.00    +0.147 C 
ATOM     18  C   UNL     1     -32.406  20.190   0.488  0.00  0.00    +0.030 C 
ATOM     19  C   UNL     1     -32.885  22.186  -0.785  0.00  0.00    +0.030 C 
ATOM     20  C   UNL     1     -31.980  21.216  -0.356  0.00  0.00    +0.005 C 
ENDBRANCH   8  15
BRANCH   2  21
ATOM     21  C   UNL     1     -35.553  25.426   4.257  0.00  0.00    +0.058 C 
ATOM     22  C   UNL     1     -33.401  27.062   4.792  0.00  0.00    +0.122 C 
ATOM     23  C   UNL     1     -34.991  25.393   5.514  0.00  0.00    +0.017 C 
ATOM     24  C   UNL     1     -35.079  26.247   3.256  0.00  0.00    +0.017 C 
ATOM     25  C   UNL     1     -33.902  26.222   5.785  0.00  0.00    +0.021 C 
ATOM     26  C   UNL     1     -33.990  27.075   3.527  0.00  0.00    +0.021 C 
BRANCH  22  27
ATOM     27  S   UNL     1     -32.037  28.098   5.129  0.00  0.00    +0.057 S 
ATOM     28  O   UNL     1     -30.979  27.789   4.178  0.00  0.00    -0.153 OA
ATOM     29  O   UNL     1     -32.515  29.467   5.258  0.00  0.00    -0.153 OA
BRANCH  27  30
ATOM     30  N   UNL     1     -31.571  27.532   6.673  0.00  0.00    -0.203 NA
ATOM     31  H   UNL     1     -31.060  28.264   7.164  0.00  0.00    +0.144 HD
ATOM     32  H   UNL     1     -30.974  26.711   6.568  0.00  0.00    +0.144 HD
ENDBRANCH  27  30
ENDBRANCH  22  27
ENDBRANCH   2  21
TORSDOF 4
ENDMDL
MODEL 4
REMARK VINA RESULT:      -7.4      4.894      6.822
REMARK  Name = 5330790
REMARK  4 active torsions:
REMARK  status: ('A' for Active; 'I' for Inactive)
REMARK    1  A    between atoms: N_2  and  C_21
REMARK    2  A    between atoms: C_8  and  C_15
REMARK    3  A    between atoms: C_22  and  S_27
REMARK    4  A    between atoms: S_27  and  N_30
REMARK                            x       y       z     vdW  Elec       q    Type
REMARK                         _______ _______ _______ _____ _____    ______ ____
ROOT
ATOM      1  O   UNL     1     -36.768  20.228   0.392  0.00  0.00    -0.268 OA
ATOM      2  N   UNL     1     -36.639  24.561   3.998  0.00  0.00    -0.246 N 
ATOM      3  N   UNL     1     -36.611  21.922   1.839  0.00  0.00    -0.103 N 
ATOM      4  N   UNL     1     -35.915  22.934   2.397  0.00  0.00    -0.088 NA
ATOM      5  N   UNL     1     -38.065  22.907   3.167  0.00  0.00    -0.304 NA
ATOM      6  N   UNL     1     -38.807  21.018   1.883  0.00  0.00    -0.319 N 
ATOM      7  C   UNL     1     -36.833  23.487   3.190  0.00  0.00    +0.167 C 
ATOM      8  C   UNL     1     -36.031  21.075   0.891  0.00  0.00    +0.280 C 
ATOM      9  C   UNL     1     -37.901  21.931   2.305  0.00  0.00    +0.273 C 
ATOM     10  H   UNL     1     -37.446  24.813   4.501  0.00  0.00    +0.165 HD
ATOM     11  H   UNL     1     -38.546  20.334   1.225  0.00  0.00    +0.146 HD
ATOM     12  H   UNL     1     -39.726  21.039   2.234  0.00  0.00    +0.146 HD
ENDROOT
BRANCH   8  15
ATOM     13  F   UNL     1     -35.082  23.063  -0.865  0.00  0.00    -0.204 F 
ATOM     14  F   UNL     1     -34.094  19.210   1.731  0.00  0.00    -0.204 F 
ATOM     15  C   UNL     1     -34.623  21.136   0.445  0.00  0.00    +0.110 C 
ATOM     16  C   UNL     1     -34.210  22.144  -0.427  0.00  0.00    +0.147 C 
ATOM     17  C   UNL     1     -33.707  20.183   0.894  0.00  0.00    +0.147 C 
ATOM     18  C   UNL     1     -32.882  22.200  -0.848  0.00  0.00    +0.030 C 
ATOM     19  C   UNL     1     -32.380  20.241   0.472  0.00  0.00    +0.030 C 
ATOM     20  C   UNL     1     -31.966  21.249  -0.398  0.00  0.00    +0.005 C 
ENDBRANCH   8  15
BRANCH   2  21
ATOM     21  C   UNL     1     -35.509  25.415   4.282  0.00  0.00    +0.058 C 
ATOM     22  C   UNL     1     -33.352  27.044   4.822  0.00  0.00    +0.122 C 
ATOM     23  C   UNL     1     -35.003  25.443   5.563  0.00  0.00    +0.017 C 
ATOM     24  C   UNL     1     -34.976  26.171   3.260  0.00  0.00    +0.017 C 
ATOM     25  C   UNL     1     -33.912  26.268   5.836  0.00  0.00    +0.021 C 
ATOM     26  C   UNL     1     -33.885  26.995   3.533  0.00  0.00    +0.021 C 
BRANCH  22  27
ATOM     27  S   UNL     1     -31.985  28.074   5.163  0.00  0.00    +0.057 S 
ATOM     28  O   UNL     1     -30.956  27.816   4.166  0.00  0.00    -0.153 OA
ATOM     29  O   UNL     1     -32.469  29.433   5.368  0.00  0.00    -0.153 OA
BRANCH  27  30
ATOM     30  N   UNL     1     -31.468  27.444   6.664  0.00  0.00    -0.203 NA
ATOM     31  H   UNL     1     -31.984  27.896   7.419  0.00  0.00    +0.144 HD
ATOM     32  H   UNL     1     -30.470  27.620   6.782  0.00  0.00    +0.144 HD
ENDBRANCH  27  30
ENDBRANCH  22  27
ENDBRANCH   2  21
TORSDOF 4
ENDMDL
MODEL 5
REMARK VINA RESULT:      -7.0      5.201      7.531
REMARK  Name = 5330790
REMARK  4 active torsions:
REMARK  status: ('A' for Active; 'I' for Inactive)
REMARK    1  A    between atoms: N_2  and  C_21
REMARK    2  A    between atoms: C_8  and  C_15
REMARK    3  A    between atoms: C_22  and  S_27
REMARK    4  A    between atoms: S_27  and  N_30
REMARK                            x       y       z     vdW  Elec       q    Type
REMARK                         _______ _______ _______ _____ _____    ______ ____
ROOT
ATOM      1  O   UNL     1     -31.297  30.143   4.808  0.00  0.00    -0.268 OA
ATOM      2  N   UNL     1     -34.320  25.496   5.836  0.00  0.00    -0.246 N 
ATOM      3  N   UNL     1     -32.574  28.344   5.152  0.00  0.00    -0.103 N 
ATOM      4  N   UNL     1     -33.472  27.436   4.718  0.00  0.00    -0.088 NA
ATOM      5  N   UNL     1     -32.735  26.908   6.814  0.00  0.00    -0.304 NA
ATOM      6  N   UNL     1     -31.216  28.751   7.058  0.00  0.00    -0.319 N 
ATOM      7  C   UNL     1     -33.537  26.603   5.756  0.00  0.00    +0.167 C 
ATOM      8  C   UNL     1     -32.169  29.412   4.347  0.00  0.00    +0.280 C 
ATOM      9  C   UNL     1     -32.136  28.001   6.406  0.00  0.00    +0.273 C 
ATOM     10  H   UNL     1     -34.218  25.015   6.689  0.00  0.00    +0.165 HD
ATOM     11  H   UNL     1     -30.844  29.556   6.630  0.00  0.00    +0.146 HD
ATOM     12  H   UNL     1     -30.919  28.491   7.959  0.00  0.00    +0.146 HD
ENDROOT
BRANCH   8  15
ATOM     13  F   UNL     1     -31.117  28.235   2.014  0.00  0.00    -0.204 F 
ATOM     14  F   UNL     1     -34.305  31.198   3.917  0.00  0.00    -0.204 F 
ATOM     15  C   UNL     1     -32.698  29.708   2.999  0.00  0.00    +0.110 C 
ATOM     16  C   UNL     1     -32.136  29.095   1.879  0.00  0.00    +0.147 C 
ATOM     17  C   UNL     1     -33.759  30.603   2.847  0.00  0.00    +0.147 C 
ATOM     18  C   UNL     1     -32.636  29.376   0.607  0.00  0.00    +0.030 C 
ATOM     19  C   UNL     1     -34.257  30.882   1.576  0.00  0.00    +0.030 C 
ATOM     20  C   UNL     1     -33.697  30.269   0.455  0.00  0.00    +0.005 C 
ENDBRANCH   8  15
BRANCH   2  21
ATOM     21  C   UNL     1     -35.269  24.869   4.946  0.00  0.00    +0.058 C 
ATOM     22  C   UNL     1     -37.080  23.671   3.248  0.00  0.00    +0.122 C 
ATOM     23  C   UNL     1     -34.938  23.663   4.365  0.00  0.00    +0.017 C 
ATOM     24  C   UNL     1     -36.473  25.497   4.709  0.00  0.00    +0.017 C 
ATOM     25  C   UNL     1     -35.855  23.058   3.506  0.00  0.00    +0.021 C 
ATOM     26  C   UNL     1     -37.389  24.892   3.850  0.00  0.00    +0.021 C 
BRANCH  22  27
ATOM     27  S   UNL     1     -38.228  22.913   2.175  0.00  0.00    +0.057 S 
ATOM     28  O   UNL     1     -39.571  23.211   2.653  0.00  0.00    -0.153 OA
ATOM     29  O   UNL     1     -37.862  23.234   0.802  0.00  0.00    -0.153 OA
BRANCH  27  30
ATOM     30  N   UNL     1     -37.898  21.260   2.458  0.00  0.00    -0.203 NA
ATOM     31  H   UNL     1     -38.617  20.689   2.016  0.00  0.00    +0.144 HD
ATOM     32  H   UNL     1     -37.890  21.082   3.463  0.00  0.00    +0.144 HD
ENDBRANCH  27  30
ENDBRANCH  22  27
ENDBRANCH   2  21
TORSDOF 4
ENDMDL
MODEL 6
REMARK VINA RESULT:      -7.0      4.351      8.254
REMARK  Name = 5330790
REMARK  4 active torsions:
REMARK  status: ('A' for Active; 'I' for Inactive)
REMARK    1  A    between atoms: N_2  and  C_21
REMARK    2  A    between atoms: C_8  and  C_15
REMARK    3  A    between atoms: C_22  and  S_27
REMARK    4  A    between atoms: S_27  and  N_30
REMARK                            x       y       z     vdW  Elec       q    Type
REMARK                         _______ _______ _______ _____ _____    ______ ____
ROOT
ATOM      1  O   UNL     1     -38.600  24.713   3.592  0.00  0.00    -0.268 OA
ATOM      2  N   UNL     1     -37.279  19.950   0.879  0.00  0.00    -0.246 N 
ATOM      3  N   UNL     1     -37.979  22.870   2.496  0.00  0.00    -0.103 N 
ATOM      4  N   UNL     1     -37.037  21.970   2.142  0.00  0.00    -0.088 NA
ATOM      5  N   UNL     1     -39.094  21.336   1.376  0.00  0.00    -0.304 NA
ATOM      6  N   UNL     1     -40.321  23.194   2.275  0.00  0.00    -0.319 N 
ATOM      7  C   UNL     1     -37.760  21.076   1.467  0.00  0.00    +0.167 C 
ATOM      8  C   UNL     1     -37.662  23.992   3.266  0.00  0.00    +0.280 C 
ATOM      9  C   UNL     1     -39.206  22.464   2.037  0.00  0.00    +0.273 C 
ATOM     10  H   UNL     1     -37.979  19.422   0.432  0.00  0.00    +0.165 HD
ATOM     11  H   UNL     1     -40.261  24.031   2.790  0.00  0.00    +0.146 HD
ATOM     12  H   UNL     1     -41.192  22.888   1.932  0.00  0.00    +0.146 HD
ENDROOT
BRANCH   8  15
ATOM     13  F   UNL     1     -36.179  26.078   2.087  0.00  0.00    -0.204 F 
ATOM     14  F   UNL     1     -36.356  22.650   5.371  0.00  0.00    -0.204 F 
ATOM     15  C   UNL     1     -36.302  24.356   3.718  0.00  0.00    +0.110 C 
ATOM     16  C   UNL     1     -35.615  25.398   3.096  0.00  0.00    +0.147 C 
ATOM     17  C   UNL     1     -35.705  23.654   4.767  0.00  0.00    +0.147 C 
ATOM     18  C   UNL     1     -34.332  25.741   3.524  0.00  0.00    +0.030 C 
ATOM     19  C   UNL     1     -34.423  23.997   5.193  0.00  0.00    +0.030 C 
ATOM     20  C   UNL     1     -33.736  25.040   4.573  0.00  0.00    +0.005 C 
ENDBRANCH   8  15
BRANCH   2  21
ATOM     21  C   UNL     1     -35.967  19.356   0.766  0.00  0.00    +0.058 C 
ATOM     22  C   UNL     1     -33.464  18.223   0.550  0.00  0.00    +0.122 C 
ATOM     23  C   UNL     1     -35.784  18.314  -0.117  0.00  0.00    +0.017 C 
ATOM     24  C   UNL     1     -34.945  19.853   1.545  0.00  0.00    +0.017 C 
ATOM     25  C   UNL     1     -34.517  17.741  -0.225  0.00  0.00    +0.021 C 
ATOM     26  C   UNL     1     -33.678  19.280   1.436  0.00  0.00    +0.021 C 
BRANCH  22  27
ATOM     27  S   UNL     1     -31.878  17.507   0.413  0.00  0.00    +0.057 S 
ATOM     28  O   UNL     1     -31.266  17.981  -0.820  0.00  0.00    -0.153 OA
ATOM     29  O   UNL     1     -31.181  17.680   1.680  0.00  0.00    -0.153 OA
BRANCH  27  30
ATOM     30  N   UNL     1     -32.280  15.857   0.229  0.00  0.00    -0.203 NA
ATOM     31  H   UNL     1     -32.316  15.411   1.145  0.00  0.00    +0.144 HD
ATOM     32  H   UNL     1     -31.574  15.397  -0.346  0.00  0.00    +0.144 HD
ENDBRANCH  27  30
ENDBRANCH  22  27
ENDBRANCH   2  21
TORSDOF 4
ENDMDL
MODEL 7
REMARK VINA RESULT:      -7.0      4.354      8.115
REMARK  Name = 5330790
REMARK  4 active torsions:
REMARK  status: ('A' for Active; 'I' for Inactive)
REMARK    1  A    between atoms: N_2  and  C_21
REMARK    2  A    between atoms: C_8  and  C_15
REMARK    3  A    between atoms: C_22  and  S_27
REMARK    4  A    between atoms: S_27  and  N_30
REMARK                            x       y       z     vdW  Elec       q    Type
REMARK                         _______ _______ _______ _____ _____    ______ ____
ROOT
ATOM      1  O   UNL     1     -38.588  24.711   3.594  0.00  0.00    -0.268 OA
ATOM      2  N   UNL     1     -37.280  19.946   0.878  0.00  0.00    -0.246 N 
ATOM      3  N   UNL     1     -37.972  22.867   2.496  0.00  0.00    -0.103 N 
ATOM      4  N   UNL     1     -37.033  21.966   2.139  0.00  0.00    -0.088 NA
ATOM      5  N   UNL     1     -39.092  21.334   1.380  0.00  0.00    -0.304 NA
ATOM      6  N   UNL     1     -40.315  23.193   2.282  0.00  0.00    -0.319 N 
ATOM      7  C   UNL     1     -37.758  21.073   1.467  0.00  0.00    +0.167 C 
ATOM      8  C   UNL     1     -37.652  23.989   3.265  0.00  0.00    +0.280 C 
ATOM      9  C   UNL     1     -39.201  22.462   2.041  0.00  0.00    +0.273 C 
ATOM     10  H   UNL     1     -37.982  19.419   0.432  0.00  0.00    +0.165 HD
ATOM     11  H   UNL     1     -40.252  24.030   2.798  0.00  0.00    +0.146 HD
ATOM     12  H   UNL     1     -41.186  22.888   1.942  0.00  0.00    +0.146 HD
ENDROOT
BRANCH   8  15
ATOM     13  F   UNL     1     -36.355  22.672   5.392  0.00  0.00    -0.204 F 
ATOM     14  F   UNL     1     -36.157  26.050   2.058  0.00  0.00    -0.204 F 
ATOM     15  C   UNL     1     -36.290  24.351   3.713  0.00  0.00    +0.110 C 
ATOM     16  C   UNL     1     -35.698  23.664   4.773  0.00  0.00    +0.147 C 
ATOM     17  C   UNL     1     -35.598  25.382   3.077  0.00  0.00    +0.147 C 
ATOM     18  C   UNL     1     -34.414  24.006   5.196  0.00  0.00    +0.030 C 
ATOM     19  C   UNL     1     -34.315  25.724   3.501  0.00  0.00    +0.030 C 
ATOM     20  C   UNL     1     -33.722  25.037   4.560  0.00  0.00    +0.005 C 
ENDBRANCH   8  15
BRANCH   2  21
ATOM     21  C   UNL     1     -35.969  19.351   0.761  0.00  0.00    +0.058 C 
ATOM     22  C   UNL     1     -33.468  18.216   0.537  0.00  0.00    +0.122 C 
ATOM     23  C   UNL     1     -35.788  18.313  -0.128  0.00  0.00    +0.017 C 
ATOM     24  C   UNL     1     -34.945  19.842   1.542  0.00  0.00    +0.017 C 
ATOM     25  C   UNL     1     -34.522  17.739  -0.240  0.00  0.00    +0.021 C 
ATOM     26  C   UNL     1     -33.680  19.268   1.429  0.00  0.00    +0.021 C 
BRANCH  22  27
ATOM     27  S   UNL     1     -31.883  17.499   0.395  0.00  0.00    +0.057 S 
ATOM     28  O   UNL     1     -31.271  17.977  -0.836  0.00  0.00    -0.153 OA
ATOM     29  O   UNL     1     -31.184  17.665   1.662  0.00  0.00    -0.153 OA
BRANCH  27  30
ATOM     30  N   UNL     1     -32.287  15.849   0.205  0.00  0.00    -0.203 NA
ATOM     31  H   UNL     1     -32.833  15.729  -0.647  0.00  0.00    +0.144 HD
ATOM     32  H   UNL     1     -32.834  15.538   1.008  0.00  0.00    +0.144 HD
ENDBRANCH  27  30
ENDBRANCH  22  27
ENDBRANCH   2  21
TORSDOF 4
ENDMDL
MODEL 8
REMARK VINA RESULT:      -7.0      5.414      7.734
REMARK  Name = 5330790
REMARK  4 active torsions:
REMARK  status: ('A' for Active; 'I' for Inactive)
REMARK    1  A    between atoms: N_2  and  C_21
REMARK    2  A    between atoms: C_8  and  C_15
REMARK    3  A    between atoms: C_22  and  S_27
REMARK    4  A    between atoms: S_27  and  N_30
REMARK                            x       y       z     vdW  Elec       q    Type
REMARK                         _______ _______ _______ _____ _____    ______ ____
ROOT
ATOM      1  O   UNL     1     -31.105  30.472   4.846  0.00  0.00    -0.268 OA
ATOM      2  N   UNL     1     -34.015  25.770   5.946  0.00  0.00    -0.246 N 
ATOM      3  N   UNL     1     -32.339  28.650   5.221  0.00  0.00    -0.103 N 
ATOM      4  N   UNL     1     -33.236  27.729   4.811  0.00  0.00    -0.088 NA
ATOM      5  N   UNL     1     -32.424  27.205   6.881  0.00  0.00    -0.304 NA
ATOM      6  N   UNL     1     -30.930  29.073   7.085  0.00  0.00    -0.319 N 
ATOM      7  C   UNL     1     -33.253  26.890   5.846  0.00  0.00    +0.167 C 
ATOM      8  C   UNL     1     -31.979  29.729   4.409  0.00  0.00    +0.280 C 
ATOM      9  C   UNL     1     -31.856  28.310   6.459  0.00  0.00    +0.273 C 
ATOM     10  H   UNL     1     -33.878  25.287   6.793  0.00  0.00    +0.165 HD
ATOM     11  H   UNL     1     -30.585  29.886   6.649  0.00  0.00    +0.146 HD
ATOM     12  H   UNL     1     -30.600  28.814   7.976  0.00  0.00    +0.146 HD
ENDROOT
BRANCH   8  15
ATOM     13  F   UNL     1     -34.300  31.290   4.074  0.00  0.00    -0.204 F 
ATOM     14  F   UNL     1     -30.840  28.767   2.019  0.00  0.00    -0.204 F 
ATOM     15  C   UNL     1     -32.555  30.022   3.080  0.00  0.00    +0.110 C 
ATOM     16  C   UNL     1     -33.708  30.801   2.975  0.00  0.00    +0.147 C 
ATOM     17  C   UNL     1     -31.947  29.518   1.929  0.00  0.00    +0.147 C 
ATOM     18  C   UNL     1     -34.251  31.077   1.721  0.00  0.00    +0.030 C 
ATOM     19  C   UNL     1     -32.491  29.793   0.676  0.00  0.00    +0.030 C 
ATOM     20  C   UNL     1     -33.643  30.573   0.570  0.00  0.00    +0.005 C 
ENDBRANCH   8  15
BRANCH   2  21
ATOM     21  C   UNL     1     -34.981  25.130   5.083  0.00  0.00    +0.058 C 
ATOM     22  C   UNL     1     -36.824  23.909   3.438  0.00  0.00    +0.122 C 
ATOM     23  C   UNL     1     -34.625  23.967   4.436  0.00  0.00    +0.017 C 
ATOM     24  C   UNL     1     -36.225  25.706   4.938  0.00  0.00    +0.017 C 
ATOM     25  C   UNL     1     -35.558  23.350   3.603  0.00  0.00    +0.021 C 
ATOM     26  C   UNL     1     -37.157  25.088   4.106  0.00  0.00    +0.021 C 
BRANCH  22  27
ATOM     27  S   UNL     1     -37.992  23.136   2.397  0.00  0.00    +0.057 S 
ATOM     28  O   UNL     1     -39.321  23.371   2.944  0.00  0.00    -0.153 OA
ATOM     29  O   UNL     1     -37.702  23.506   1.019  0.00  0.00    -0.153 OA
BRANCH  27  30
ATOM     30  N   UNL     1     -37.588  21.491   2.619  0.00  0.00    -0.203 NA
ATOM     31  H   UNL     1     -38.252  21.061   3.264  0.00  0.00    +0.144 HD
ATOM     32  H   UNL     1     -36.646  21.420   3.004  0.00  0.00    +0.144 HD
ENDBRANCH  27  30
ENDBRANCH  22  27
ENDBRANCH   2  21
TORSDOF 4
ENDMDL
MODEL 9
REMARK VINA RESULT:      -6.8      6.031      9.155
REMARK  Name = 5330790
REMARK  4 active torsions:
REMARK  status: ('A' for Active; 'I' for Inactive)
REMARK    1  A    between atoms: N_2  and  C_21
REMARK    2  A    between atoms: C_8  and  C_15
REMARK    3  A    between atoms: C_22  and  S_27
REMARK    4  A    between atoms: S_27  and  N_30
REMARK                            x       y       z     vdW  Elec       q    Type
REMARK                         _______ _______ _______ _____ _____    ______ ____
ROOT
ATOM      1  O   UNL     1     -37.276  25.980   2.164  0.00  0.00    -0.268 OA
ATOM      2  N   UNL     1     -32.881  29.324   3.302  0.00  0.00    -0.246 N 
ATOM      3  N   UNL     1     -35.530  27.258   2.714  0.00  0.00    -0.103 N 
ATOM      4  N   UNL     1     -34.351  27.434   3.346  0.00  0.00    -0.088 NA
ATOM      5  N   UNL     1     -34.877  29.265   2.086  0.00  0.00    -0.304 NA
ATOM      6  N   UNL     1     -36.950  28.427   1.211  0.00  0.00    -0.319 N 
ATOM      7  C   UNL     1     -34.007  28.656   2.940  0.00  0.00    +0.167 C 
ATOM      8  C   UNL     1     -36.250  26.066   2.833  0.00  0.00    +0.280 C 
ATOM      9  C   UNL     1     -35.820  28.363   1.954  0.00  0.00    +0.273 C 
ATOM     10  H   UNL     1     -32.814  30.215   2.889  0.00  0.00    +0.165 HD
ATOM     11  H   UNL     1     -37.578  27.669   1.204  0.00  0.00    +0.146 HD
ATOM     12  H   UNL     1     -37.142  29.232   0.677  0.00  0.00    +0.146 HD
ENDROOT
BRANCH   8  15
ATOM     13  F   UNL     1     -36.320  26.169   5.647  0.00  0.00    -0.204 F 
ATOM     14  F   UNL     1     -35.381  23.613   1.755  0.00  0.00    -0.204 F 
ATOM     15  C   UNL     1     -35.861  24.919   3.680  0.00  0.00    +0.110 C 
ATOM     16  C   UNL     1     -35.916  25.028   5.070  0.00  0.00    +0.147 C 
ATOM     17  C   UNL     1     -35.438  23.728   3.090  0.00  0.00    +0.147 C 
ATOM     18  C   UNL     1     -35.548  23.946   5.869  0.00  0.00    +0.030 C 
ATOM     19  C   UNL     1     -35.070  22.647   3.889  0.00  0.00    +0.030 C 
ATOM     20  C   UNL     1     -35.126  22.754   5.279  0.00  0.00    +0.005 C 
ENDBRANCH   8  15
BRANCH   2  21
ATOM     21  C   UNL     1     -31.759  29.014   4.158  0.00  0.00    +0.058 C 
ATOM     22  C   UNL     1     -29.620  28.423   5.791  0.00  0.00    +0.122 C 
ATOM     23  C   UNL     1     -31.887  29.212   5.515  0.00  0.00    +0.017 C 
ATOM     24  C   UNL     1     -30.602  28.532   3.586  0.00  0.00    +0.017 C 
ATOM     25  C   UNL     1     -30.804  28.912   6.342  0.00  0.00    +0.021 C 
ATOM     26  C   UNL     1     -29.519  28.232   4.412  0.00  0.00    +0.021 C 
BRANCH  22  27
ATOM     27  S   UNL     1     -28.265  28.046   6.825  0.00  0.00    +0.057 S 
ATOM     28  O   UNL     1     -28.338  26.637   7.182  0.00  0.00    -0.153 OA
ATOM     29  O   UNL     1     -27.054  28.575   6.213  0.00  0.00    -0.153 OA
BRANCH  27  30
ATOM     30  N   UNL     1     -28.637  28.984   8.204  0.00  0.00    -0.203 NA
ATOM     31  H   UNL     1     -28.811  29.948   7.924  0.00  0.00    +0.144 HD
ATOM     32  H   UNL     1     -27.853  28.956   8.857  0.00  0.00    +0.144 HD
ENDBRANCH  27  30
ENDBRANCH  22  27
ENDBRANCH   2  21
TORSDOF 4
ENDMDL
