MODEL 1
REMARK VINA RESULT:      -5.9      0.000      0.000
REMARK  Name = 197415
REMARK  9 active torsions:
REMARK  status: ('A' for Active; 'I' for Inactive)
REMARK    1  A    between atoms: C_2  and  O_13
REMARK    2  A    between atoms: C_3  and  O_7
REMARK    3  A    between atoms: C_4  and  O_9
REMARK    4  A    between atoms: C_5  and  C_26
REMARK    5  A    between atoms: C_6  and  O_11
REMARK    6  A    between atoms: O_13  and  C_20
REMARK    7  A    between atoms: C_17  and  O_22
REMARK    8  A    between atoms: C_19  and  O_24
REMARK    9  A    between atoms: C_26  and  O_27
REMARK                            x       y       z     vdW  Elec       q    Type
REMARK                         _______ _______ _______ _____ _____    ______ ____
ROOT
ATOM      1  O   UNL     1     -38.457  20.272   0.514  0.00  0.00    -0.326 OA
ATOM      2  C   UNL     1     -37.232  22.230   2.231  0.00  0.00    +0.179 C 
ATOM      3  C   UNL     1     -36.504  20.946   1.821  0.00  0.00    +0.170 C 
ATOM      4  C   UNL     1     -38.744  22.018   2.184  0.00  0.00    +0.197 C 
ATOM      5  C   UNL     1     -37.031  20.445   0.471  0.00  0.00    +0.176 C 
ATOM      6  C   UNL     1     -39.171  21.472   0.818  0.00  0.00    +0.266 C 
ENDROOT
BRANCH   3   7
ATOM      7  O   UNL     1     -36.726  19.937   2.808  0.00  0.00    -0.379 OA
ATOM      8  H   UNL     1     -35.909  19.786   3.308  0.00  0.00    +0.211 HD
ENDBRANCH   3   7
BRANCH   4   9
ATOM      9  O   UNL     1     -39.424  23.244   2.434  0.00  0.00    -0.378 OA
ATOM     10  H   UNL     1     -39.091  23.927   1.832  0.00  0.00    +0.211 HD
ENDBRANCH   4   9
BRANCH   6  11
ATOM     11  O   UNL     1     -38.989  22.468  -0.188  0.00  0.00    -0.326 OA
ATOM     12  C   UNL     1     -40.128  22.566  -1.029  0.00  0.00    +0.177 C 
ENDBRANCH   6  11
BRANCH   2  13
ATOM     13  O   UNL     1     -36.851  22.607   3.551  0.00  0.00    -0.326 OA
BRANCH  13  20
ATOM     14  O   UNL     1     -34.805  23.719   3.837  0.00  0.00    -0.326 OA
ATOM     15  O   UNL     1     -35.644  26.658   3.826  0.00  0.00    -0.348 OA
ATOM     16  C   UNL     1     -36.024  25.936   5.025  0.00  0.00    +0.176 C 
ATOM     17  C   UNL     1     -34.720  25.379   5.569  0.00  0.00    +0.170 C 
ATOM     18  C   UNL     1     -34.121  24.908   4.262  0.00  0.00    +0.176 C 
ATOM     19  C   UNL     1     -36.905  24.752   4.618  0.00  0.00    +0.197 C 
ATOM     20  C   UNL     1     -36.204  23.879   3.564  0.00  0.00    +0.266 C 
ATOM     21  C   UNL     1     -34.408  26.089   3.342  0.00  0.00    +0.174 C 
BRANCH  17  22
ATOM     22  O   UNL     1     -33.930  26.406   6.144  0.00  0.00    -0.379 OA
ATOM     23  H   UNL     1     -34.329  27.269   5.950  0.00  0.00    +0.211 HD
ENDBRANCH  17  22
BRANCH  19  24
ATOM     24  O   UNL     1     -38.137  25.241   4.094  0.00  0.00    -0.378 OA
ATOM     25  H   UNL     1     -38.024  25.462   3.156  0.00  0.00    +0.211 HD
ENDBRANCH  19  24
ENDBRANCH  13  20
ENDBRANCH   2  13
BRANCH   5  26
ATOM     26  C   UNL     1     -36.425  19.104   0.072  0.00  0.00    +0.169 C 
BRANCH  26  27
ATOM     27  O   UNL     1     -37.199  18.080   0.655  0.00  0.00    -0.379 OA
ATOM     28  H   UNL     1     -37.382  18.302   1.582  0.00  0.00    +0.211 HD
ENDBRANCH  26  27
ENDBRANCH   5  26
TORSDOF 9
ENDMDL
MODEL 2
REMARK VINA RESULT:      -5.4      1.841      2.282
REMARK  Name = 197415
REMARK  9 active torsions:
REMARK  status: ('A' for Active; 'I' for Inactive)
REMARK    1  A    between atoms: C_2  and  O_13
REMARK    2  A    between atoms: C_3  and  O_7
REMARK    3  A    between atoms: C_4  and  O_9
REMARK    4  A    between atoms: C_5  and  C_26
REMARK    5  A    between atoms: C_6  and  O_11
REMARK    6  A    between atoms: O_13  and  C_20
REMARK    7  A    between atoms: C_17  and  O_22
REMARK    8  A    between atoms: C_19  and  O_24
REMARK    9  A    between atoms: C_26  and  O_27
REMARK                            x       y       z     vdW  Elec       q    Type
REMARK                         _______ _______ _______ _____ _____    ______ ____
ROOT
ATOM      1  O   UNL     1     -35.977  20.453  -0.201  0.00  0.00    -0.326 OA
ATOM      2  C   UNL     1     -36.472  22.151   2.070  0.00  0.00    +0.179 C 
ATOM      3  C   UNL     1     -35.734  20.815   2.205  0.00  0.00    +0.170 C 
ATOM      4  C   UNL     1     -37.398  22.122   0.855  0.00  0.00    +0.197 C 
ATOM      5  C   UNL     1     -35.037  20.458   0.886  0.00  0.00    +0.176 C 
ATOM      6  C   UNL     1     -36.627  21.710  -0.403  0.00  0.00    +0.266 C 
ENDROOT
BRANCH   3   7
ATOM      7  O   UNL     1     -36.670  19.785   2.527  0.00  0.00    -0.379 OA
ATOM      8  H   UNL     1     -36.736  19.163   1.785  0.00  0.00    +0.211 HD
ENDBRANCH   3   7
BRANCH   4   9
ATOM      9  O   UNL     1     -37.983  23.404   0.648  0.00  0.00    -0.378 OA
ATOM     10  H   UNL     1     -38.944  23.341   0.759  0.00  0.00    +0.211 HD
ENDBRANCH   4   9
BRANCH   6  11
ATOM     11  O   UNL     1     -35.702  22.733  -0.770  0.00  0.00    -0.326 OA
ATOM     12  C   UNL     1     -35.748  22.994  -2.164  0.00  0.00    +0.177 C 
ENDBRANCH   6  11
BRANCH   2  13
ATOM     13  O   UNL     1     -37.242  22.404   3.242  0.00  0.00    -0.326 OA
BRANCH  13  20
ATOM     14  O   UNL     1     -36.276  24.534   3.056  0.00  0.00    -0.326 OA
ATOM     15  O   UNL     1     -35.567  25.191   5.955  0.00  0.00    -0.348 OA
ATOM     16  C   UNL     1     -34.724  24.177   5.353  0.00  0.00    +0.176 C 
ATOM     17  C   UNL     1     -34.145  24.841   4.116  0.00  0.00    +0.170 C 
ATOM     18  C   UNL     1     -35.403  25.522   3.624  0.00  0.00    +0.176 C 
ATOM     19  C   UNL     1     -35.616  23.021   4.890  0.00  0.00    +0.197 C 
ATOM     20  C   UNL     1     -36.736  23.525   3.966  0.00  0.00    +0.266 C 
ATOM     21  C   UNL     1     -35.968  26.108   4.913  0.00  0.00    +0.174 C 
BRANCH  17  22
ATOM     22  O   UNL     1     -33.159  25.797   4.469  0.00  0.00    -0.379 OA
ATOM     23  H   UNL     1     -32.307  25.543   4.080  0.00  0.00    +0.211 HD
ENDBRANCH  17  22
BRANCH  19  24
ATOM     24  O   UNL     1     -36.183  22.380   6.028  0.00  0.00    -0.378 OA
ATOM     25  H   UNL     1     -35.696  22.642   6.824  0.00  0.00    +0.211 HD
ENDBRANCH  19  24
ENDBRANCH  13  20
ENDBRANCH   2  13
BRANCH   5  26
ATOM     26  C   UNL     1     -34.386  19.079   0.927  0.00  0.00    +0.169 C 
BRANCH  26  27
ATOM     27  O   UNL     1     -35.308  18.142   0.420  0.00  0.00    -0.379 OA
ATOM     28  H   UNL     1     -35.056  17.251   0.709  0.00  0.00    +0.211 HD
ENDBRANCH  26  27
ENDBRANCH   5  26
TORSDOF 9
ENDMDL
MODEL 3
REMARK VINA RESULT:      -5.4      1.823      2.771
REMARK  Name = 197415
REMARK  9 active torsions:
REMARK  status: ('A' for Active; 'I' for Inactive)
REMARK    1  A    between atoms: C_2  and  O_13
REMARK    2  A    between atoms: C_3  and  O_7
REMARK    3  A    between atoms: C_4  and  O_9
REMARK    4  A    between atoms: C_5  and  C_26
REMARK    5  A    between atoms: C_6  and  O_11
REMARK    6  A    between atoms: O_13  and  C_20
REMARK    7  A    between atoms: C_17  and  O_22
REMARK    8  A    between atoms: C_19  and  O_24
REMARK    9  A    between atoms: C_26  and  O_27
REMARK                            x       y       z     vdW  Elec       q    Type
REMARK                         _______ _______ _______ _____ _____    ______ ____
ROOT
ATOM      1  O   UNL     1     -40.408  23.006   0.966  0.00  0.00    -0.326 OA
ATOM      2  C   UNL     1     -38.043  23.242   2.589  0.00  0.00    +0.179 C 
ATOM      3  C   UNL     1     -38.232  22.088   1.599  0.00  0.00    +0.170 C 
ATOM      4  C   UNL     1     -39.401  23.777   3.042  0.00  0.00    +0.197 C 
ATOM      5  C   UNL     1     -39.157  22.518   0.453  0.00  0.00    +0.176 C 
ATOM      6  C   UNL     1     -40.272  24.134   1.834  0.00  0.00    +0.266 C 
ENDROOT
BRANCH   3   7
ATOM      7  O   UNL     1     -38.819  20.973   2.273  0.00  0.00    -0.379 OA
ATOM      8  H   UNL     1     -38.739  21.095   3.232  0.00  0.00    +0.211 HD
ENDBRANCH   3   7
BRANCH   4   9
ATOM      9  O   UNL     1     -39.231  24.932   3.857  0.00  0.00    -0.378 OA
ATOM     10  H   UNL     1     -38.413  24.848   4.370  0.00  0.00    +0.211 HD
ENDBRANCH   4   9
BRANCH   6  11
ATOM     11  O   UNL     1     -39.728  25.266   1.154  0.00  0.00    -0.326 OA
ATOM     12  C   UNL     1     -40.718  26.259   0.934  0.00  0.00    +0.177 C 
ENDBRANCH   6  11
BRANCH   2  13
ATOM     13  O   UNL     1     -37.312  22.793   3.727  0.00  0.00    -0.326 OA
BRANCH  13  20
ATOM     14  O   UNL     1     -36.734  24.728   4.921  0.00  0.00    -0.326 OA
ATOM     15  O   UNL     1     -33.873  25.253   3.980  0.00  0.00    -0.348 OA
ATOM     16  C   UNL     1     -34.888  25.533   2.983  0.00  0.00    +0.176 C 
ATOM     17  C   UNL     1     -35.812  26.540   3.645  0.00  0.00    +0.170 C 
ATOM     18  C   UNL     1     -35.899  25.893   5.009  0.00  0.00    +0.176 C 
ATOM     19  C   UNL     1     -35.690  24.252   2.737  0.00  0.00    +0.197 C 
ATOM     20  C   UNL     1     -36.253  23.693   4.054  0.00  0.00    +0.266 C 
ATOM     21  C   UNL     1     -34.443  25.531   5.279  0.00  0.00    +0.174 C 
BRANCH  17  22
ATOM     22  O   UNL     1     -35.196  27.815   3.729  0.00  0.00    -0.379 OA
ATOM     23  H   UNL     1     -35.192  28.231   2.852  0.00  0.00    +0.211 HD
ENDBRANCH  17  22
BRANCH  19  24
ATOM     24  O   UNL     1     -34.848  23.281   2.123  0.00  0.00    -0.378 OA
ATOM     25  H   UNL     1     -34.678  23.536   1.202  0.00  0.00    +0.211 HD
ENDBRANCH  19  24
ENDBRANCH  13  20
ENDBRANCH   2  13
BRANCH   5  26
ATOM     26  C   UNL     1     -39.475  21.370  -0.499  0.00  0.00    +0.169 C 
BRANCH  26  27
ATOM     27  O   UNL     1     -40.513  20.604   0.068  0.00  0.00    -0.379 OA
ATOM     28  H   UNL     1     -40.372  19.666  -0.140  0.00  0.00    +0.211 HD
ENDBRANCH  26  27
ENDBRANCH   5  26
TORSDOF 9
ENDMDL
MODEL 4
REMARK VINA RESULT:      -5.3      2.276      2.918
REMARK  Name = 197415
REMARK  9 active torsions:
REMARK  status: ('A' for Active; 'I' for Inactive)
REMARK    1  A    between atoms: C_2  and  O_13
REMARK    2  A    between atoms: C_3  and  O_7
REMARK    3  A    between atoms: C_4  and  O_9
REMARK    4  A    between atoms: C_5  and  C_26
REMARK    5  A    between atoms: C_6  and  O_11
REMARK    6  A    between atoms: O_13  and  C_20
REMARK    7  A    between atoms: C_17  and  O_22
REMARK    8  A    between atoms: C_19  and  O_24
REMARK    9  A    between atoms: C_26  and  O_27
REMARK                            x       y       z     vdW  Elec       q    Type
REMARK                         _______ _______ _______ _____ _____    ______ ____
ROOT
ATOM      1  O   UNL     1     -35.359  19.175  -0.401  0.00  0.00    -0.326 OA
ATOM      2  C   UNL     1     -35.497  20.801   1.970  0.00  0.00    +0.179 C 
ATOM      3  C   UNL     1     -34.166  20.268   1.431  0.00  0.00    +0.170 C 
ATOM      4  C   UNL     1     -36.645  19.888   1.537  0.00  0.00    +0.197 C 
ATOM      5  C   UNL     1     -34.258  20.042  -0.083  0.00  0.00    +0.176 C 
ATOM      6  C   UNL     1     -36.628  19.681   0.021  0.00  0.00    +0.266 C 
ENDROOT
BRANCH   3   7
ATOM      7  O   UNL     1     -33.857  19.026   2.066  0.00  0.00    -0.379 OA
ATOM      8  H   UNL     1     -32.989  19.088   2.494  0.00  0.00    +0.211 HD
ENDBRANCH   3   7
BRANCH   4   9
ATOM      9  O   UNL     1     -37.895  20.449   1.922  0.00  0.00    -0.378 OA
ATOM     10  H   UNL     1     -38.359  19.833   2.510  0.00  0.00    +0.211 HD
ENDBRANCH   4   9
BRANCH   6  11
ATOM     11  O   UNL     1     -36.963  20.898  -0.646  0.00  0.00    -0.326 OA
ATOM     12  C   UNL     1     -37.969  20.691  -1.625  0.00  0.00    +0.177 C 
ENDBRANCH   6  11
BRANCH   2  13
ATOM     13  O   UNL     1     -35.458  20.864   3.393  0.00  0.00    -0.326 OA
BRANCH  13  20
ATOM     14  O   UNL     1     -35.171  23.154   2.974  0.00  0.00    -0.326 OA
ATOM     15  O   UNL     1     -36.286  24.433   5.516  0.00  0.00    -0.348 OA
ATOM     16  C   UNL     1     -35.011  23.767   5.697  0.00  0.00    +0.176 C 
ATOM     17  C   UNL     1     -34.084  24.430   4.693  0.00  0.00    +0.170 C 
ATOM     18  C   UNL     1     -35.034  24.477   3.516  0.00  0.00    +0.176 C 
ATOM     19  C   UNL     1     -35.171  22.300   5.289  0.00  0.00    +0.197 C 
ATOM     20  C   UNL     1     -35.736  22.182   3.864  0.00  0.00    +0.266 C 
ATOM     21  C   UNL     1     -36.322  24.960   4.171  0.00  0.00    +0.174 C 
BRANCH  17  22
ATOM     22  O   UNL     1     -33.735  25.739   5.112  0.00  0.00    -0.379 OA
ATOM     23  H   UNL     1     -33.307  26.210   4.381  0.00  0.00    +0.211 HD
ENDBRANCH  17  22
BRANCH  19  24
ATOM     24  O   UNL     1     -36.044  21.649   6.208  0.00  0.00    -0.378 OA
ATOM     25  H   UNL     1     -36.196  22.225   6.973  0.00  0.00    +0.211 HD
ENDBRANCH  19  24
ENDBRANCH  13  20
ENDBRANCH   2  13
BRANCH   5  26
ATOM     26  C   UNL     1     -32.998  19.399  -0.653  0.00  0.00    +0.169 C 
BRANCH  26  27
ATOM     27  O   UNL     1     -31.893  19.868   0.084  0.00  0.00    -0.379 OA
ATOM     28  H   UNL     1     -31.613  20.729  -0.266  0.00  0.00    +0.211 HD
ENDBRANCH  26  27
ENDBRANCH   5  26
TORSDOF 9
ENDMDL
MODEL 5
REMARK VINA RESULT:      -5.2      1.989      3.358
REMARK  Name = 197415
REMARK  9 active torsions:
REMARK  status: ('A' for Active; 'I' for Inactive)
REMARK    1  A    between atoms: C_2  and  O_13
REMARK    2  A    between atoms: C_3  and  O_7
REMARK    3  A    between atoms: C_4  and  O_9
REMARK    4  A    between atoms: C_5  and  C_26
REMARK    5  A    between atoms: C_6  and  O_11
REMARK    6  A    between atoms: O_13  and  C_20
REMARK    7  A    between atoms: C_17  and  O_22
REMARK    8  A    between atoms: C_19  and  O_24
REMARK    9  A    between atoms: C_26  and  O_27
REMARK                            x       y       z     vdW  Elec       q    Type
REMARK                         _______ _______ _______ _____ _____    ______ ____
ROOT
ATOM      1  O   UNL     1     -38.201  22.511   2.651  0.00  0.00    -0.326 OA
ATOM      2  C   UNL     1     -36.433  24.580   3.587  0.00  0.00    +0.179 C 
ATOM      3  C   UNL     1     -36.037  23.101   3.624  0.00  0.00    +0.170 C 
ATOM      4  C   UNL     1     -37.954  24.721   3.637  0.00  0.00    +0.197 C 
ATOM      5  C   UNL     1     -36.781  22.325   2.530  0.00  0.00    +0.176 C 
ATOM      6  C   UNL     1     -38.612  23.876   2.543  0.00  0.00    +0.266 C 
ENDROOT
BRANCH   3   7
ATOM      7  O   UNL     1     -36.378  22.548   4.897  0.00  0.00    -0.379 OA
ATOM      8  H   UNL     1     -35.679  21.939   5.183  0.00  0.00    +0.211 HD
ENDBRANCH   3   7
BRANCH   4   9
ATOM      9  O   UNL     1     -38.330  26.084   3.469  0.00  0.00    -0.378 OA
ATOM     10  H   UNL     1     -38.895  26.357   4.209  0.00  0.00    +0.211 HD
ENDBRANCH   4   9
BRANCH   6  11
ATOM     11  O   UNL     1     -38.315  24.420   1.257  0.00  0.00    -0.326 OA
ATOM     12  C   UNL     1     -39.482  24.518   0.456  0.00  0.00    +0.177 C 
ENDBRANCH   6  11
BRANCH   2  13
ATOM     13  O   UNL     1     -35.861  25.266   4.697  0.00  0.00    -0.326 OA
BRANCH  13  20
ATOM     14  O   UNL     1     -35.258  26.593   2.858  0.00  0.00    -0.326 OA
ATOM     15  O   UNL     1     -33.440  28.696   4.131  0.00  0.00    -0.348 OA
ATOM     16  C   UNL     1     -32.850  27.374   4.043  0.00  0.00    +0.176 C 
ATOM     17  C   UNL     1     -32.914  27.021   2.567  0.00  0.00    +0.170 C 
ATOM     18  C   UNL     1     -34.316  27.513   2.285  0.00  0.00    +0.176 C 
ATOM     19  C   UNL     1     -33.748  26.393   4.799  0.00  0.00    +0.197 C 
ATOM     20  C   UNL     1     -35.195  26.460   4.285  0.00  0.00    +0.266 C 
ATOM     21  C   UNL     1     -34.326  28.859   3.001  0.00  0.00    +0.174 C 
BRANCH  17  22
ATOM     22  O   UNL     1     -31.959  27.762   1.826  0.00  0.00    -0.379 OA
ATOM     23  H   UNL     1     -32.376  28.117   1.025  0.00  0.00    +0.211 HD
ENDBRANCH  17  22
BRANCH  19  24
ATOM     24  O   UNL     1     -33.717  26.702   6.190  0.00  0.00    -0.378 OA
ATOM     25  H   UNL     1     -33.722  27.665   6.307  0.00  0.00    +0.211 HD
ENDBRANCH  19  24
ENDBRANCH  13  20
ENDBRANCH   2  13
BRANCH   5  26
ATOM     26  C   UNL     1     -36.515  20.825   2.598  0.00  0.00    +0.169 C 
BRANCH  26  27
ATOM     27  O   UNL     1     -35.310  20.623   3.300  0.00  0.00    -0.379 OA
ATOM     28  H   UNL     1     -35.282  21.213   4.070  0.00  0.00    +0.211 HD
ENDBRANCH  26  27
ENDBRANCH   5  26
TORSDOF 9
ENDMDL
MODEL 6
REMARK VINA RESULT:      -5.1      3.012      7.493
REMARK  Name = 197415
REMARK  9 active torsions:
REMARK  status: ('A' for Active; 'I' for Inactive)
REMARK    1  A    between atoms: C_2  and  O_13
REMARK    2  A    between atoms: C_3  and  O_7
REMARK    3  A    between atoms: C_4  and  O_9
REMARK    4  A    between atoms: C_5  and  C_26
REMARK    5  A    between atoms: C_6  and  O_11
REMARK    6  A    between atoms: O_13  and  C_20
REMARK    7  A    between atoms: C_17  and  O_22
REMARK    8  A    between atoms: C_19  and  O_24
REMARK    9  A    between atoms: C_26  and  O_27
REMARK                            x       y       z     vdW  Elec       q    Type
REMARK                         _______ _______ _______ _____ _____    ______ ____
ROOT
ATOM      1  O   UNL     1     -31.498  29.118   3.034  0.00  0.00    -0.326 OA
ATOM      2  C   UNL     1     -33.582  27.135   3.135  0.00  0.00    +0.179 C 
ATOM      3  C   UNL     1     -32.169  26.799   2.649  0.00  0.00    +0.170 C 
ATOM      4  C   UNL     1     -33.876  28.619   2.916  0.00  0.00    +0.197 C 
ATOM      5  C   UNL     1     -31.147  27.748   3.288  0.00  0.00    +0.176 C 
ATOM      6  C   UNL     1     -32.782  29.486   3.544  0.00  0.00    +0.266 C 
ENDROOT
BRANCH   3   7
ATOM      7  O   UNL     1     -32.106  26.941   1.229  0.00  0.00    -0.379 OA
ATOM      8  H   UNL     1     -32.656  26.260   0.810  0.00  0.00    +0.211 HD
ENDBRANCH   3   7
BRANCH   4   9
ATOM      9  O   UNL     1     -35.134  28.963   3.486  0.00  0.00    -0.378 OA
ATOM     10  H   UNL     1     -35.324  28.373   4.232  0.00  0.00    +0.211 HD
ENDBRANCH   4   9
BRANCH   6  11
ATOM     11  O   UNL     1     -32.835  29.390   4.968  0.00  0.00    -0.326 OA
ATOM     12  C   UNL     1     -32.064  30.409   5.583  0.00  0.00    +0.177 C 
ENDBRANCH   6  11
BRANCH   2  13
ATOM     13  O   UNL     1     -34.540  26.356   2.425  0.00  0.00    -0.326 OA
BRANCH  13  20
ATOM     14  O   UNL     1     -34.621  24.018   2.595  0.00  0.00    -0.326 OA
ATOM     15  O   UNL     1     -36.496  23.594   4.971  0.00  0.00    -0.348 OA
ATOM     16  C   UNL     1     -37.158  24.058   3.767  0.00  0.00    +0.176 C 
ATOM     17  C   UNL     1     -36.803  23.026   2.711  0.00  0.00    +0.170 C 
ATOM     18  C   UNL     1     -35.339  22.860   3.050  0.00  0.00    +0.176 C 
ATOM     19  C   UNL     1     -36.527  25.389   3.352  0.00  0.00    +0.197 C 
ATOM     20  C   UNL     1     -35.002  25.256   3.209  0.00  0.00    +0.266 C 
ATOM     21  C   UNL     1     -35.376  22.774   4.571  0.00  0.00    +0.174 C 
BRANCH  17  22
ATOM     22  O   UNL     1     -37.511  21.816   2.926  0.00  0.00    -0.379 OA
ATOM     23  H   UNL     1     -36.893  21.069   2.899  0.00  0.00    +0.211 HD
ENDBRANCH  17  22
BRANCH  19  24
ATOM     24  O   UNL     1     -36.834  26.380   4.329  0.00  0.00    -0.378 OA
ATOM     25  H   UNL     1     -37.128  27.191   3.885  0.00  0.00    +0.211 HD
ENDBRANCH  19  24
ENDBRANCH  13  20
ENDBRANCH   2  13
BRANCH   5  26
ATOM     26  C   UNL     1     -29.737  27.534   2.747  0.00  0.00    +0.169 C 
BRANCH  26  27
ATOM     27  O   UNL     1     -29.525  26.149   2.606  0.00  0.00    -0.379 OA
ATOM     28  H   UNL     1     -29.427  25.931   1.665  0.00  0.00    +0.211 HD
ENDBRANCH  26  27
ENDBRANCH   5  26
TORSDOF 9
ENDMDL
MODEL 7
REMARK VINA RESULT:      -5.1      3.645      8.155
REMARK  Name = 197415
REMARK  9 active torsions:
REMARK  status: ('A' for Active; 'I' for Inactive)
REMARK    1  A    between atoms: C_2  and  O_13
REMARK    2  A    between atoms: C_3  and  O_7
REMARK    3  A    between atoms: C_4  and  O_9
REMARK    4  A    between atoms: C_5  and  C_26
REMARK    5  A    between atoms: C_6  and  O_11
REMARK    6  A    between atoms: O_13  and  C_20
REMARK    7  A    between atoms: C_17  and  O_22
REMARK    8  A    between atoms: C_19  and  O_24
REMARK    9  A    between atoms: C_26  and  O_27
REMARK                            x       y       z     vdW  Elec       q    Type
REMARK                         _______ _______ _______ _____ _____    ______ ____
ROOT
ATOM      1  O   UNL     1     -31.009  29.187   3.233  0.00  0.00    -0.326 OA
ATOM      2  C   UNL     1     -32.704  27.403   4.725  0.00  0.00    +0.179 C 
ATOM      3  C   UNL     1     -33.181  28.083   3.438  0.00  0.00    +0.170 C 
ATOM      4  C   UNL     1     -31.611  28.239   5.391  0.00  0.00    +0.197 C 
ATOM      5  C   UNL     1     -31.985  28.400   2.531  0.00  0.00    +0.176 C 
ATOM      6  C   UNL     1     -30.486  28.546   4.399  0.00  0.00    +0.266 C 
ENDROOT
BRANCH   3   7
ATOM      7  O   UNL     1     -33.850  29.303   3.763  0.00  0.00    -0.379 OA
ATOM      8  H   UNL     1     -34.594  29.116   4.357  0.00  0.00    +0.211 HD
ENDBRANCH   3   7
BRANCH   4   9
ATOM      9  O   UNL     1     -31.073  27.547   6.513  0.00  0.00    -0.378 OA
ATOM     10  H   UNL     1     -30.641  28.181   7.106  0.00  0.00    +0.211 HD
ENDBRANCH   4   9
BRANCH   6  11
ATOM     11  O   UNL     1     -29.776  27.351   4.075  0.00  0.00    -0.326 OA
ATOM     12  C   UNL     1     -28.373  27.542   4.167  0.00  0.00    +0.177 C 
ENDBRANCH   6  11
BRANCH   2  13
ATOM     13  O   UNL     1     -33.795  27.251   5.629  0.00  0.00    -0.326 OA
BRANCH  13  20
ATOM     14  O   UNL     1     -33.533  25.071   4.800  0.00  0.00    -0.326 OA
ATOM     15  O   UNL     1     -36.309  23.866   5.226  0.00  0.00    -0.348 OA
ATOM     16  C   UNL     1     -36.244  24.847   4.159  0.00  0.00    +0.176 C 
ATOM     17  C   UNL     1     -35.174  24.322   3.218  0.00  0.00    +0.170 C 
ATOM     18  C   UNL     1     -34.158  23.899   4.255  0.00  0.00    +0.176 C 
ATOM     19  C   UNL     1     -35.742  26.168   4.748  0.00  0.00    +0.197 C 
ATOM     20  C   UNL     1     -34.411  25.970   5.491  0.00  0.00    +0.266 C 
ATOM     21  C   UNL     1     -35.033  23.191   5.282  0.00  0.00    +0.174 C 
BRANCH  17  22
ATOM     22  O   UNL     1     -35.647  23.202   2.488  0.00  0.00    -0.379 OA
ATOM     23  H   UNL     1     -36.033  23.500   1.650  0.00  0.00    +0.211 HD
ENDBRANCH  17  22
BRANCH  19  24
ATOM     24  O   UNL     1     -36.721  26.685   5.645  0.00  0.00    -0.378 OA
ATOM     25  H   UNL     1     -37.579  26.732   5.195  0.00  0.00    +0.211 HD
ENDBRANCH  19  24
ENDBRANCH  13  20
ENDBRANCH   2  13
BRANCH   5  26
ATOM     26  C   UNL     1     -32.390  29.185   1.288  0.00  0.00    +0.169 C 
BRANCH  26  27
ATOM     27  O   UNL     1     -32.357  30.558   1.605  0.00  0.00    -0.379 OA
ATOM     28  H   UNL     1     -33.261  30.913   1.599  0.00  0.00    +0.211 HD
ENDBRANCH  26  27
ENDBRANCH   5  26
TORSDOF 9
ENDMDL
MODEL 8
REMARK VINA RESULT:      -5.0      2.198      6.869
REMARK  Name = 197415
REMARK  9 active torsions:
REMARK  status: ('A' for Active; 'I' for Inactive)
REMARK    1  A    between atoms: C_2  and  O_13
REMARK    2  A    between atoms: C_3  and  O_7
REMARK    3  A    between atoms: C_4  and  O_9
REMARK    4  A    between atoms: C_5  and  C_26
REMARK    5  A    between atoms: C_6  and  O_11
REMARK    6  A    between atoms: O_13  and  C_20
REMARK    7  A    between atoms: C_17  and  O_22
REMARK    8  A    between atoms: C_19  and  O_24
REMARK    9  A    between atoms: C_26  and  O_27
REMARK                            x       y       z     vdW  Elec       q    Type
REMARK                         _______ _______ _______ _____ _____    ______ ____
ROOT
ATOM      1  O   UNL     1     -35.472  27.030   4.476  0.00  0.00    -0.326 OA
ATOM      2  C   UNL     1     -35.583  24.452   3.202  0.00  0.00    +0.179 C 
ATOM      3  C   UNL     1     -35.496  25.750   2.394  0.00  0.00    +0.170 C 
ATOM      4  C   UNL     1     -36.227  24.719   4.562  0.00  0.00    +0.197 C 
ATOM      5  C   UNL     1     -34.804  26.843   3.218  0.00  0.00    +0.176 C 
ATOM      6  C   UNL     1     -35.502  25.855   5.290  0.00  0.00    +0.266 C 
ENDROOT
BRANCH   3   7
ATOM      7  O   UNL     1     -36.813  26.189   2.055  0.00  0.00    -0.379 OA
ATOM      8  H   UNL     1     -37.466  25.623   2.493  0.00  0.00    +0.211 HD
ENDBRANCH   3   7
BRANCH   4   9
ATOM      9  O   UNL     1     -36.188  23.545   5.367  0.00  0.00    -0.378 OA
ATOM     10  H   UNL     1     -35.430  22.999   5.107  0.00  0.00    +0.211 HD
ENDBRANCH   4   9
BRANCH   6  11
ATOM     11  O   UNL     1     -34.191  25.437   5.670  0.00  0.00    -0.326 OA
ATOM     12  C   UNL     1     -33.508  26.461   6.377  0.00  0.00    +0.177 C 
ENDBRANCH   6  11
BRANCH   2  13
ATOM     13  O   UNL     1     -36.359  23.488   2.496  0.00  0.00    -0.326 OA
BRANCH  13  20
ATOM     14  O   UNL     1     -35.561  22.469   0.539  0.00  0.00    -0.326 OA
ATOM     15  O   UNL     1     -34.122  19.999   1.622  0.00  0.00    -0.348 OA
ATOM     16  C   UNL     1     -35.568  19.927   1.701  0.00  0.00    +0.176 C 
ATOM     17  C   UNL     1     -36.043  20.134   0.273  0.00  0.00    +0.170 C 
ATOM     18  C   UNL     1     -35.115  21.266  -0.105  0.00  0.00    +0.176 C 
ATOM     19  C   UNL     1     -36.066  21.110   2.535  0.00  0.00    +0.197 C 
ATOM     20  C   UNL     1     -35.541  22.441   1.973  0.00  0.00    +0.266 C 
ATOM     21  C   UNL     1     -33.783  20.780   0.455  0.00  0.00    +0.174 C 
BRANCH  17  22
ATOM     22  O   UNL     1     -35.786  18.985  -0.518  0.00  0.00    -0.379 OA
ATOM     23  H   UNL     1     -36.623  18.542  -0.727  0.00  0.00    +0.211 HD
ENDBRANCH  17  22
BRANCH  19  24
ATOM     24  O   UNL     1     -35.629  20.952   3.883  0.00  0.00    -0.378 OA
ATOM     25  H   UNL     1     -36.367  20.635   4.426  0.00  0.00    +0.211 HD
ENDBRANCH  19  24
ENDBRANCH  13  20
ENDBRANCH   2  13
BRANCH   5  26
ATOM     26  C   UNL     1     -34.798  28.191   2.505  0.00  0.00    +0.169 C 
BRANCH  26  27
ATOM     27  O   UNL     1     -35.273  29.166   3.405  0.00  0.00    -0.379 OA
ATOM     28  H   UNL     1     -34.572  29.816   3.576  0.00  0.00    +0.211 HD
ENDBRANCH  26  27
ENDBRANCH   5  26
TORSDOF 9
ENDMDL
MODEL 9
REMARK VINA RESULT:      -5.0      2.831      5.423
REMARK  Name = 197415
REMARK  9 active torsions:
REMARK  status: ('A' for Active; 'I' for Inactive)
REMARK    1  A    between atoms: C_2  and  O_13
REMARK    2  A    between atoms: C_3  and  O_7
REMARK    3  A    between atoms: C_4  and  O_9
REMARK    4  A    between atoms: C_5  and  C_26
REMARK    5  A    between atoms: C_6  and  O_11
REMARK    6  A    between atoms: O_13  and  C_20
REMARK    7  A    between atoms: C_17  and  O_22
REMARK    8  A    between atoms: C_19  and  O_24
REMARK    9  A    between atoms: C_26  and  O_27
REMARK                            x       y       z     vdW  Elec       q    Type
REMARK                         _______ _______ _______ _____ _____    ______ ____
ROOT
ATOM      1  O   UNL     1     -35.020  22.347   3.739  0.00  0.00    -0.326 OA
ATOM      2  C   UNL     1     -36.819  24.544   3.271  0.00  0.00    +0.179 C 
ATOM      3  C   UNL     1     -36.722  23.359   2.305  0.00  0.00    +0.170 C 
ATOM      4  C   UNL     1     -35.507  24.712   4.035  0.00  0.00    +0.197 C 
ATOM      5  C   UNL     1     -36.258  22.102   3.052  0.00  0.00    +0.176 C 
ATOM      6  C   UNL     1     -35.098  23.398   4.705  0.00  0.00    +0.266 C 
ENDROOT
BRANCH   3   7
ATOM      7  O   UNL     1     -35.777  23.660   1.276  0.00  0.00    -0.379 OA
ATOM      8  H   UNL     1     -36.117  23.347   0.423  0.00  0.00    +0.211 HD
ENDBRANCH   3   7
BRANCH   4   9
ATOM      9  O   UNL     1     -35.637  25.726   5.026  0.00  0.00    -0.378 OA
ATOM     10  H   UNL     1     -34.826  26.256   5.056  0.00  0.00    +0.211 HD
ENDBRANCH   4   9
BRANCH   6  11
ATOM     11  O   UNL     1     -36.006  23.082   5.761  0.00  0.00    -0.326 OA
ATOM     12  C   UNL     1     -35.521  22.012   6.557  0.00  0.00    +0.177 C 
ENDBRANCH   6  11
BRANCH   2  13
ATOM     13  O   UNL     1     -37.100  25.740   2.550  0.00  0.00    -0.326 OA
BRANCH  13  20
ATOM     14  O   UNL     1     -39.219  25.032   3.268  0.00  0.00    -0.326 OA
ATOM     15  O   UNL     1     -41.056  27.194   2.132  0.00  0.00    -0.348 OA
ATOM     16  C   UNL     1     -40.510  26.294   1.135  0.00  0.00    +0.176 C 
ATOM     17  C   UNL     1     -40.933  24.909   1.593  0.00  0.00    +0.170 C 
ATOM     18  C   UNL     1     -40.640  25.068   3.069  0.00  0.00    +0.176 C 
ATOM     19  C   UNL     1     -38.983  26.365   1.205  0.00  0.00    +0.197 C 
ATOM     20  C   UNL     1     -38.483  26.086   2.632  0.00  0.00    +0.266 C 
ATOM     21  C   UNL     1     -41.221  26.447   3.358  0.00  0.00    +0.174 C 
BRANCH  17  22
ATOM     22  O   UNL     1     -42.319  24.703   1.373  0.00  0.00    -0.379 OA
ATOM     23  H   UNL     1     -42.524  24.856   0.437  0.00  0.00    +0.211 HD
ENDBRANCH  17  22
BRANCH  19  24
ATOM     24  O   UNL     1     -38.552  27.657   0.789  0.00  0.00    -0.378 OA
ATOM     25  H   UNL     1     -37.609  27.627   0.565  0.00  0.00    +0.211 HD
ENDBRANCH  19  24
ENDBRANCH  13  20
ENDBRANCH   2  13
BRANCH   5  26
ATOM     26  C   UNL     1     -36.028  20.921   2.115  0.00  0.00    +0.169 C 
BRANCH  26  27
ATOM     27  O   UNL     1     -36.757  19.820   2.607  0.00  0.00    -0.379 OA
ATOM     28  H   UNL     1     -36.902  19.929   3.560  0.00  0.00    +0.211 HD
ENDBRANCH  26  27
ENDBRANCH   5  26
TORSDOF 9
ENDMDL
