MODEL 1
REMARK VINA RESULT:      -6.4      0.000      0.000
REMARK  Name = 5281762
REMARK  10 active torsions:
REMARK  status: ('A' for Active; 'I' for Inactive)
REMARK    1  A    between atoms: O_1  and  C_2
REMARK    2  A    between atoms: O_1  and  C_17
REMARK    3  A    between atoms: C_3  and  O_8
REMARK    4  A    between atoms: C_4  and  O_10
REMARK    5  A    between atoms: C_6  and  C_13
REMARK    6  A    between atoms: C_13  and  O_14
REMARK    7  A    between atoms: C_17  and  C_18
REMARK    8  A    between atoms: C_19  and  C_20
REMARK    9  A    between atoms: C_23  and  O_26
REMARK   10  A    between atoms: C_25  and  O_28
REMARK                            x       y       z     vdW  Elec       q    Type
REMARK                         _______ _______ _______ _____ _____    ______ ____
ROOT
ATOM      1  O   UNL     1     -35.775  21.879   4.179  0.00  0.00    -0.446 OA
ENDROOT
BRANCH   1   2
ATOM      2  C   UNL     1     -35.894  22.681   3.006  0.00  0.00    +0.203 C 
ATOM      3  C   UNL     1     -35.340  21.902   1.812  0.00  0.00    +0.182 C 
ATOM      4  C   UNL     1     -36.183  20.646   1.524  0.00  0.00    +0.163 C 
ATOM      5  C   UNL     1     -37.367  23.080   2.793  0.00  0.00    +0.079 C 
ATOM      6  C   UNL     1     -38.181  22.008   2.124  0.00  0.00    +0.055 C 
ATOM      7  C   UNL     1     -37.661  20.908   1.557  0.00  0.00    +0.007 C 
BRANCH   3   8
ATOM      8  O   UNL     1     -35.330  22.766   0.676  0.00  0.00    -0.378 OA
ATOM      9  H   UNL     1     -34.508  23.281   0.669  0.00  0.00    +0.211 HD
ENDBRANCH   3   8
BRANCH   4  10
ATOM     10  O   UNL     1     -35.832  20.106   0.253  0.00  0.00    -0.377 OA
ATOM     11  H   UNL     1     -36.208  20.660  -0.448  0.00  0.00    +0.211 HD
ENDBRANCH   4  10
BRANCH   6  13
ATOM     12  O   UNL     1     -40.220  23.227   2.052  0.00  0.00    -0.245 OA
ATOM     13  C   UNL     1     -39.637  22.158   2.101  0.00  0.00    +0.334 C 
BRANCH  13  14
ATOM     14  O   UNL     1     -40.218  20.941   2.143  0.00  0.00    -0.477 OA
ATOM     15  H   UNL     1     -40.497  20.583   2.963  0.00  0.00    +0.295 HD
ENDBRANCH  13  14
ENDBRANCH   6  13
ENDBRANCH   1   2
BRANCH   1  17
ATOM     16  O   UNL     1     -36.032  22.323   6.433  0.00  0.00    -0.245 OA
ATOM     17  C   UNL     1     -35.546  22.560   5.337  0.00  0.00    +0.341 C 
BRANCH  17  18
ATOM     18  C   UNL     1     -34.594  23.654   5.039  0.00  0.00    +0.082 C 
ATOM     19  C   UNL     1     -34.784  24.863   5.586  0.00  0.00    +0.007 C 
BRANCH  19  20
ATOM     20  C   UNL     1     -33.902  26.025   5.374  0.00  0.00    +0.003 C 
ATOM     21  C   UNL     1     -33.311  26.636   6.467  0.00  0.00    +0.040 C 
ATOM     22  C   UNL     1     -33.684  26.483   4.085  0.00  0.00    +0.003 C 
ATOM     23  C   UNL     1     -32.478  27.737   6.267  0.00  0.00    +0.167 C 
ATOM     24  C   UNL     1     -32.850  27.584   3.884  0.00  0.00    +0.040 C 
ATOM     25  C   UNL     1     -32.247  28.211   4.975  0.00  0.00    +0.167 C 
BRANCH  23  26
ATOM     26  O   UNL     1     -31.893  28.339   7.339  0.00  0.00    -0.503 OA
ATOM     27  H   UNL     1     -32.019  27.990   8.199  0.00  0.00    +0.292 HD
ENDBRANCH  23  26
BRANCH  25  28
ATOM     28  O   UNL     1     -31.435  29.283   4.765  0.00  0.00    -0.503 OA
ATOM     29  H   UNL     1     -30.727  29.458   5.355  0.00  0.00    +0.292 HD
ENDBRANCH  25  28
ENDBRANCH  19  20
ENDBRANCH  17  18
ENDBRANCH   1  17
TORSDOF 10
ENDMDL
MODEL 2
REMARK VINA RESULT:      -6.4      3.123      7.739
REMARK  Name = 5281762
REMARK  10 active torsions:
REMARK  status: ('A' for Active; 'I' for Inactive)
REMARK    1  A    between atoms: O_1  and  C_2
REMARK    2  A    between atoms: O_1  and  C_17
REMARK    3  A    between atoms: C_3  and  O_8
REMARK    4  A    between atoms: C_4  and  O_10
REMARK    5  A    between atoms: C_6  and  C_13
REMARK    6  A    between atoms: C_13  and  O_14
REMARK    7  A    between atoms: C_17  and  C_18
REMARK    8  A    between atoms: C_19  and  C_20
REMARK    9  A    between atoms: C_23  and  O_26
REMARK   10  A    between atoms: C_25  and  O_28
REMARK                            x       y       z     vdW  Elec       q    Type
REMARK                         _______ _______ _______ _____ _____    ______ ____
ROOT
ATOM      1  O   UNL     1     -34.518  23.606   1.827  0.00  0.00    -0.446 OA
ENDROOT
BRANCH   1   2
ATOM      2  C   UNL     1     -35.854  23.678   2.318  0.00  0.00    +0.203 C 
ATOM      3  C   UNL     1     -36.164  22.403   3.107  0.00  0.00    +0.182 C 
ATOM      4  C   UNL     1     -35.282  22.297   4.364  0.00  0.00    +0.163 C 
ATOM      5  C   UNL     1     -36.026  24.940   3.184  0.00  0.00    +0.079 C 
ATOM      6  C   UNL     1     -35.535  24.764   4.593  0.00  0.00    +0.055 C 
ATOM      7  C   UNL     1     -35.191  23.585   5.131  0.00  0.00    +0.007 C 
BRANCH   3   8
ATOM      8  O   UNL     1     -37.545  22.421   3.467  0.00  0.00    -0.378 OA
ATOM      9  H   UNL     1     -37.919  23.294   3.271  0.00  0.00    +0.211 HD
ENDBRANCH   3   8
BRANCH   4  10
ATOM     10  O   UNL     1     -35.781  21.275   5.222  0.00  0.00    -0.377 OA
ATOM     11  H   UNL     1     -35.240  21.235   6.025  0.00  0.00    +0.211 HD
ENDBRANCH   4  10
BRANCH   6  13
ATOM     12  O   UNL     1     -34.373  26.300   5.986  0.00  0.00    -0.245 OA
ATOM     13  C   UNL     1     -35.402  25.957   5.433  0.00  0.00    +0.334 C 
BRANCH  13  14
ATOM     14  O   UNL     1     -36.586  26.602   5.493  0.00  0.00    -0.477 OA
ATOM     15  H   UNL     1     -36.655  27.411   5.960  0.00  0.00    +0.295 HD
ENDBRANCH  13  14
ENDBRANCH   6  13
ENDBRANCH   1   2
BRANCH   1  17
ATOM     16  O   UNL     1     -34.841  24.010  -0.426  0.00  0.00    -0.245 OA
ATOM     17  C   UNL     1     -34.393  23.344   0.495  0.00  0.00    +0.341 C 
BRANCH  17  18
ATOM     18  C   UNL     1     -33.612  22.094   0.350  0.00  0.00    +0.082 C 
ATOM     19  C   UNL     1     -34.156  20.927   0.723  0.00  0.00    +0.007 C 
BRANCH  19  20
ATOM     20  C   UNL     1     -33.485  19.620   0.618  0.00  0.00    +0.003 C 
ATOM     21  C   UNL     1     -34.250  18.472   0.494  0.00  0.00    +0.040 C 
ATOM     22  C   UNL     1     -32.101  19.565   0.646  0.00  0.00    +0.003 C 
ATOM     23  C   UNL     1     -33.614  17.234   0.397  0.00  0.00    +0.167 C 
ATOM     24  C   UNL     1     -31.465  18.327   0.549  0.00  0.00    +0.040 C 
ATOM     25  C   UNL     1     -32.221  17.162   0.424  0.00  0.00    +0.167 C 
BRANCH  23  26
ATOM     26  O   UNL     1     -34.363  16.104   0.274  0.00  0.00    -0.503 OA
ATOM     27  H   UNL     1     -35.057  16.067  -0.356  0.00  0.00    +0.292 HD
ENDBRANCH  23  26
BRANCH  25  28
ATOM     28  O   UNL     1     -31.588  15.959   0.327  0.00  0.00    -0.503 OA
ATOM     29  H   UNL     1     -31.901  15.311  -0.273  0.00  0.00    +0.292 HD
ENDBRANCH  25  28
ENDBRANCH  19  20
ENDBRANCH  17  18
ENDBRANCH   1  17
TORSDOF 10
ENDMDL
MODEL 3
REMARK VINA RESULT:      -6.4      2.328      6.888
REMARK  Name = 5281762
REMARK  10 active torsions:
REMARK  status: ('A' for Active; 'I' for Inactive)
REMARK    1  A    between atoms: O_1  and  C_2
REMARK    2  A    between atoms: O_1  and  C_17
REMARK    3  A    between atoms: C_3  and  O_8
REMARK    4  A    between atoms: C_4  and  O_10
REMARK    5  A    between atoms: C_6  and  C_13
REMARK    6  A    between atoms: C_13  and  O_14
REMARK    7  A    between atoms: C_17  and  C_18
REMARK    8  A    between atoms: C_19  and  C_20
REMARK    9  A    between atoms: C_23  and  O_26
REMARK   10  A    between atoms: C_25  and  O_28
REMARK                            x       y       z     vdW  Elec       q    Type
REMARK                         _______ _______ _______ _____ _____    ______ ____
ROOT
ATOM      1  O   UNL     1     -34.414  23.386   5.151  0.00  0.00    -0.446 OA
ENDROOT
BRANCH   1   2
ATOM      2  C   UNL     1     -34.804  24.708   5.518  0.00  0.00    +0.203 C 
ATOM      3  C   UNL     1     -33.988  25.713   4.703  0.00  0.00    +0.182 C 
ATOM      4  C   UNL     1     -34.309  25.605   3.202  0.00  0.00    +0.163 C 
ATOM      5  C   UNL     1     -36.317  24.887   5.295  0.00  0.00    +0.079 C 
ATOM      6  C   UNL     1     -36.674  25.196   3.869  0.00  0.00    +0.055 C 
ATOM      7  C   UNL     1     -35.781  25.512   2.919  0.00  0.00    +0.007 C 
BRANCH   3   8
ATOM      8  O   UNL     1     -34.281  27.024   5.183  0.00  0.00    -0.378 OA
ATOM      9  H   UNL     1     -35.184  27.046   5.537  0.00  0.00    +0.211 HD
ENDBRANCH   3   8
BRANCH   4  10
ATOM     10  O   UNL     1     -33.769  26.727   2.508  0.00  0.00    -0.377 OA
ATOM     11  H   UNL     1     -32.813  26.610   2.402  0.00  0.00    +0.211 HD
ENDBRANCH   4  10
BRANCH   6  13
ATOM     12  O   UNL     1     -38.708  24.098   3.314  0.00  0.00    -0.245 OA
ATOM     13  C   UNL     1     -38.084  25.131   3.478  0.00  0.00    +0.334 C 
BRANCH  13  14
ATOM     14  O   UNL     1     -38.571  26.381   3.332  0.00  0.00    -0.477 OA
ATOM     15  H   UNL     1     -39.321  26.531   2.791  0.00  0.00    +0.295 HD
ENDBRANCH  13  14
ENDBRANCH   6  13
ENDBRANCH   1   2
BRANCH   1  17
ATOM     16  O   UNL     1     -35.806  22.355   6.681  0.00  0.00    -0.245 OA
ATOM     17  C   UNL     1     -35.216  22.385   5.611  0.00  0.00    +0.341 C 
BRANCH  17  18
ATOM     18  C   UNL     1     -35.254  21.324   4.580  0.00  0.00    +0.082 C 
ATOM     19  C   UNL     1     -35.576  21.639   3.318  0.00  0.00    +0.007 C 
BRANCH  19  20
ATOM     20  C   UNL     1     -35.637  20.676   2.204  0.00  0.00    +0.003 C 
ATOM     21  C   UNL     1     -36.860  20.396   1.617  0.00  0.00    +0.040 C 
ATOM     22  C   UNL     1     -34.471  20.070   1.768  0.00  0.00    +0.003 C 
ATOM     23  C   UNL     1     -36.918  19.483   0.563  0.00  0.00    +0.167 C 
ATOM     24  C   UNL     1     -34.529  19.157   0.714  0.00  0.00    +0.040 C 
ATOM     25  C   UNL     1     -35.752  18.864   0.112  0.00  0.00    +0.167 C 
BRANCH  23  26
ATOM     26  O   UNL     1     -38.118  19.206  -0.018  0.00  0.00    -0.503 OA
ATOM     27  H   UNL     1     -38.851  18.961   0.513  0.00  0.00    +0.292 HD
ENDBRANCH  23  26
BRANCH  25  28
ATOM     28  O   UNL     1     -35.795  17.973  -0.917  0.00  0.00    -0.503 OA
ATOM     29  H   UNL     1     -36.553  17.434  -1.040  0.00  0.00    +0.292 HD
ENDBRANCH  25  28
ENDBRANCH  19  20
ENDBRANCH  17  18
ENDBRANCH   1  17
TORSDOF 10
ENDMDL
MODEL 4
REMARK VINA RESULT:      -6.4      3.410      7.256
REMARK  Name = 5281762
REMARK  10 active torsions:
REMARK  status: ('A' for Active; 'I' for Inactive)
REMARK    1  A    between atoms: O_1  and  C_2
REMARK    2  A    between atoms: O_1  and  C_17
REMARK    3  A    between atoms: C_3  and  O_8
REMARK    4  A    between atoms: C_4  and  O_10
REMARK    5  A    between atoms: C_6  and  C_13
REMARK    6  A    between atoms: C_13  and  O_14
REMARK    7  A    between atoms: C_17  and  C_18
REMARK    8  A    between atoms: C_19  and  C_20
REMARK    9  A    between atoms: C_23  and  O_26
REMARK   10  A    between atoms: C_25  and  O_28
REMARK                            x       y       z     vdW  Elec       q    Type
REMARK                         _______ _______ _______ _____ _____    ______ ____
ROOT
ATOM      1  O   UNL     1     -35.025  24.023   1.458  0.00  0.00    -0.446 OA
ENDROOT
BRANCH   1   2
ATOM      2  C   UNL     1     -36.282  23.977   2.130  0.00  0.00    +0.203 C 
ATOM      3  C   UNL     1     -36.453  22.598   2.771  0.00  0.00    +0.182 C 
ATOM      4  C   UNL     1     -35.404  22.359   3.871  0.00  0.00    +0.163 C 
ATOM      5  C   UNL     1     -36.358  25.105   3.176  0.00  0.00    +0.079 C 
ATOM      6  C   UNL     1     -35.672  24.763   4.468  0.00  0.00    +0.055 C 
ATOM      7  C   UNL     1     -35.234  23.536   4.788  0.00  0.00    +0.007 C 
BRANCH   3   8
ATOM      8  O   UNL     1     -37.771  22.514   3.312  0.00  0.00    -0.378 OA
ATOM      9  H   UNL     1     -38.354  22.067   2.678  0.00  0.00    +0.211 HD
ENDBRANCH   3   8
BRANCH   4  10
ATOM     10  O   UNL     1     -35.759  21.214   4.640  0.00  0.00    -0.377 OA
ATOM     11  H   UNL     1     -35.590  21.389   5.578  0.00  0.00    +0.211 HD
ENDBRANCH   4  10
BRANCH   6  13
ATOM     12  O   UNL     1     -34.421  25.990   6.074  0.00  0.00    -0.245 OA
ATOM     13  C   UNL     1     -35.449  25.837   5.438  0.00  0.00    +0.334 C 
BRANCH  13  14
ATOM     14  O   UNL     1     -36.549  26.616   5.512  0.00  0.00    -0.477 OA
ATOM     15  H   UNL     1     -36.586  27.315   6.135  0.00  0.00    +0.295 HD
ENDBRANCH  13  14
ENDBRANCH   6  13
ENDBRANCH   1   2
BRANCH   1  17
ATOM     16  O   UNL     1     -35.687  23.433  -0.676  0.00  0.00    -0.245 OA
ATOM     17  C   UNL     1     -34.953  23.319   0.294  0.00  0.00    +0.341 C 
BRANCH  17  18
ATOM     18  C   UNL     1     -33.817  22.375   0.404  0.00  0.00    +0.082 C 
ATOM     19  C   UNL     1     -34.058  21.061   0.512  0.00  0.00    +0.007 C 
BRANCH  19  20
ATOM     20  C   UNL     1     -33.015  20.025   0.617  0.00  0.00    +0.003 C 
ATOM     21  C   UNL     1     -31.794  20.226  -0.005  0.00  0.00    +0.040 C 
ATOM     22  C   UNL     1     -33.278  18.871   1.337  0.00  0.00    +0.003 C 
ATOM     23  C   UNL     1     -30.808  19.244   0.094  0.00  0.00    +0.167 C 
ATOM     24  C   UNL     1     -32.291  17.889   1.436  0.00  0.00    +0.040 C 
ATOM     25  C   UNL     1     -31.056  18.076   0.815  0.00  0.00    +0.167 C 
BRANCH  23  26
ATOM     26  O   UNL     1     -29.605  19.438  -0.515  0.00  0.00    -0.503 OA
ATOM     27  H   UNL     1     -28.943  18.777  -0.467  0.00  0.00    +0.292 HD
ENDBRANCH  23  26
BRANCH  25  28
ATOM     28  O   UNL     1     -30.101  17.111   0.921  0.00  0.00    -0.503 OA
ATOM     29  H   UNL     1     -29.452  17.018   0.252  0.00  0.00    +0.292 HD
ENDBRANCH  25  28
ENDBRANCH  19  20
ENDBRANCH  17  18
ENDBRANCH   1  17
TORSDOF 10
ENDMDL
MODEL 5
REMARK VINA RESULT:      -6.4      4.821      7.858
REMARK  Name = 5281762
REMARK  10 active torsions:
REMARK  status: ('A' for Active; 'I' for Inactive)
REMARK    1  A    between atoms: O_1  and  C_2
REMARK    2  A    between atoms: O_1  and  C_17
REMARK    3  A    between atoms: C_3  and  O_8
REMARK    4  A    between atoms: C_4  and  O_10
REMARK    5  A    between atoms: C_6  and  C_13
REMARK    6  A    between atoms: C_13  and  O_14
REMARK    7  A    between atoms: C_17  and  C_18
REMARK    8  A    between atoms: C_19  and  C_20
REMARK    9  A    between atoms: C_23  and  O_26
REMARK   10  A    between atoms: C_25  and  O_28
REMARK                            x       y       z     vdW  Elec       q    Type
REMARK                         _______ _______ _______ _____ _____    ______ ____
ROOT
ATOM      1  O   UNL     1     -38.620  24.327   3.445  0.00  0.00    -0.446 OA
ENDROOT
BRANCH   1   2
ATOM      2  C   UNL     1     -37.306  24.283   2.892  0.00  0.00    +0.203 C 
ATOM      3  C   UNL     1     -36.581  25.589   3.226  0.00  0.00    +0.182 C 
ATOM      4  C   UNL     1     -36.371  25.738   4.743  0.00  0.00    +0.163 C 
ATOM      5  C   UNL     1     -36.551  23.056   3.437  0.00  0.00    +0.079 C 
ATOM      6  C   UNL     1     -35.954  23.283   4.797  0.00  0.00    +0.055 C 
ATOM      7  C   UNL     1     -35.874  24.481   5.396  0.00  0.00    +0.007 C 
BRANCH   3   8
ATOM      8  O   UNL     1     -35.327  25.593   2.545  0.00  0.00    -0.378 OA
ATOM      9  H   UNL     1     -34.983  26.499   2.506  0.00  0.00    +0.211 HD
ENDBRANCH   3   8
BRANCH   4  10
ATOM     10  O   UNL     1     -35.452  26.796   5.003  0.00  0.00    -0.377 OA
ATOM     11  H   UNL     1     -34.682  26.705   4.422  0.00  0.00    +0.211 HD
ENDBRANCH   4  10
BRANCH   6  13
ATOM     12  O   UNL     1     -35.117  22.137   6.703  0.00  0.00    -0.245 OA
ATOM     13  C   UNL     1     -35.440  22.123   5.529  0.00  0.00    +0.334 C 
BRANCH  13  14
ATOM     14  O   UNL     1     -35.385  21.056   4.705  0.00  0.00    -0.477 OA
ATOM     15  H   UNL     1     -36.140  20.808   4.208  0.00  0.00    +0.295 HD
ENDBRANCH  13  14
ENDBRANCH   6  13
ENDBRANCH   1   2
BRANCH   1  17
ATOM     16  O   UNL     1     -39.651  24.627   1.398  0.00  0.00    -0.245 OA
ATOM     17  C   UNL     1     -39.596  24.781   2.608  0.00  0.00    +0.341 C 
BRANCH  17  18
ATOM     18  C   UNL     1     -40.595  25.505   3.427  0.00  0.00    +0.082 C 
ATOM     19  C   UNL     1     -41.505  26.283   2.825  0.00  0.00    +0.007 C 
BRANCH  19  20
ATOM     20  C   UNL     1     -42.553  27.043   3.528  0.00  0.00    +0.003 C 
ATOM     21  C   UNL     1     -42.204  28.174   4.248  0.00  0.00    +0.040 C 
ATOM     22  C   UNL     1     -43.867  26.611   3.456  0.00  0.00    +0.003 C 
ATOM     23  C   UNL     1     -43.197  28.893   4.915  0.00  0.00    +0.167 C 
ATOM     24  C   UNL     1     -44.860  27.329   4.123  0.00  0.00    +0.040 C 
ATOM     25  C   UNL     1     -44.525  28.470   4.852  0.00  0.00    +0.167 C 
BRANCH  23  26
ATOM     26  O   UNL     1     -42.858  30.006   5.622  0.00  0.00    -0.503 OA
ATOM     27  H   UNL     1     -42.717  30.819   5.178  0.00  0.00    +0.292 HD
ENDBRANCH  23  26
BRANCH  25  28
ATOM     28  O   UNL     1     -45.503  29.164   5.497  0.00  0.00    -0.503 OA
ATOM     29  H   UNL     1     -45.702  28.972   6.392  0.00  0.00    +0.292 HD
ENDBRANCH  25  28
ENDBRANCH  19  20
ENDBRANCH  17  18
ENDBRANCH   1  17
TORSDOF 10
ENDMDL
MODEL 6
REMARK VINA RESULT:      -6.3      3.287      7.620
REMARK  Name = 5281762
REMARK  10 active torsions:
REMARK  status: ('A' for Active; 'I' for Inactive)
REMARK    1  A    between atoms: O_1  and  C_2
REMARK    2  A    between atoms: O_1  and  C_17
REMARK    3  A    between atoms: C_3  and  O_8
REMARK    4  A    between atoms: C_4  and  O_10
REMARK    5  A    between atoms: C_6  and  C_13
REMARK    6  A    between atoms: C_13  and  O_14
REMARK    7  A    between atoms: C_17  and  C_18
REMARK    8  A    between atoms: C_19  and  C_20
REMARK    9  A    between atoms: C_23  and  O_26
REMARK   10  A    between atoms: C_25  and  O_28
REMARK                            x       y       z     vdW  Elec       q    Type
REMARK                         _______ _______ _______ _____ _____    ______ ____
ROOT
ATOM      1  O   UNL     1     -34.958  23.829   1.796  0.00  0.00    -0.446 OA
ENDROOT
BRANCH   1   2
ATOM      2  C   UNL     1     -35.934  24.528   2.565  0.00  0.00    +0.203 C 
ATOM      3  C   UNL     1     -36.585  23.553   3.549  0.00  0.00    +0.182 C 
ATOM      4  C   UNL     1     -35.565  23.034   4.577  0.00  0.00    +0.163 C 
ATOM      5  C   UNL     1     -35.276  25.716   3.291  0.00  0.00    +0.079 C 
ATOM      6  C   UNL     1     -34.580  25.322   4.564  0.00  0.00    +0.055 C 
ATOM      7  C   UNL     1     -34.696  24.119   5.146  0.00  0.00    +0.007 C 
BRANCH   3   8
ATOM      8  O   UNL     1     -37.658  24.226   4.207  0.00  0.00    -0.378 OA
ATOM      9  H   UNL     1     -38.102  23.613   4.813  0.00  0.00    +0.211 HD
ENDBRANCH   3   8
BRANCH   4  10
ATOM     10  O   UNL     1     -36.242  22.371   5.641  0.00  0.00    -0.377 OA
ATOM     11  H   UNL     1     -37.175  22.634   5.644  0.00  0.00    +0.211 HD
ENDBRANCH   4  10
BRANCH   6  13
ATOM     12  O   UNL     1     -33.770  26.629   6.376  0.00  0.00    -0.245 OA
ATOM     13  C   UNL     1     -33.702  26.303   5.204  0.00  0.00    +0.334 C 
BRANCH  13  14
ATOM     14  O   UNL     1     -32.821  26.780   4.300  0.00  0.00    -0.477 OA
ATOM     15  H   UNL     1     -32.088  26.258   4.040  0.00  0.00    +0.295 HD
ENDBRANCH  13  14
ENDBRANCH   6  13
ENDBRANCH   1   2
BRANCH   1  17
ATOM     16  O   UNL     1     -36.329  23.132   0.072  0.00  0.00    -0.245 OA
ATOM     17  C   UNL     1     -35.449  22.933   0.895  0.00  0.00    +0.341 C 
BRANCH  17  18
ATOM     18  C   UNL     1     -34.724  21.656   1.084  0.00  0.00    +0.082 C 
ATOM     19  C   UNL     1     -33.592  21.431   0.403  0.00  0.00    +0.007 C 
BRANCH  19  20
ATOM     20  C   UNL     1     -32.778  20.207   0.512  0.00  0.00    +0.003 C 
ATOM     21  C   UNL     1     -31.529  20.168  -0.083  0.00  0.00    +0.040 C 
ATOM     22  C   UNL     1     -33.280  19.120   1.210  0.00  0.00    +0.003 C 
ATOM     23  C   UNL     1     -30.759  19.009   0.020  0.00  0.00    +0.167 C 
ATOM     24  C   UNL     1     -32.510  17.961   1.313  0.00  0.00    +0.040 C 
ATOM     25  C   UNL     1     -31.250  17.905   0.718  0.00  0.00    +0.167 C 
BRANCH  23  26
ATOM     26  O   UNL     1     -29.529  18.967  -0.564  0.00  0.00    -0.503 OA
ATOM     27  H   UNL     1     -29.420  18.551  -1.397  0.00  0.00    +0.292 HD
ENDBRANCH  23  26
BRANCH  25  28
ATOM     28  O   UNL     1     -30.507  16.769   0.828  0.00  0.00    -0.503 OA
ATOM     29  H   UNL     1     -29.584  16.825   0.980  0.00  0.00    +0.292 HD
ENDBRANCH  25  28
ENDBRANCH  19  20
ENDBRANCH  17  18
ENDBRANCH   1  17
TORSDOF 10
ENDMDL
MODEL 7
REMARK VINA RESULT:      -6.3      2.576      8.453
REMARK  Name = 5281762
REMARK  10 active torsions:
REMARK  status: ('A' for Active; 'I' for Inactive)
REMARK    1  A    between atoms: O_1  and  C_2
REMARK    2  A    between atoms: O_1  and  C_17
REMARK    3  A    between atoms: C_3  and  O_8
REMARK    4  A    between atoms: C_4  and  O_10
REMARK    5  A    between atoms: C_6  and  C_13
REMARK    6  A    between atoms: C_13  and  O_14
REMARK    7  A    between atoms: C_17  and  C_18
REMARK    8  A    between atoms: C_19  and  C_20
REMARK    9  A    between atoms: C_23  and  O_26
REMARK   10  A    between atoms: C_25  and  O_28
REMARK                            x       y       z     vdW  Elec       q    Type
REMARK                         _______ _______ _______ _____ _____    ______ ____
ROOT
ATOM      1  O   UNL     1     -34.466  28.645   3.409  0.00  0.00    -0.446 OA
ENDROOT
BRANCH   1   2
ATOM      2  C   UNL     1     -33.117  28.615   2.948  0.00  0.00    +0.203 C 
ATOM      3  C   UNL     1     -32.691  30.033   2.560  0.00  0.00    +0.182 C 
ATOM      4  C   UNL     1     -32.673  30.965   3.785  0.00  0.00    +0.163 C 
ATOM      5  C   UNL     1     -32.204  28.024   4.038  0.00  0.00    +0.079 C 
ATOM      6  C   UNL     1     -31.806  29.025   5.086  0.00  0.00    +0.055 C 
ATOM      7  C   UNL     1     -32.018  30.346   4.986  0.00  0.00    +0.007 C 
BRANCH   3   8
ATOM      8  O   UNL     1     -31.397  29.967   1.964  0.00  0.00    -0.378 OA
ATOM      9  H   UNL     1     -31.019  29.086   2.107  0.00  0.00    +0.211 HD
ENDBRANCH   3   8
BRANCH   4  10
ATOM     10  O   UNL     1     -32.004  32.180   3.460  0.00  0.00    -0.377 OA
ATOM     11  H   UNL     1     -32.423  32.583   2.685  0.00  0.00    +0.211 HD
ENDBRANCH   4  10
BRANCH   6  13
ATOM     12  O   UNL     1     -30.227  27.751   6.324  0.00  0.00    -0.245 OA
ATOM     13  C   UNL     1     -31.162  28.532   6.305  0.00  0.00    +0.334 C 
BRANCH  13  14
ATOM     14  O   UNL     1     -31.762  29.075   7.385  0.00  0.00    -0.477 OA
ATOM     15  H   UNL     1     -31.381  28.968   8.235  0.00  0.00    +0.295 HD
ENDBRANCH  13  14
ENDBRANCH   6  13
ENDBRANCH   1   2
BRANCH   1  17
ATOM     16  O   UNL     1     -35.870  28.015   1.686  0.00  0.00    -0.245 OA
ATOM     17  C   UNL     1     -35.329  27.812   2.762  0.00  0.00    +0.341 C 
BRANCH  17  18
ATOM     18  C   UNL     1     -35.502  26.602   3.596  0.00  0.00    +0.082 C 
ATOM     19  C   UNL     1     -35.053  25.420   3.148  0.00  0.00    +0.007 C 
BRANCH  19  20
ATOM     20  C   UNL     1     -35.158  24.150   3.888  0.00  0.00    +0.003 C 
ATOM     21  C   UNL     1     -35.415  22.980   3.194  0.00  0.00    +0.040 C 
ATOM     22  C   UNL     1     -34.996  24.153   5.264  0.00  0.00    +0.003 C 
ATOM     23  C   UNL     1     -35.515  21.778   3.895  0.00  0.00    +0.167 C 
ATOM     24  C   UNL     1     -35.096  22.951   5.965  0.00  0.00    +0.040 C 
ATOM     25  C   UNL     1     -35.356  21.764   5.281  0.00  0.00    +0.167 C 
BRANCH  23  26
ATOM     26  O   UNL     1     -35.768  20.625   3.216  0.00  0.00    -0.503 OA
ATOM     27  H   UNL     1     -35.340  20.459   2.399  0.00  0.00    +0.292 HD
ENDBRANCH  23  26
BRANCH  25  28
ATOM     28  O   UNL     1     -35.449  20.596   5.977  0.00  0.00    -0.503 OA
ATOM     29  H   UNL     1     -35.660  19.800   5.530  0.00  0.00    +0.292 HD
ENDBRANCH  25  28
ENDBRANCH  19  20
ENDBRANCH  17  18
ENDBRANCH   1  17
TORSDOF 10
ENDMDL
MODEL 8
REMARK VINA RESULT:      -6.3      1.502      3.457
REMARK  Name = 5281762
REMARK  10 active torsions:
REMARK  status: ('A' for Active; 'I' for Inactive)
REMARK    1  A    between atoms: O_1  and  C_2
REMARK    2  A    between atoms: O_1  and  C_17
REMARK    3  A    between atoms: C_3  and  O_8
REMARK    4  A    between atoms: C_4  and  O_10
REMARK    5  A    between atoms: C_6  and  C_13
REMARK    6  A    between atoms: C_13  and  O_14
REMARK    7  A    between atoms: C_17  and  C_18
REMARK    8  A    between atoms: C_19  and  C_20
REMARK    9  A    between atoms: C_23  and  O_26
REMARK   10  A    between atoms: C_25  and  O_28
REMARK                            x       y       z     vdW  Elec       q    Type
REMARK                         _______ _______ _______ _____ _____    ______ ____
ROOT
ATOM      1  O   UNL     1     -36.137  23.901   1.749  0.00  0.00    -0.446 OA
ENDROOT
BRANCH   1   2
ATOM      2  C   UNL     1     -37.123  23.092   2.385  0.00  0.00    +0.203 C 
ATOM      3  C   UNL     1     -37.160  21.722   1.703  0.00  0.00    +0.182 C 
ATOM      4  C   UNL     1     -35.834  20.965   1.901  0.00  0.00    +0.163 C 
ATOM      5  C   UNL     1     -36.812  22.972   3.889  0.00  0.00    +0.079 C 
ATOM      6  C   UNL     1     -35.778  21.927   4.199  0.00  0.00    +0.055 C 
ATOM      7  C   UNL     1     -35.326  21.026   3.313  0.00  0.00    +0.007 C 
BRANCH   3   8
ATOM      8  O   UNL     1     -38.247  20.976   2.249  0.00  0.00    -0.378 OA
ATOM      9  H   UNL     1     -38.766  20.586   1.529  0.00  0.00    +0.211 HD
ENDBRANCH   3   8
BRANCH   4  10
ATOM     10  O   UNL     1     -35.993  19.602   1.519  0.00  0.00    -0.377 OA
ATOM     11  H   UNL     1     -35.125  19.171   1.491  0.00  0.00    +0.211 HD
ENDBRANCH   4  10
BRANCH   6  13
ATOM     12  O   UNL     1     -34.817  22.877   6.154  0.00  0.00    -0.245 OA
ATOM     13  C   UNL     1     -35.208  21.896   5.547  0.00  0.00    +0.334 C 
BRANCH  13  14
ATOM     14  O   UNL     1     -35.188  20.625   6.001  0.00  0.00    -0.477 OA
ATOM     15  H   UNL     1     -34.866  19.937   5.452  0.00  0.00    +0.295 HD
ENDBRANCH  13  14
ENDBRANCH   6  13
ENDBRANCH   1   2
BRANCH   1  17
ATOM     16  O   UNL     1     -37.321  25.843   1.340  0.00  0.00    -0.245 OA
ATOM     17  C   UNL     1     -36.358  25.245   1.795  0.00  0.00    +0.341 C 
BRANCH  17  18
ATOM     18  C   UNL     1     -35.216  25.869   2.501  0.00  0.00    +0.082 C 
ATOM     19  C   UNL     1     -35.270  26.034   3.830  0.00  0.00    +0.007 C 
BRANCH  19  20
ATOM     20  C   UNL     1     -34.196  26.630   4.644  0.00  0.00    +0.003 C 
ATOM     21  C   UNL     1     -33.341  27.555   4.067  0.00  0.00    +0.040 C 
ATOM     22  C   UNL     1     -34.062  26.253   5.970  0.00  0.00    +0.003 C 
ATOM     23  C   UNL     1     -32.324  28.119   4.837  0.00  0.00    +0.167 C 
ATOM     24  C   UNL     1     -33.044  26.816   6.740  0.00  0.00    +0.040 C 
ATOM     25  C   UNL     1     -32.176  27.749   6.174  0.00  0.00    +0.167 C 
BRANCH  23  26
ATOM     26  O   UNL     1     -31.483  29.029   4.274  0.00  0.00    -0.503 OA
ATOM     27  H   UNL     1     -31.342  29.027   3.347  0.00  0.00    +0.292 HD
ENDBRANCH  23  26
BRANCH  25  28
ATOM     28  O   UNL     1     -31.187  28.293   6.938  0.00  0.00    -0.503 OA
ATOM     29  H   UNL     1     -30.356  28.495   6.554  0.00  0.00    +0.292 HD
ENDBRANCH  25  28
ENDBRANCH  19  20
ENDBRANCH  17  18
ENDBRANCH   1  17
TORSDOF 10
ENDMDL
MODEL 9
REMARK VINA RESULT:      -6.2      3.871      7.198
REMARK  Name = 5281762
REMARK  10 active torsions:
REMARK  status: ('A' for Active; 'I' for Inactive)
REMARK    1  A    between atoms: O_1  and  C_2
REMARK    2  A    between atoms: O_1  and  C_17
REMARK    3  A    between atoms: C_3  and  O_8
REMARK    4  A    between atoms: C_4  and  O_10
REMARK    5  A    between atoms: C_6  and  C_13
REMARK    6  A    between atoms: C_13  and  O_14
REMARK    7  A    between atoms: C_17  and  C_18
REMARK    8  A    between atoms: C_19  and  C_20
REMARK    9  A    between atoms: C_23  and  O_26
REMARK   10  A    between atoms: C_25  and  O_28
REMARK                            x       y       z     vdW  Elec       q    Type
REMARK                         _______ _______ _______ _____ _____    ______ ____
ROOT
ATOM      1  O   UNL     1     -36.000  22.297   2.114  0.00  0.00    -0.446 OA
ENDROOT
BRANCH   1   2
ATOM      2  C   UNL     1     -36.543  22.659   3.382  0.00  0.00    +0.203 C 
ATOM      3  C   UNL     1     -35.397  23.025   4.329  0.00  0.00    +0.182 C 
ATOM      4  C   UNL     1     -34.650  24.279   3.842  0.00  0.00    +0.163 C 
ATOM      5  C   UNL     1     -37.536  23.824   3.213  0.00  0.00    +0.079 C 
ATOM      6  C   UNL     1     -36.867  25.167   3.135  0.00  0.00    +0.055 C 
ATOM      7  C   UNL     1     -35.571  25.382   3.408  0.00  0.00    +0.007 C 
BRANCH   3   8
ATOM      8  O   UNL     1     -35.940  23.241   5.630  0.00  0.00    -0.378 OA
ATOM      9  H   UNL     1     -35.232  23.183   6.291  0.00  0.00    +0.211 HD
ENDBRANCH   3   8
BRANCH   4  10
ATOM     10  O   UNL     1     -33.793  24.764   4.872  0.00  0.00    -0.377 OA
ATOM     11  H   UNL     1     -34.271  24.766   5.715  0.00  0.00    +0.211 HD
ENDBRANCH   4  10
BRANCH   6  13
ATOM     12  O   UNL     1     -37.337  27.118   1.861  0.00  0.00    -0.245 OA
ATOM     13  C   UNL     1     -37.672  26.317   2.716  0.00  0.00    +0.334 C 
BRANCH  13  14
ATOM     14  O   UNL     1     -38.823  26.344   3.419  0.00  0.00    -0.477 OA
ATOM     15  H   UNL     1     -38.883  26.860   4.199  0.00  0.00    +0.295 HD
ENDBRANCH  13  14
ENDBRANCH   6  13
ENDBRANCH   1   2
BRANCH   1  17
ATOM     16  O   UNL     1     -36.631  20.075   2.183  0.00  0.00    -0.245 OA
ATOM     17  C   UNL     1     -35.838  20.961   1.903  0.00  0.00    +0.341 C 
BRANCH  17  18
ATOM     18  C   UNL     1     -34.516  20.760   1.266  0.00  0.00    +0.082 C 
ATOM     19  C   UNL     1     -33.856  19.610   1.461  0.00  0.00    +0.007 C 
BRANCH  19  20
ATOM     20  C   UNL     1     -32.543  19.288   0.875  0.00  0.00    +0.003 C 
ATOM     21  C   UNL     1     -31.991  18.036   1.092  0.00  0.00    +0.040 C 
ATOM     22  C   UNL     1     -31.886  20.245   0.119  0.00  0.00    +0.003 C 
ATOM     23  C   UNL     1     -30.747  17.733   0.538  0.00  0.00    +0.167 C 
ATOM     24  C   UNL     1     -30.642  19.941  -0.435  0.00  0.00    +0.040 C 
ATOM     25  C   UNL     1     -30.073  18.686  -0.226  0.00  0.00    +0.167 C 
BRANCH  23  26
ATOM     26  O   UNL     1     -30.202  16.503   0.748  0.00  0.00    -0.503 OA
ATOM     27  H   UNL     1     -29.499  16.203   0.207  0.00  0.00    +0.292 HD
ENDBRANCH  23  26
BRANCH  25  28
ATOM     28  O   UNL     1     -28.859  18.401  -0.774  0.00  0.00    -0.503 OA
ATOM     29  H   UNL     1     -28.636  17.516  -0.986  0.00  0.00    +0.292 HD
ENDBRANCH  25  28
ENDBRANCH  19  20
ENDBRANCH  17  18
ENDBRANCH   1  17
TORSDOF 10
ENDMDL
