MODEL 1
REMARK VINA RESULT:      -7.4      0.000      0.000
REMARK  Name = 54717271
REMARK  5 active torsions:
REMARK  status: ('A' for Active; 'I' for Inactive)
REMARK    1  A    between atoms: C_5  and  C_20
REMARK    2  A    between atoms: C_11  and  O_27
REMARK    3  A    between atoms: C_13  and  O_29
REMARK    4  A    between atoms: C_16  and  O_31
REMARK    5  A    between atoms: C_22  and  O_25
REMARK                            x       y       z     vdW  Elec       q    Type
REMARK                         _______ _______ _______ _____ _____    ______ ____
ROOT
ATOM      1  O   UNL     1     -37.946  24.750   3.776  0.00  0.00    -0.287 OA
ATOM      2  O   UNL     1     -41.119  22.512   0.106  0.00  0.00    -0.286 OA
ATOM      3  C   UNL     1     -38.248  22.970   2.232  0.00  0.00    +0.048 C 
ATOM      4  C   UNL     1     -39.086  22.395   1.275  0.00  0.00    +0.076 C 
ATOM      5  C   UNL     1     -37.019  22.371   2.536  0.00  0.00    +0.034 C 
ATOM      6  C   UNL     1     -39.947  24.830   2.602  0.00  0.00    +0.048 C 
ATOM      7  C   UNL     1     -40.785  24.255   1.645  0.00  0.00    +0.076 C 
ATOM      8  C   UNL     1     -38.647  24.210   2.930  0.00  0.00    +0.196 C 
ATOM      9  C   UNL     1     -36.635  21.200   1.882  0.00  0.00    -0.016 C 
ATOM     10  C   UNL     1     -40.385  23.015   0.946  0.00  0.00    +0.202 C 
ATOM     11  C   UNL     1     -38.696  21.220   0.622  0.00  0.00    +0.136 C 
ATOM     12  C   UNL     1     -37.471  20.625   0.927  0.00  0.00    +0.033 C 
ATOM     13  C   UNL     1     -42.014  24.853   1.342  0.00  0.00    +0.140 C 
ATOM     14  C   UNL     1     -40.338  26.004   3.257  0.00  0.00    +0.040 C 
ATOM     15  C   UNL     1     -35.333  20.519   2.170  0.00  0.00    +0.031 C 
ATOM     16  C   UNL     1     -41.564  26.596   2.952  0.00  0.00    +0.137 C 
ATOM     17  C   UNL     1     -42.400  26.022   1.998  0.00  0.00    +0.073 C 
ENDROOT
BRANCH   5  20
ATOM     18  O   UNL     1     -36.186  22.335   4.827  0.00  0.00    -0.421 OA
ATOM     19  O   UNL     1     -35.463  22.257   6.980  0.00  0.00    -0.244 OA
ATOM     20  C   UNL     1     -36.071  22.905   3.531  0.00  0.00    +0.151 C 
ATOM     21  C   UNL     1     -35.170  23.864   3.273  0.00  0.00    +0.074 C 
ATOM     22  C   UNL     1     -34.305  24.309   4.328  0.00  0.00    +0.143 C 
ATOM     23  C   UNL     1     -35.377  22.740   5.855  0.00  0.00    +0.349 C 
ATOM     24  C   UNL     1     -34.385  23.791   5.558  0.00  0.00    +0.119 C 
BRANCH  22  25
ATOM     25  O   UNL     1     -33.410  25.291   3.973  0.00  0.00    -0.505 OA
ATOM     26  H   UNL     1     -32.836  25.658   4.617  0.00  0.00    +0.292 HD
ENDBRANCH  22  25
ENDBRANCH   5  20
BRANCH  11  27
ATOM     27  O   UNL     1     -39.463  20.604  -0.322  0.00  0.00    -0.505 OA
ATOM     28  H   UNL     1     -39.113  19.889  -0.817  0.00  0.00    +0.292 HD
ENDBRANCH  11  27
BRANCH  13  29
ATOM     29  O   UNL     1     -42.881  24.346   0.420  0.00  0.00    -0.505 OA
ATOM     30  H   UNL     1     -42.572  23.748  -0.234  0.00  0.00    +0.292 HD
ENDBRANCH  13  29
BRANCH  16  31
ATOM     31  O   UNL     1     -41.944  27.738   3.590  0.00  0.00    -0.505 OA
ATOM     32  H   UNL     1     -41.884  28.563   3.148  0.00  0.00    +0.292 HD
ENDBRANCH  16  31
TORSDOF 5
ENDMDL
MODEL 2
REMARK VINA RESULT:      -7.1      4.018      7.056
REMARK  Name = 54717271
REMARK  5 active torsions:
REMARK  status: ('A' for Active; 'I' for Inactive)
REMARK    1  A    between atoms: C_5  and  C_20
REMARK    2  A    between atoms: C_11  and  O_27
REMARK    3  A    between atoms: C_13  and  O_29
REMARK    4  A    between atoms: C_16  and  O_31
REMARK    5  A    between atoms: C_22  and  O_25
REMARK                            x       y       z     vdW  Elec       q    Type
REMARK                         _______ _______ _______ _____ _____    ______ ____
ROOT
ATOM      1  O   UNL     1     -32.935  26.150   5.095  0.00  0.00    -0.287 OA
ATOM      2  O   UNL     1     -37.440  25.690   2.261  0.00  0.00    -0.286 OA
ATOM      3  C   UNL     1     -34.438  27.185   3.574  0.00  0.00    +0.048 C 
ATOM      4  C   UNL     1     -35.617  27.052   2.838  0.00  0.00    +0.076 C 
ATOM      5  C   UNL     1     -33.699  28.372   3.502  0.00  0.00    +0.034 C 
ATOM      6  C   UNL     1     -34.749  24.832   4.497  0.00  0.00    +0.048 C 
ATOM      7  C   UNL     1     -35.929  24.700   3.761  0.00  0.00    +0.076 C 
ATOM      8  C   UNL     1     -33.961  26.080   4.432  0.00  0.00    +0.196 C 
ATOM      9  C   UNL     1     -34.142  29.420   2.696  0.00  0.00    -0.016 C 
ATOM     10  C   UNL     1     -36.406  25.805   2.904  0.00  0.00    +0.202 C 
ATOM     11  C   UNL     1     -36.057  28.107   2.030  0.00  0.00    +0.136 C 
ATOM     12  C   UNL     1     -35.319  29.288   1.960  0.00  0.00    +0.033 C 
ATOM     13  C   UNL     1     -36.667  23.512   3.832  0.00  0.00    +0.140 C 
ATOM     14  C   UNL     1     -34.308  23.777   5.304  0.00  0.00    +0.040 C 
ATOM     15  C   UNL     1     -33.389  30.709   2.581  0.00  0.00    +0.031 C 
ATOM     16  C   UNL     1     -35.046  22.595   5.371  0.00  0.00    +0.137 C 
ATOM     17  C   UNL     1     -36.223  22.463   4.636  0.00  0.00    +0.073 C 
ENDROOT
BRANCH   5  20
ATOM     18  O   UNL     1     -32.614  29.116   5.555  0.00  0.00    -0.421 OA
ATOM     19  O   UNL     1     -31.667  29.831   7.493  0.00  0.00    -0.244 OA
ATOM     20  C   UNL     1     -32.444  28.603   4.242  0.00  0.00    +0.151 C 
ATOM     21  C   UNL     1     -31.223  28.374   3.740  0.00  0.00    +0.074 C 
ATOM     22  C   UNL     1     -30.073  28.646   4.555  0.00  0.00    +0.143 C 
ATOM     23  C   UNL     1     -31.538  29.388   6.357  0.00  0.00    +0.349 C 
ATOM     24  C   UNL     1     -30.198  29.126   5.796  0.00  0.00    +0.119 C 
BRANCH  22  25
ATOM     25  O   UNL     1     -28.861  28.377   3.963  0.00  0.00    -0.505 OA
ATOM     26  H   UNL     1     -28.188  27.942   4.449  0.00  0.00    +0.292 HD
ENDBRANCH  22  25
ENDBRANCH   5  20
BRANCH  11  27
ATOM     27  O   UNL     1     -37.198  28.047   1.285  0.00  0.00    -0.505 OA
ATOM     28  H   UNL     1     -37.255  28.518   0.477  0.00  0.00    +0.292 HD
ENDBRANCH  11  27
BRANCH  13  29
ATOM     29  O   UNL     1     -37.826  23.314   3.141  0.00  0.00    -0.505 OA
ATOM     30  H   UNL     1     -37.837  22.739   2.400  0.00  0.00    +0.292 HD
ENDBRANCH  13  29
BRANCH  16  31
ATOM     31  O   UNL     1     -34.617  21.569   6.157  0.00  0.00    -0.505 OA
ATOM     32  H   UNL     1     -35.203  21.174   6.772  0.00  0.00    +0.292 HD
ENDBRANCH  16  31
TORSDOF 5
ENDMDL
MODEL 3
REMARK VINA RESULT:      -6.9      2.383      6.146
REMARK  Name = 54717271
REMARK  5 active torsions:
REMARK  status: ('A' for Active; 'I' for Inactive)
REMARK    1  A    between atoms: C_5  and  C_20
REMARK    2  A    between atoms: C_11  and  O_27
REMARK    3  A    between atoms: C_13  and  O_29
REMARK    4  A    between atoms: C_16  and  O_31
REMARK    5  A    between atoms: C_22  and  O_25
REMARK                            x       y       z     vdW  Elec       q    Type
REMARK                         _______ _______ _______ _____ _____    ______ ____
ROOT
ATOM      1  O   UNL     1     -34.720  21.268   2.725  0.00  0.00    -0.287 OA
ATOM      2  O   UNL     1     -38.047  18.808  -0.656  0.00  0.00    -0.286 OA
ATOM      3  C   UNL     1     -36.881  21.232   1.740  0.00  0.00    +0.048 C 
ATOM      4  C   UNL     1     -37.741  20.581   0.853  0.00  0.00    +0.076 C 
ATOM      5  C   UNL     1     -37.319  22.370   2.429  0.00  0.00    +0.034 C 
ATOM      6  C   UNL     1     -35.060  19.530   1.223  0.00  0.00    +0.048 C 
ATOM      7  C   UNL     1     -35.920  18.879   0.337  0.00  0.00    +0.076 C 
ATOM      8  C   UNL     1     -35.509  20.730   1.958  0.00  0.00    +0.196 C 
ATOM      9  C   UNL     1     -38.613  22.851   2.229  0.00  0.00    -0.016 C 
ATOM     10  C   UNL     1     -37.293  19.380   0.120  0.00  0.00    +0.202 C 
ATOM     11  C   UNL     1     -39.039  21.067   0.656  0.00  0.00    +0.136 C 
ATOM     12  C   UNL     1     -39.472  22.201   1.344  0.00  0.00    +0.033 C 
ATOM     13  C   UNL     1     -35.481  17.741  -0.353  0.00  0.00    +0.140 C 
ATOM     14  C   UNL     1     -33.761  19.045   1.420  0.00  0.00    +0.040 C 
ATOM     15  C   UNL     1     -39.130  24.063   2.938  0.00  0.00    +0.031 C 
ATOM     16  C   UNL     1     -33.329  17.912   0.730  0.00  0.00    +0.137 C 
ATOM     17  C   UNL     1     -34.187  17.262  -0.155  0.00  0.00    +0.073 C 
ENDROOT
BRANCH   5  20
ATOM     18  O   UNL     1     -36.342  22.514   4.658  0.00  0.00    -0.421 OA
ATOM     19  O   UNL     1     -35.468  22.589   6.754  0.00  0.00    -0.244 OA
ATOM     20  C   UNL     1     -36.483  23.123   3.382  0.00  0.00    +0.151 C 
ATOM     21  C   UNL     1     -35.902  24.299   3.108  0.00  0.00    +0.074 C 
ATOM     22  C   UNL     1     -35.117  24.942   4.123  0.00  0.00    +0.143 C 
ATOM     23  C   UNL     1     -35.601  23.102   5.648  0.00  0.00    +0.349 C 
ATOM     24  C   UNL     1     -34.961  24.394   5.332  0.00  0.00    +0.119 C 
BRANCH  22  25
ATOM     25  O   UNL     1     -34.554  26.141   3.753  0.00  0.00    -0.505 OA
ATOM     26  H   UNL     1     -34.283  26.279   2.867  0.00  0.00    +0.292 HD
ENDBRANCH  22  25
ENDBRANCH   5  20
BRANCH  11  27
ATOM     27  O   UNL     1     -39.931  20.482  -0.194  0.00  0.00    -0.505 OA
ATOM     28  H   UNL     1     -40.036  20.813  -1.064  0.00  0.00    +0.292 HD
ENDBRANCH  11  27
BRANCH  13  29
ATOM     29  O   UNL     1     -36.267  17.057  -1.232  0.00  0.00    -0.505 OA
ATOM     30  H   UNL     1     -35.926  16.810  -2.071  0.00  0.00    +0.292 HD
ENDBRANCH  13  29
BRANCH  16  31
ATOM     31  O   UNL     1     -32.065  17.440   0.921  0.00  0.00    -0.505 OA
ATOM     32  H   UNL     1     -31.483  17.887   1.504  0.00  0.00    +0.292 HD
ENDBRANCH  16  31
TORSDOF 5
ENDMDL
MODEL 4
REMARK VINA RESULT:      -6.9      4.201      6.399
REMARK  Name = 54717271
REMARK  5 active torsions:
REMARK  status: ('A' for Active; 'I' for Inactive)
REMARK    1  A    between atoms: C_5  and  C_20
REMARK    2  A    between atoms: C_11  and  O_27
REMARK    3  A    between atoms: C_13  and  O_29
REMARK    4  A    between atoms: C_16  and  O_31
REMARK    5  A    between atoms: C_22  and  O_25
REMARK                            x       y       z     vdW  Elec       q    Type
REMARK                         _______ _______ _______ _____ _____    ______ ____
ROOT
ATOM      1  O   UNL     1     -34.759  24.868   0.841  0.00  0.00    -0.287 OA
ATOM      2  O   UNL     1     -35.682  20.118   3.106  0.00  0.00    -0.286 OA
ATOM      3  C   UNL     1     -35.047  23.655   2.863  0.00  0.00    +0.048 C 
ATOM      4  C   UNL     1     -35.289  22.408   3.443  0.00  0.00    +0.076 C 
ATOM      5  C   UNL     1     -34.877  24.783   3.676  0.00  0.00    +0.034 C 
ATOM      6  C   UNL     1     -35.153  22.599   0.549  0.00  0.00    +0.048 C 
ATOM      7  C   UNL     1     -35.395  21.353   1.129  0.00  0.00    +0.076 C 
ATOM      8  C   UNL     1     -34.969  23.797   1.394  0.00  0.00    +0.196 C 
ATOM      9  C   UNL     1     -34.949  24.659   5.063  0.00  0.00    -0.016 C 
ATOM     10  C   UNL     1     -35.472  21.211   2.598  0.00  0.00    +0.202 C 
ATOM     11  C   UNL     1     -35.361  22.289   4.836  0.00  0.00    +0.136 C 
ATOM     12  C   UNL     1     -35.190  23.414   5.643  0.00  0.00    +0.033 C 
ATOM     13  C   UNL     1     -35.566  20.225   0.315  0.00  0.00    +0.140 C 
ATOM     14  C   UNL     1     -35.083  22.719  -0.844  0.00  0.00    +0.040 C 
ATOM     15  C   UNL     1     -34.775  25.831   5.977  0.00  0.00    +0.031 C 
ATOM     16  C   UNL     1     -35.256  21.594  -1.650  0.00  0.00    +0.137 C 
ATOM     17  C   UNL     1     -35.497  20.350  -1.072  0.00  0.00    +0.073 C 
ENDROOT
BRANCH   5  20
ATOM     18  O   UNL     1     -33.244  26.467   3.012  0.00  0.00    -0.421 OA
ATOM     19  O   UNL     1     -31.670  27.995   2.417  0.00  0.00    -0.244 OA
ATOM     20  C   UNL     1     -34.618  26.138   3.154  0.00  0.00    +0.151 C 
ATOM     21  C   UNL     1     -35.578  27.021   2.845  0.00  0.00    +0.074 C 
ATOM     22  C   UNL     1     -35.202  28.315   2.353  0.00  0.00    +0.143 C 
ATOM     23  C   UNL     1     -32.852  27.694   2.547  0.00  0.00    +0.349 C 
ATOM     24  C   UNL     1     -33.918  28.656   2.204  0.00  0.00    +0.119 C 
BRANCH  22  25
ATOM     25  O   UNL     1     -36.250  29.155   2.056  0.00  0.00    -0.505 OA
ATOM     26  H   UNL     1     -37.050  28.804   1.717  0.00  0.00    +0.292 HD
ENDBRANCH  22  25
ENDBRANCH   5  20
BRANCH  11  27
ATOM     27  O   UNL     1     -35.594  21.104   5.469  0.00  0.00    -0.505 OA
ATOM     28  H   UNL     1     -36.093  20.436   5.043  0.00  0.00    +0.292 HD
ENDBRANCH  11  27
BRANCH  13  29
ATOM     29  O   UNL     1     -35.806  18.979   0.814  0.00  0.00    -0.505 OA
ATOM     30  H   UNL     1     -36.659  18.759   1.134  0.00  0.00    +0.292 HD
ENDBRANCH  13  29
BRANCH  16  31
ATOM     31  O   UNL     1     -35.187  21.711  -3.006  0.00  0.00    -0.505 OA
ATOM     32  H   UNL     1     -35.966  21.636  -3.521  0.00  0.00    +0.292 HD
ENDBRANCH  16  31
TORSDOF 5
ENDMDL
MODEL 5
REMARK VINA RESULT:      -6.6      3.264      6.574
REMARK  Name = 54717271
REMARK  5 active torsions:
REMARK  status: ('A' for Active; 'I' for Inactive)
REMARK    1  A    between atoms: C_5  and  C_20
REMARK    2  A    between atoms: C_11  and  O_27
REMARK    3  A    between atoms: C_13  and  O_29
REMARK    4  A    between atoms: C_16  and  O_31
REMARK    5  A    between atoms: C_22  and  O_25
REMARK                            x       y       z     vdW  Elec       q    Type
REMARK                         _______ _______ _______ _____ _____    ______ ____
ROOT
ATOM      1  O   UNL     1     -35.904  24.354   1.126  0.00  0.00    -0.287 OA
ATOM      2  O   UNL     1     -33.688  28.125   4.195  0.00  0.00    -0.286 OA
ATOM      3  C   UNL     1     -35.134  24.952   3.292  0.00  0.00    +0.048 C 
ATOM      4  C   UNL     1     -34.554  25.945   4.083  0.00  0.00    +0.076 C 
ATOM      5  C   UNL     1     -35.470  23.715   3.857  0.00  0.00    +0.034 C 
ATOM      6  C   UNL     1     -35.037  26.502   1.275  0.00  0.00    +0.048 C 
ATOM      7  C   UNL     1     -34.457  27.496   2.066  0.00  0.00    +0.076 C 
ATOM      8  C   UNL     1     -35.398  25.194   1.858  0.00  0.00    +0.196 C 
ATOM      9  C   UNL     1     -35.225  23.478   5.209  0.00  0.00    -0.016 C 
ATOM     10  C   UNL     1     -34.194  27.254   3.500  0.00  0.00    +0.202 C 
ATOM     11  C   UNL     1     -34.310  25.702   5.440  0.00  0.00    +0.136 C 
ATOM     12  C   UNL     1     -34.645  24.469   6.000  0.00  0.00    +0.033 C 
ATOM     13  C   UNL     1     -34.120  28.732   1.501  0.00  0.00    +0.140 C 
ATOM     14  C   UNL     1     -35.280  26.745  -0.082  0.00  0.00    +0.040 C 
ATOM     15  C   UNL     1     -35.562  22.174   5.863  0.00  0.00    +0.031 C 
ATOM     16  C   UNL     1     -34.942  27.977  -0.642  0.00  0.00    +0.137 C 
ATOM     17  C   UNL     1     -34.363  28.968   0.148  0.00  0.00    +0.073 C 
ENDROOT
BRANCH   5  20
ATOM     18  O   UNL     1     -37.489  22.717   2.925  0.00  0.00    -0.421 OA
ATOM     19  O   UNL     1     -39.411  21.838   2.088  0.00  0.00    -0.244 OA
ATOM     20  C   UNL     1     -36.084  22.608   3.101  0.00  0.00    +0.151 C 
ATOM     21  C   UNL     1     -35.405  21.558   2.619  0.00  0.00    +0.074 C 
ATOM     22  C   UNL     1     -36.117  20.536   1.905  0.00  0.00    +0.143 C 
ATOM     23  C   UNL     1     -38.197  21.759   2.250  0.00  0.00    +0.349 C 
ATOM     24  C   UNL     1     -37.438  20.611   1.718  0.00  0.00    +0.119 C 
BRANCH  22  25
ATOM     25  O   UNL     1     -35.340  19.500   1.441  0.00  0.00    -0.505 OA
ATOM     26  H   UNL     1     -35.744  18.747   1.057  0.00  0.00    +0.292 HD
ENDBRANCH  22  25
ENDBRANCH   5  20
BRANCH  11  27
ATOM     27  O   UNL     1     -33.747  26.625   6.271  0.00  0.00    -0.505 OA
ATOM     28  H   UNL     1     -33.047  27.167   5.963  0.00  0.00    +0.292 HD
ENDBRANCH  11  27
BRANCH  13  29
ATOM     29  O   UNL     1     -33.551  29.745   2.214  0.00  0.00    -0.505 OA
ATOM     30  H   UNL     1     -34.086  30.438   2.551  0.00  0.00    +0.292 HD
ENDBRANCH  13  29
BRANCH  16  31
ATOM     31  O   UNL     1     -35.178  28.213  -1.962  0.00  0.00    -0.505 OA
ATOM     32  H   UNL     1     -34.908  29.023  -2.349  0.00  0.00    +0.292 HD
ENDBRANCH  16  31
TORSDOF 5
ENDMDL
MODEL 6
REMARK VINA RESULT:      -6.6      5.231      8.342
REMARK  Name = 54717271
REMARK  5 active torsions:
REMARK  status: ('A' for Active; 'I' for Inactive)
REMARK    1  A    between atoms: C_5  and  C_20
REMARK    2  A    between atoms: C_11  and  O_27
REMARK    3  A    between atoms: C_13  and  O_29
REMARK    4  A    between atoms: C_16  and  O_31
REMARK    5  A    between atoms: C_22  and  O_25
REMARK                            x       y       z     vdW  Elec       q    Type
REMARK                         _______ _______ _______ _____ _____    ______ ____
ROOT
ATOM      1  O   UNL     1     -32.166  26.925   5.573  0.00  0.00    -0.287 OA
ATOM      2  O   UNL     1     -35.752  28.755   2.060  0.00  0.00    -0.286 OA
ATOM      3  C   UNL     1     -32.703  28.596   3.972  0.00  0.00    +0.048 C 
ATOM      4  C   UNL     1     -33.648  29.064   3.057  0.00  0.00    +0.076 C 
ATOM      5  C   UNL     1     -31.499  29.288   4.148  0.00  0.00    +0.034 C 
ATOM      6  C   UNL     1     -34.238  26.652   4.563  0.00  0.00    +0.048 C 
ATOM      7  C   UNL     1     -35.183  27.120   3.647  0.00  0.00    +0.076 C 
ATOM      8  C   UNL     1     -32.964  27.373   4.760  0.00  0.00    +0.196 C 
ATOM      9  C   UNL     1     -31.244  30.443   3.409  0.00  0.00    -0.016 C 
ATOM     10  C   UNL     1     -34.923  28.344   2.861  0.00  0.00    +0.202 C 
ATOM     11  C   UNL     1     -33.388  30.224   2.317  0.00  0.00    +0.136 C 
ATOM     12  C   UNL     1     -32.187  30.910   2.495  0.00  0.00    +0.033 C 
ATOM     13  C   UNL     1     -36.387  26.428   3.471  0.00  0.00    +0.140 C 
ATOM     14  C   UNL     1     -34.497  25.492   5.301  0.00  0.00    +0.040 C 
ATOM     15  C   UNL     1     -29.972  31.219   3.557  0.00  0.00    +0.031 C 
ATOM     16  C   UNL     1     -35.698  24.805   5.121  0.00  0.00    +0.137 C 
ATOM     17  C   UNL     1     -36.641  25.272   4.208  0.00  0.00    +0.073 C 
ENDROOT
BRANCH   5  20
ATOM     18  O   UNL     1     -29.565  27.870   4.591  0.00  0.00    -0.421 OA
ATOM     19  O   UNL     1     -27.774  26.515   4.941  0.00  0.00    -0.244 OA
ATOM     20  C   UNL     1     -30.443  28.869   5.089  0.00  0.00    +0.151 C 
ATOM     21  C   UNL     1     -30.305  29.357   6.330  0.00  0.00    +0.074 C 
ATOM     22  C   UNL     1     -29.241  28.863   7.158  0.00  0.00    +0.143 C 
ATOM     23  C   UNL     1     -28.542  27.377   5.356  0.00  0.00    +0.349 C 
ATOM     24  C   UNL     1     -28.395  27.927   6.718  0.00  0.00    +0.119 C 
BRANCH  22  25
ATOM     25  O   UNL     1     -29.170  29.424   8.412  0.00  0.00    -0.505 OA
ATOM     26  H   UNL     1     -29.525  28.968   9.150  0.00  0.00    +0.292 HD
ENDBRANCH  22  25
ENDBRANCH   5  20
BRANCH  11  27
ATOM     27  O   UNL     1     -34.264  30.737   1.408  0.00  0.00    -0.505 OA
ATOM     28  H   UNL     1     -35.096  31.064   1.691  0.00  0.00    +0.292 HD
ENDBRANCH  11  27
BRANCH  13  29
ATOM     29  O   UNL     1     -37.353  26.828   2.595  0.00  0.00    -0.505 OA
ATOM     30  H   UNL     1     -37.785  27.651   2.718  0.00  0.00    +0.292 HD
ENDBRANCH  13  29
BRANCH  16  31
ATOM     31  O   UNL     1     -35.950  23.675   5.840  0.00  0.00    -0.505 OA
ATOM     32  H   UNL     1     -36.405  22.959   5.442  0.00  0.00    +0.292 HD
ENDBRANCH  16  31
TORSDOF 5
ENDMDL
MODEL 7
REMARK VINA RESULT:      -6.5      3.583      6.667
REMARK  Name = 54717271
REMARK  5 active torsions:
REMARK  status: ('A' for Active; 'I' for Inactive)
REMARK    1  A    between atoms: C_5  and  C_20
REMARK    2  A    between atoms: C_11  and  O_27
REMARK    3  A    between atoms: C_13  and  O_29
REMARK    4  A    between atoms: C_16  and  O_31
REMARK    5  A    between atoms: C_22  and  O_25
REMARK                            x       y       z     vdW  Elec       q    Type
REMARK                         _______ _______ _______ _____ _____    ______ ____
ROOT
ATOM      1  O   UNL     1     -35.559  24.077   0.952  0.00  0.00    -0.287 OA
ATOM      2  O   UNL     1     -33.715  28.086   3.965  0.00  0.00    -0.286 OA
ATOM      3  C   UNL     1     -34.976  24.816   3.133  0.00  0.00    +0.048 C 
ATOM      4  C   UNL     1     -34.493  25.871   3.909  0.00  0.00    +0.076 C 
ATOM      5  C   UNL     1     -35.309  23.598   3.739  0.00  0.00    +0.034 C 
ATOM      6  C   UNL     1     -34.782  26.263   1.047  0.00  0.00    +0.048 C 
ATOM      7  C   UNL     1     -34.299  27.318   1.823  0.00  0.00    +0.076 C 
ATOM      8  C   UNL     1     -35.139  24.973   1.673  0.00  0.00    +0.196 C 
ATOM      9  C   UNL     1     -35.158  23.441   5.116  0.00  0.00    -0.016 C 
ATOM     10  C   UNL     1     -34.137  27.161   3.284  0.00  0.00    +0.202 C 
ATOM     11  C   UNL     1     -34.342  25.709   5.292  0.00  0.00    +0.136 C 
ATOM     12  C   UNL     1     -34.675  24.494   5.892  0.00  0.00    +0.033 C 
ATOM     13  C   UNL     1     -33.965  28.535   1.217  0.00  0.00    +0.140 C 
ATOM     14  C   UNL     1     -34.931  26.425  -0.336  0.00  0.00    +0.040 C 
ATOM     15  C   UNL     1     -35.497  22.160   5.813  0.00  0.00    +0.031 C 
ATOM     16  C   UNL     1     -34.596  27.639  -0.935  0.00  0.00    +0.137 C 
ATOM     17  C   UNL     1     -34.113  28.692  -0.160  0.00  0.00    +0.073 C 
ENDROOT
BRANCH   5  20
ATOM     18  O   UNL     1     -34.834  21.492   2.606  0.00  0.00    -0.421 OA
ATOM     19  O   UNL     1     -34.321  19.542   1.558  0.00  0.00    -0.244 OA
ATOM     20  C   UNL     1     -35.825  22.430   3.001  0.00  0.00    +0.151 C 
ATOM     21  C   UNL     1     -37.116  22.245   2.694  0.00  0.00    +0.074 C 
ATOM     22  C   UNL     1     -37.496  21.070   1.962  0.00  0.00    +0.143 C 
ATOM     23  C   UNL     1     -35.164  20.363   1.906  0.00  0.00    +0.349 C 
ATOM     24  C   UNL     1     -36.590  20.165   1.579  0.00  0.00    +0.119 C 
BRANCH  22  25
ATOM     25  O   UNL     1     -38.841  20.958   1.696  0.00  0.00    -0.505 OA
ATOM     26  H   UNL     1     -39.207  21.380   0.944  0.00  0.00    +0.292 HD
ENDBRANCH  22  25
ENDBRANCH   5  20
BRANCH  11  27
ATOM     27  O   UNL     1     -33.877  26.695   6.110  0.00  0.00    -0.505 OA
ATOM     28  H   UNL     1     -32.968  26.921   6.100  0.00  0.00    +0.292 HD
ENDBRANCH  11  27
BRANCH  13  29
ATOM     29  O   UNL     1     -33.488  29.606   1.914  0.00  0.00    -0.505 OA
ATOM     30  H   UNL     1     -32.577  29.653   2.134  0.00  0.00    +0.292 HD
ENDBRANCH  13  29
BRANCH  16  31
ATOM     31  O   UNL     1     -34.740  27.796  -2.280  0.00  0.00    -0.505 OA
ATOM     32  H   UNL     1     -35.390  28.383  -2.616  0.00  0.00    +0.292 HD
ENDBRANCH  16  31
TORSDOF 5
ENDMDL
MODEL 8
REMARK VINA RESULT:      -6.5      4.399      7.200
REMARK  Name = 54717271
REMARK  5 active torsions:
REMARK  status: ('A' for Active; 'I' for Inactive)
REMARK    1  A    between atoms: C_5  and  C_20
REMARK    2  A    between atoms: C_11  and  O_27
REMARK    3  A    between atoms: C_13  and  O_29
REMARK    4  A    between atoms: C_16  and  O_31
REMARK    5  A    between atoms: C_22  and  O_25
REMARK                            x       y       z     vdW  Elec       q    Type
REMARK                         _______ _______ _______ _____ _____    ______ ____
ROOT
ATOM      1  O   UNL     1     -33.100  26.273   5.149  0.00  0.00    -0.287 OA
ATOM      2  O   UNL     1     -34.592  24.161   0.474  0.00  0.00    -0.286 OA
ATOM      3  C   UNL     1     -32.973  26.404   2.781  0.00  0.00    +0.048 C 
ATOM      4  C   UNL     1     -33.369  25.843   1.565  0.00  0.00    +0.076 C 
ATOM      5  C   UNL     1     -32.144  27.533   2.792  0.00  0.00    +0.034 C 
ATOM      6  C   UNL     1     -34.294  24.625   4.034  0.00  0.00    +0.048 C 
ATOM      7  C   UNL     1     -34.690  24.063   2.818  0.00  0.00    +0.076 C 
ATOM      8  C   UNL     1     -33.421  25.816   4.060  0.00  0.00    +0.196 C 
ATOM      9  C   UNL     1     -31.716  28.094   1.589  0.00  0.00    -0.016 C 
ATOM     10  C   UNL     1     -34.243  24.652   1.539  0.00  0.00    +0.202 C 
ATOM     11  C   UNL     1     -32.937  26.410   0.361  0.00  0.00    +0.136 C 
ATOM     12  C   UNL     1     -32.111  27.534   0.376  0.00  0.00    +0.033 C 
ATOM     13  C   UNL     1     -35.518  22.934   2.807  0.00  0.00    +0.140 C 
ATOM     14  C   UNL     1     -34.725  24.056   5.238  0.00  0.00    +0.040 C 
ATOM     15  C   UNL     1     -30.828  29.299   1.545  0.00  0.00    +0.031 C 
ATOM     16  C   UNL     1     -35.549  22.931   5.223  0.00  0.00    +0.137 C 
ATOM     17  C   UNL     1     -35.944  22.371   4.010  0.00  0.00    +0.073 C 
ENDROOT
BRANCH   5  20
ATOM     18  O   UNL     1     -30.503  27.625   4.593  0.00  0.00    -0.421 OA
ATOM     19  O   UNL     1     -28.945  27.650   6.247  0.00  0.00    -0.244 OA
ATOM     20  C   UNL     1     -31.674  28.193   4.024  0.00  0.00    +0.151 C 
ATOM     21  C   UNL     1     -32.289  29.235   4.601  0.00  0.00    +0.074 C 
ATOM     22  C   UNL     1     -31.741  29.787   5.807  0.00  0.00    +0.143 C 
ATOM     23  C   UNL     1     -29.956  28.127   5.743  0.00  0.00    +0.349 C 
ATOM     24  C   UNL     1     -30.638  29.280   6.365  0.00  0.00    +0.119 C 
BRANCH  22  25
ATOM     25  O   UNL     1     -32.432  30.858   6.325  0.00  0.00    -0.505 OA
ATOM     26  H   UNL     1     -31.980  31.510   6.824  0.00  0.00    +0.292 HD
ENDBRANCH  22  25
ENDBRANCH   5  20
BRANCH  11  27
ATOM     27  O   UNL     1     -33.284  25.915  -0.861  0.00  0.00    -0.505 OA
ATOM     28  H   UNL     1     -33.861  26.402  -1.417  0.00  0.00    +0.292 HD
ENDBRANCH  11  27
BRANCH  13  29
ATOM     29  O   UNL     1     -35.943  22.335   1.658  0.00  0.00    -0.505 OA
ATOM     30  H   UNL     1     -35.327  22.129   0.982  0.00  0.00    +0.292 HD
ENDBRANCH  13  29
BRANCH  16  31
ATOM     31  O   UNL     1     -35.968  22.378   6.395  0.00  0.00    -0.505 OA
ATOM     32  H   UNL     1     -36.315  22.926   7.072  0.00  0.00    +0.292 HD
ENDBRANCH  16  31
TORSDOF 5
ENDMDL
MODEL 9
REMARK VINA RESULT:      -6.4      2.098      6.128
REMARK  Name = 54717271
REMARK  5 active torsions:
REMARK  status: ('A' for Active; 'I' for Inactive)
REMARK    1  A    between atoms: C_5  and  C_20
REMARK    2  A    between atoms: C_11  and  O_27
REMARK    3  A    between atoms: C_13  and  O_29
REMARK    4  A    between atoms: C_16  and  O_31
REMARK    5  A    between atoms: C_22  and  O_25
REMARK                            x       y       z     vdW  Elec       q    Type
REMARK                         _______ _______ _______ _____ _____    ______ ____
ROOT
ATOM      1  O   UNL     1     -38.923  24.598   1.720  0.00  0.00    -0.287 OA
ATOM      2  O   UNL     1     -35.639  20.671   3.247  0.00  0.00    -0.286 OA
ATOM      3  C   UNL     1     -38.159  22.384   1.327  0.00  0.00    +0.048 C 
ATOM      4  C   UNL     1     -37.296  21.365   1.736  0.00  0.00    +0.076 C 
ATOM      5  C   UNL     1     -39.009  22.182   0.233  0.00  0.00    +0.034 C 
ATOM      6  C   UNL     1     -37.281  23.877   3.193  0.00  0.00    +0.048 C 
ATOM      7  C   UNL     1     -36.417  22.858   3.602  0.00  0.00    +0.076 C 
ATOM      8  C   UNL     1     -38.184  23.677   2.042  0.00  0.00    +0.196 C 
ATOM      9  C   UNL     1     -38.993  20.965  -0.447  0.00  0.00    -0.016 C 
ATOM     10  C   UNL     1     -36.394  21.564   2.888  0.00  0.00    +0.202 C 
ATOM     11  C   UNL     1     -37.283  20.145   1.050  0.00  0.00    +0.136 C 
ATOM     12  C   UNL     1     -38.131  19.948  -0.040  0.00  0.00    +0.033 C 
ATOM     13  C   UNL     1     -35.567  23.060   4.696  0.00  0.00    +0.140 C 
ATOM     14  C   UNL     1     -37.293  25.097   3.878  0.00  0.00    +0.040 C 
ATOM     15  C   UNL     1     -39.879  20.698  -1.624  0.00  0.00    +0.031 C 
ATOM     16  C   UNL     1     -36.443  25.295   4.967  0.00  0.00    +0.137 C 
ATOM     17  C   UNL     1     -35.581  24.278   5.374  0.00  0.00    +0.073 C 
ENDROOT
BRANCH   5  20
ATOM     18  O   UNL     1     -41.228  23.186   0.354  0.00  0.00    -0.421 OA
ATOM     19  O   UNL     1     -43.315  24.070   0.514  0.00  0.00    -0.244 OA
ATOM     20  C   UNL     1     -39.952  23.198  -0.270  0.00  0.00    +0.151 C 
ATOM     21  C   UNL     1     -39.669  24.068  -1.250  0.00  0.00    +0.074 C 
ATOM     22  C   UNL     1     -40.675  25.006  -1.661  0.00  0.00    +0.143 C 
ATOM     23  C   UNL     1     -42.209  24.066  -0.016  0.00  0.00    +0.349 C 
ATOM     24  C   UNL     1     -41.883  25.024  -1.090  0.00  0.00    +0.119 C 
BRANCH  22  25
ATOM     25  O   UNL     1     -40.296  25.865  -2.667  0.00  0.00    -0.505 OA
ATOM     26  H   UNL     1     -40.909  26.486  -3.009  0.00  0.00    +0.292 HD
ENDBRANCH  22  25
ENDBRANCH   5  20
BRANCH  11  27
ATOM     27  O   UNL     1     -36.467  19.108   1.394  0.00  0.00    -0.505 OA
ATOM     28  H   UNL     1     -35.836  18.786   0.781  0.00  0.00    +0.292 HD
ENDBRANCH  11  27
BRANCH  13  29
ATOM     29  O   UNL     1     -34.699  22.110   5.148  0.00  0.00    -0.505 OA
ATOM     30  H   UNL     1     -34.481  22.071   6.059  0.00  0.00    +0.292 HD
ENDBRANCH  13  29
BRANCH  16  31
ATOM     31  O   UNL     1     -36.455  26.483   5.633  0.00  0.00    -0.505 OA
ATOM     32  H   UNL     1     -37.023  27.172   5.349  0.00  0.00    +0.292 HD
ENDBRANCH  16  31
TORSDOF 5
ENDMDL
