MODEL 1
REMARK VINA RESULT:      -5.1      0.000      0.000
REMARK  Name = 60825
REMARK  3 active torsions:
REMARK  status: ('A' for Active; 'I' for Inactive)
REMARK    1  A    between atoms: N_2  and  C_13
REMARK    2  A    between atoms: C_15  and  C_16
REMARK    3  A    between atoms: C_16  and  O_17
REMARK                            x       y       z     vdW  Elec       q    Type
REMARK                         _______ _______ _______ _____ _____    ______ ____
ROOT
ATOM      1  O   UNL     1     -39.569  24.653   3.304  0.00  0.00    -0.193 OA
ATOM      2  N   UNL     1     -37.935  23.115   2.773  0.00  0.00    -0.179 N 
ATOM      3  N   UNL     1     -40.133  23.020   1.831  0.00  0.00    -0.306 NA
ATOM      4  N   UNL     1     -40.704  21.344   0.324  0.00  0.00    -0.332 N 
ATOM      5  C   UNL     1     -37.576  21.995   2.061  0.00  0.00    +0.083 C 
ATOM      6  C   UNL     1     -39.231  23.651   2.671  0.00  0.00    +0.275 C 
ATOM      7  C   UNL     1     -38.428  21.373   1.248  0.00  0.00    +0.065 C 
ATOM      8  C   UNL     1     -39.792  21.955   1.152  0.00  0.00    +0.193 C 
ATOM      9  H   UNL     1     -41.615  21.707   0.240  0.00  0.00    +0.145 HD
ATOM     10  H   UNL     1     -40.445  20.542  -0.186  0.00  0.00    +0.145 HD
ENDROOT
BRANCH   2  13
ATOM     11  S   UNL     1     -34.460  24.209   4.209  0.00  0.00    -0.105 S 
ATOM     12  O   UNL     1     -36.664  22.820   4.705  0.00  0.00    -0.325 OA
ATOM     13  C   UNL     1     -36.947  23.715   3.624  0.00  0.00    +0.218 C 
ATOM     14  C   UNL     1     -35.647  23.972   2.876  0.00  0.00    +0.112 C 
ATOM     15  C   UNL     1     -35.500  23.306   5.388  0.00  0.00    +0.194 C 
BRANCH  15  16
ATOM     16  C   UNL     1     -34.757  22.126   5.988  0.00  0.00    +0.178 C 
BRANCH  16  17
ATOM     17  O   UNL     1     -35.446  20.932   5.656  0.00  0.00    -0.379 OA
ATOM     18  H   UNL     1     -34.811  20.268   5.347  0.00  0.00    +0.211 HD
ENDBRANCH  16  17
ENDBRANCH  15  16
ENDBRANCH   2  13
TORSDOF 3
ENDMDL
MODEL 2
REMARK VINA RESULT:      -5.1      4.913      7.044
REMARK  Name = 60825
REMARK  3 active torsions:
REMARK  status: ('A' for Active; 'I' for Inactive)
REMARK    1  A    between atoms: N_2  and  C_13
REMARK    2  A    between atoms: C_15  and  C_16
REMARK    3  A    between atoms: C_16  and  O_17
REMARK                            x       y       z     vdW  Elec       q    Type
REMARK                         _______ _______ _______ _____ _____    ______ ____
ROOT
ATOM      1  O   UNL     1     -33.160  27.832   3.025  0.00  0.00    -0.193 OA
ATOM      2  N   UNL     1     -33.732  26.545   4.850  0.00  0.00    -0.179 N 
ATOM      3  N   UNL     1     -32.270  28.432   5.026  0.00  0.00    -0.306 NA
ATOM      4  N   UNL     1     -31.363  29.040   7.079  0.00  0.00    -0.332 N 
ATOM      5  C   UNL     1     -33.606  26.316   6.201  0.00  0.00    +0.083 C 
ATOM      6  C   UNL     1     -33.060  27.615   4.234  0.00  0.00    +0.275 C 
ATOM      7  C   UNL     1     -32.852  27.090   6.979  0.00  0.00    +0.065 C 
ATOM      8  C   UNL     1     -32.151  28.216   6.310  0.00  0.00    +0.193 C 
ATOM      9  H   UNL     1     -30.886  29.795   6.662  0.00  0.00    +0.145 HD
ATOM     10  H   UNL     1     -31.274  28.875   8.045  0.00  0.00    +0.145 HD
ENDROOT
BRANCH   2  13
ATOM     11  S   UNL     1     -36.822  24.404   3.758  0.00  0.00    -0.105 S 
ATOM     12  O   UNL     1     -34.271  24.308   4.477  0.00  0.00    -0.325 OA
ATOM     13  C   UNL     1     -34.567  25.656   4.094  0.00  0.00    +0.218 C 
ATOM     14  C   UNL     1     -36.042  25.908   4.366  0.00  0.00    +0.112 C 
ATOM     15  C   UNL     1     -35.283  23.458   3.918  0.00  0.00    +0.194 C 
BRANCH  15  16
ATOM     16  C   UNL     1     -35.467  22.256   4.825  0.00  0.00    +0.178 C 
BRANCH  16  17
ATOM     17  O   UNL     1     -35.964  22.696   6.078  0.00  0.00    -0.379 OA
ATOM     18  H   UNL     1     -35.397  23.404   6.420  0.00  0.00    +0.211 HD
ENDBRANCH  16  17
ENDBRANCH  15  16
ENDBRANCH   2  13
TORSDOF 3
ENDMDL
MODEL 3
REMARK VINA RESULT:      -5.0      3.666      5.758
REMARK  Name = 60825
REMARK  3 active torsions:
REMARK  status: ('A' for Active; 'I' for Inactive)
REMARK    1  A    between atoms: N_2  and  C_13
REMARK    2  A    between atoms: C_15  and  C_16
REMARK    3  A    between atoms: C_16  and  O_17
REMARK                            x       y       z     vdW  Elec       q    Type
REMARK                         _______ _______ _______ _____ _____    ______ ____
ROOT
ATOM      1  O   UNL     1     -33.448  25.419   2.123  0.00  0.00    -0.193 OA
ATOM      2  N   UNL     1     -35.062  24.807   3.652  0.00  0.00    -0.179 N 
ATOM      3  N   UNL     1     -33.262  26.282   4.215  0.00  0.00    -0.306 NA
ATOM      4  N   UNL     1     -33.080  27.162   6.360  0.00  0.00    -0.332 N 
ATOM      5  C   UNL     1     -35.550  24.906   4.934  0.00  0.00    +0.083 C 
ATOM      6  C   UNL     1     -33.899  25.498   3.267  0.00  0.00    +0.275 C 
ATOM      7  C   UNL     1     -34.953  25.654   5.860  0.00  0.00    +0.065 C 
ATOM      8  C   UNL     1     -33.727  26.378   5.434  0.00  0.00    +0.193 C 
ATOM      9  H   UNL     1     -32.265  27.653   6.106  0.00  0.00    +0.145 HD
ATOM     10  H   UNL     1     -33.431  27.232   7.277  0.00  0.00    +0.145 HD
ENDROOT
BRANCH   2  13
ATOM     11  S   UNL     1     -37.665  22.265   2.206  0.00  0.00    -0.105 S 
ATOM     12  O   UNL     1     -35.083  22.728   2.598  0.00  0.00    -0.325 OA
ATOM     13  C   UNL     1     -35.775  23.976   2.725  0.00  0.00    +0.218 C 
ATOM     14  C   UNL     1     -37.187  23.682   3.208  0.00  0.00    +0.112 C 
ATOM     15  C   UNL     1     -35.936  21.821   1.886  0.00  0.00    +0.194 C 
BRANCH  15  16
ATOM     16  C   UNL     1     -35.636  20.406   2.345  0.00  0.00    +0.178 C 
BRANCH  16  17
ATOM     17  O   UNL     1     -36.860  19.718   2.544  0.00  0.00    -0.379 OA
ATOM     18  H   UNL     1     -36.809  19.193   3.358  0.00  0.00    +0.211 HD
ENDBRANCH  16  17
ENDBRANCH  15  16
ENDBRANCH   2  13
TORSDOF 3
ENDMDL
MODEL 4
REMARK VINA RESULT:      -5.0      2.977      5.464
REMARK  Name = 60825
REMARK  3 active torsions:
REMARK  status: ('A' for Active; 'I' for Inactive)
REMARK    1  A    between atoms: N_2  and  C_13
REMARK    2  A    between atoms: C_15  and  C_16
REMARK    3  A    between atoms: C_16  and  O_17
REMARK                            x       y       z     vdW  Elec       q    Type
REMARK                         _______ _______ _______ _____ _____    ______ ____
ROOT
ATOM      1  O   UNL     1     -35.963  22.616   5.978  0.00  0.00    -0.193 OA
ATOM      2  N   UNL     1     -35.450  23.448   3.890  0.00  0.00    -0.179 N 
ATOM      3  N   UNL     1     -34.918  24.631   5.902  0.00  0.00    -0.306 NA
ATOM      4  N   UNL     1     -33.848  26.694   5.815  0.00  0.00    -0.332 N 
ATOM      5  C   UNL     1     -34.897  24.462   3.142  0.00  0.00    +0.083 C 
ATOM      6  C   UNL     1     -35.471  23.515   5.294  0.00  0.00    +0.275 C 
ATOM      7  C   UNL     1     -34.362  25.542   3.707  0.00  0.00    +0.065 C 
ATOM      8  C   UNL     1     -34.392  25.595   5.192  0.00  0.00    +0.193 C 
ATOM      9  H   UNL     1     -33.854  26.755   6.798  0.00  0.00    +0.145 HD
ATOM     10  H   UNL     1     -33.453  27.418   5.279  0.00  0.00    +0.145 HD
ENDROOT
BRANCH   2  13
ATOM     11  S   UNL     1     -36.722  21.164   0.975  0.00  0.00    -0.105 S 
ATOM     12  O   UNL     1     -37.431  22.439   3.191  0.00  0.00    -0.325 OA
ATOM     13  C   UNL     1     -36.004  22.324   3.191  0.00  0.00    +0.218 C 
ATOM     14  C   UNL     1     -35.537  22.280   1.743  0.00  0.00    +0.112 C 
ATOM     15  C   UNL     1     -37.952  21.466   2.273  0.00  0.00    +0.194 C 
BRANCH  15  16
ATOM     16  C   UNL     1     -39.251  21.992   1.690  0.00  0.00    +0.178 C 
BRANCH  16  17
ATOM     17  O   UNL     1     -40.293  21.079   1.991  0.00  0.00    -0.379 OA
ATOM     18  H   UNL     1     -40.934  21.503   2.582  0.00  0.00    +0.211 HD
ENDBRANCH  16  17
ENDBRANCH  15  16
ENDBRANCH   2  13
TORSDOF 3
ENDMDL
MODEL 5
REMARK VINA RESULT:      -4.8      3.327      5.310
REMARK  Name = 60825
REMARK  3 active torsions:
REMARK  status: ('A' for Active; 'I' for Inactive)
REMARK    1  A    between atoms: N_2  and  C_13
REMARK    2  A    between atoms: C_15  and  C_16
REMARK    3  A    between atoms: C_16  and  O_17
REMARK                            x       y       z     vdW  Elec       q    Type
REMARK                         _______ _______ _______ _____ _____    ______ ____
ROOT
ATOM      1  O   UNL     1     -36.033  26.597   2.371  0.00  0.00    -0.193 OA
ATOM      2  N   UNL     1     -35.650  24.586   3.432  0.00  0.00    -0.179 N 
ATOM      3  N   UNL     1     -34.838  26.663   4.301  0.00  0.00    -0.306 NA
ATOM      4  N   UNL     1     -33.616  26.722   6.278  0.00  0.00    -0.332 N 
ATOM      5  C   UNL     1     -35.086  23.916   4.493  0.00  0.00    +0.083 C 
ATOM      6  C   UNL     1     -35.535  25.982   3.316  0.00  0.00    +0.275 C 
ATOM      7  C   UNL     1     -34.413  24.552   5.449  0.00  0.00    +0.065 C 
ATOM      8  C   UNL     1     -34.303  26.027   5.311  0.00  0.00    +0.193 C 
ATOM      9  H   UNL     1     -33.527  27.701   6.212  0.00  0.00    +0.145 HD
ATOM     10  H   UNL     1     -33.213  26.242   7.037  0.00  0.00    +0.145 HD
ENDROOT
BRANCH   2  13
ATOM     11  S   UNL     1     -38.153  22.037   1.828  0.00  0.00    -0.105 S 
ATOM     12  O   UNL     1     -35.590  22.642   2.146  0.00  0.00    -0.325 OA
ATOM     13  C   UNL     1     -36.357  23.814   2.450  0.00  0.00    +0.218 C 
ATOM     14  C   UNL     1     -37.716  23.364   2.963  0.00  0.00    +0.112 C 
ATOM     15  C   UNL     1     -36.419  21.761   1.375  0.00  0.00    +0.194 C 
BRANCH  15  16
ATOM     16  C   UNL     1     -35.998  20.329   1.652  0.00  0.00    +0.178 C 
BRANCH  16  17
ATOM     17  O   UNL     1     -36.776  19.820   2.724  0.00  0.00    -0.379 OA
ATOM     18  H   UNL     1     -37.391  19.150   2.388  0.00  0.00    +0.211 HD
ENDBRANCH  16  17
ENDBRANCH  15  16
ENDBRANCH   2  13
TORSDOF 3
ENDMDL
MODEL 6
REMARK VINA RESULT:      -4.8      3.861      5.417
REMARK  Name = 60825
REMARK  3 active torsions:
REMARK  status: ('A' for Active; 'I' for Inactive)
REMARK    1  A    between atoms: N_2  and  C_13
REMARK    2  A    between atoms: C_15  and  C_16
REMARK    3  A    between atoms: C_16  and  O_17
REMARK                            x       y       z     vdW  Elec       q    Type
REMARK                         _______ _______ _______ _____ _____    ______ ____
ROOT
ATOM      1  O   UNL     1     -37.512  24.966   2.985  0.00  0.00    -0.193 OA
ATOM      2  N   UNL     1     -35.429  25.389   3.878  0.00  0.00    -0.179 N 
ATOM      3  N   UNL     1     -36.736  23.492   4.528  0.00  0.00    -0.306 NA
ATOM      4  N   UNL     1     -35.934  21.988   6.110  0.00  0.00    -0.332 N 
ATOM      5  C   UNL     1     -34.432  25.005   4.744  0.00  0.00    +0.083 C 
ATOM      6  C   UNL     1     -36.609  24.634   3.755  0.00  0.00    +0.275 C 
ATOM      7  C   UNL     1     -34.535  23.911   5.496  0.00  0.00    +0.065 C 
ATOM      8  C   UNL     1     -35.788  23.125   5.351  0.00  0.00    +0.193 C 
ATOM      9  H   UNL     1     -36.754  21.447   6.034  0.00  0.00    +0.145 HD
ATOM     10  H   UNL     1     -35.220  21.714   6.729  0.00  0.00    +0.145 HD
ENDROOT
BRANCH   2  13
ATOM     11  S   UNL     1     -33.853  27.960   1.381  0.00  0.00    -0.105 S 
ATOM     12  O   UNL     1     -34.518  27.534   3.913  0.00  0.00    -0.325 OA
ATOM     13  C   UNL     1     -35.226  26.584   3.109  0.00  0.00    +0.218 C 
ATOM     14  C   UNL     1     -34.398  26.313   1.863  0.00  0.00    +0.112 C 
ATOM     15  C   UNL     1     -34.093  28.605   3.058  0.00  0.00    +0.194 C 
BRANCH  15  16
ATOM     16  C   UNL     1     -32.809  29.193   3.612  0.00  0.00    +0.178 C 
BRANCH  16  17
ATOM     17  O   UNL     1     -32.807  29.047   5.023  0.00  0.00    -0.379 OA
ATOM     18  H   UNL     1     -32.106  29.597   5.405  0.00  0.00    +0.211 HD
ENDBRANCH  16  17
ENDBRANCH  15  16
ENDBRANCH   2  13
TORSDOF 3
ENDMDL
MODEL 7
REMARK VINA RESULT:      -4.8      2.226      2.910
REMARK  Name = 60825
REMARK  3 active torsions:
REMARK  status: ('A' for Active; 'I' for Inactive)
REMARK    1  A    between atoms: N_2  and  C_13
REMARK    2  A    between atoms: C_15  and  C_16
REMARK    3  A    between atoms: C_16  and  O_17
REMARK                            x       y       z     vdW  Elec       q    Type
REMARK                         _______ _______ _______ _____ _____    ______ ____
ROOT
ATOM      1  O   UNL     1     -36.845  26.596   2.361  0.00  0.00    -0.193 OA
ATOM      2  N   UNL     1     -37.980  24.617   2.691  0.00  0.00    -0.179 N 
ATOM      3  N   UNL     1     -39.109  26.673   2.216  0.00  0.00    -0.306 NA
ATOM      4  N   UNL     1     -41.429  26.743   2.069  0.00  0.00    -0.332 N 
ATOM      5  C   UNL     1     -39.188  23.962   2.755  0.00  0.00    +0.083 C 
ATOM      6  C   UNL     1     -37.919  25.995   2.420  0.00  0.00    +0.275 C 
ATOM      7  C   UNL     1     -40.343  24.596   2.562  0.00  0.00    +0.065 C 
ATOM      8  C   UNL     1     -40.258  26.051   2.275  0.00  0.00    +0.193 C 
ATOM      9  H   UNL     1     -41.403  27.708   1.876  0.00  0.00    +0.145 HD
ATOM     10  H   UNL     1     -42.293  26.273   2.114  0.00  0.00    +0.145 HD
ENDROOT
BRANCH   2  13
ATOM     11  S   UNL     1     -35.598  21.560   3.251  0.00  0.00    -0.105 S 
ATOM     12  O   UNL     1     -36.525  23.803   4.321  0.00  0.00    -0.325 OA
ATOM     13  C   UNL     1     -36.788  23.849   2.914  0.00  0.00    +0.218 C 
ATOM     14  C   UNL     1     -36.944  22.418   2.419  0.00  0.00    +0.112 C 
ATOM     15  C   UNL     1     -35.501  22.824   4.547  0.00  0.00    +0.194 C 
BRANCH  15  16
ATOM     16  C   UNL     1     -35.698  22.219   5.924  0.00  0.00    +0.178 C 
BRANCH  16  17
ATOM     17  O   UNL     1     -35.397  20.834   5.865  0.00  0.00    -0.379 OA
ATOM     18  H   UNL     1     -35.446  20.454   6.756  0.00  0.00    +0.211 HD
ENDBRANCH  16  17
ENDBRANCH  15  16
ENDBRANCH   2  13
TORSDOF 3
ENDMDL
MODEL 8
REMARK VINA RESULT:      -4.8      3.274      5.174
REMARK  Name = 60825
REMARK  3 active torsions:
REMARK  status: ('A' for Active; 'I' for Inactive)
REMARK    1  A    between atoms: N_2  and  C_13
REMARK    2  A    between atoms: C_15  and  C_16
REMARK    3  A    between atoms: C_16  and  O_17
REMARK                            x       y       z     vdW  Elec       q    Type
REMARK                         _______ _______ _______ _____ _____    ______ ____
ROOT
ATOM      1  O   UNL     1     -35.186  21.148   5.245  0.00  0.00    -0.193 OA
ATOM      2  N   UNL     1     -35.840  22.166   3.282  0.00  0.00    -0.179 N 
ATOM      3  N   UNL     1     -35.818  23.325   5.376  0.00  0.00    -0.306 NA
ATOM      4  N   UNL     1     -36.467  25.555   5.503  0.00  0.00    -0.332 N 
ATOM      5  C   UNL     1     -36.296  23.302   2.653  0.00  0.00    +0.083 C 
ATOM      6  C   UNL     1     -35.592  22.158   4.666  0.00  0.00    +0.275 C 
ATOM      7  C   UNL     1     -36.519  24.434   3.318  0.00  0.00    +0.065 C 
ATOM      8  C   UNL     1     -36.250  24.405   4.779  0.00  0.00    +0.193 C 
ATOM      9  H   UNL     1     -36.297  25.565   6.473  0.00  0.00    +0.145 HD
ATOM     10  H   UNL     1     -36.793  26.366   5.052  0.00  0.00    +0.145 HD
ENDROOT
BRANCH   2  13
ATOM     11  S   UNL     1     -35.005  19.882   0.214  0.00  0.00    -0.105 S 
ATOM     12  O   UNL     1     -36.890  20.566   1.950  0.00  0.00    -0.325 OA
ATOM     13  C   UNL     1     -35.630  20.994   2.481  0.00  0.00    +0.218 C 
ATOM     14  C   UNL     1     -34.699  21.276   1.311  0.00  0.00    +0.112 C 
ATOM     15  C   UNL     1     -36.631  19.569   0.952  0.00  0.00    +0.194 C 
BRANCH  15  16
ATOM     16  C   UNL     1     -37.731  19.628  -0.093  0.00  0.00    +0.178 C 
BRANCH  16  17
ATOM     17  O   UNL     1     -38.905  20.153   0.505  0.00  0.00    -0.379 OA
ATOM     18  H   UNL     1     -38.784  20.203   1.465  0.00  0.00    +0.211 HD
ENDBRANCH  16  17
ENDBRANCH  15  16
ENDBRANCH   2  13
TORSDOF 3
ENDMDL
MODEL 9
REMARK VINA RESULT:      -4.8      4.512      5.610
REMARK  Name = 60825
REMARK  3 active torsions:
REMARK  status: ('A' for Active; 'I' for Inactive)
REMARK    1  A    between atoms: N_2  and  C_13
REMARK    2  A    between atoms: C_15  and  C_16
REMARK    3  A    between atoms: C_16  and  O_17
REMARK                            x       y       z     vdW  Elec       q    Type
REMARK                         _______ _______ _______ _____ _____    ______ ____
ROOT
ATOM      1  O   UNL     1     -35.873  26.787   2.367  0.00  0.00    -0.193 OA
ATOM      2  N   UNL     1     -34.406  26.116   4.014  0.00  0.00    -0.179 N 
ATOM      3  N   UNL     1     -36.259  24.766   3.327  0.00  0.00    -0.306 NA
ATOM      4  N   UNL     1     -36.647  22.698   4.316  0.00  0.00    -0.332 N 
ATOM      5  C   UNL     1     -34.040  25.157   4.929  0.00  0.00    +0.083 C 
ATOM      6  C   UNL     1     -35.531  25.937   3.191  0.00  0.00    +0.275 C 
ATOM      7  C   UNL     1     -34.726  24.026   5.076  0.00  0.00    +0.065 C 
ATOM      8  C   UNL     1     -35.911  23.853   4.197  0.00  0.00    +0.193 C 
ATOM      9  H   UNL     1     -37.438  22.557   3.746  0.00  0.00    +0.145 HD
ATOM     10  H   UNL     1     -36.384  22.012   4.971  0.00  0.00    +0.145 HD
ENDROOT
BRANCH   2  13
ATOM     11  S   UNL     1     -31.306  28.463   3.544  0.00  0.00    -0.105 S 
ATOM     12  O   UNL     1     -33.177  27.667   5.248  0.00  0.00    -0.325 OA
ATOM     13  C   UNL     1     -33.603  27.303   3.929  0.00  0.00    +0.218 C 
ATOM     14  C   UNL     1     -32.361  27.080   3.080  0.00  0.00    +0.112 C 
ATOM     15  C   UNL     1     -32.173  28.683   5.122  0.00  0.00    +0.194 C 
BRANCH  15  16
ATOM     16  C   UNL     1     -31.217  28.573   6.296  0.00  0.00    +0.178 C 
BRANCH  16  17
ATOM     17  O   UNL     1     -31.231  27.239   6.776  0.00  0.00    -0.379 OA
ATOM     18  H   UNL     1     -30.380  27.038   7.197  0.00  0.00    +0.211 HD
ENDBRANCH  16  17
ENDBRANCH  15  16
ENDBRANCH   2  13
TORSDOF 3
ENDMDL
