MODEL 1
REMARK VINA RESULT:      -5.0      0.000      0.000
REMARK  Name = 191876
REMARK  13 active torsions:
REMARK  status: ('A' for Active; 'I' for Inactive)
REMARK    1  A    between atoms: C_1  and  C_3
REMARK    2  A    between atoms: C_1  and  O_4
REMARK    3  A    between atoms: C_1  and  C_20
REMARK    4  A    between atoms: O_4  and  C_5
REMARK    5  A    between atoms: C_5  and  N_6
REMARK    6  A    between atoms: C_5  and  C_19
REMARK    7  A    between atoms: C_20  and  S_21
REMARK    8  A    between atoms: S_21  and  C_23
REMARK    9  A    between atoms: C_23  and  C_24
REMARK   10  A    between atoms: C_24  and  CA_25
REMARK   11  A    between atoms: CA_25  and  N_26
REMARK   12  A    between atoms: CA_25  and  C_31
REMARK   13  A    between atoms: C_31  and  O_32
REMARK                            x       y       z     vdW  Elec       q    Type
REMARK                         _______ _______ _______ _____ _____    ______ ____
ROOT
ATOM      1  C   UNL     1     -34.475  27.946   2.777  0.00  0.00    +0.192 C 
ENDROOT
BRANCH   1   3
ATOM      2  O   UNL     1     -33.380  29.644   4.120  0.00  0.00    -0.286 OA
ATOM      3  C   UNL     1     -33.541  29.111   3.027  0.00  0.00    +0.238 C 
ENDBRANCH   1   3
BRANCH   1   4
ATOM      4  O   UNL     1     -34.913  27.435   4.024  0.00  0.00    -0.325 OA
BRANCH   4   5
ATOM      5  C   UNL     1     -34.199  26.277   4.432  0.00  0.00    +0.262 C 
BRANCH   5   6
ATOM      6  N   UNL     1     -35.071  25.116   4.223  0.00  0.00    -0.243 N 
ATOM      7  N   UNL     1     -36.673  23.615   4.616  0.00  0.00    -0.242 NA
ATOM      8  N   UNL     1     -34.257  24.305   2.083  0.00  0.00    -0.228 NA
ATOM      9  N   UNL     1     -35.484  22.323   1.361  0.00  0.00    -0.229 NA
ATOM     10  C   UNL     1     -35.060  24.263   3.157  0.00  0.00    +0.153 C 
ATOM     11  C   UNL     1     -36.061  23.340   3.419  0.00  0.00    +0.140 C 
ATOM     12  C   UNL     1     -36.056  24.685   5.073  0.00  0.00    +0.223 C 
ATOM     13  C   UNL     1     -36.262  22.343   2.470  0.00  0.00    +0.143 C 
ATOM     14  C   UNL     1     -34.544  23.291   1.238  0.00  0.00    +0.253 C 
ATOM     15  N   UNL     1     -37.256  21.366   2.655  0.00  0.00    -0.342 N 
ATOM     16  H   UNL     1     -37.389  20.665   1.976  0.00  0.00    +0.144 HD
ATOM     17  H   UNL     1     -37.819  21.384   3.462  0.00  0.00    +0.144 HD
ENDBRANCH   5   6
BRANCH   5  19
ATOM     18  O   UNL     1     -32.936  27.158   6.307  0.00  0.00    -0.284 OA
ATOM     19  C   UNL     1     -33.761  26.357   5.881  0.00  0.00    +0.258 C 
ENDBRANCH   5  19
ENDBRANCH   4   5
ENDBRANCH   1   4
BRANCH   1  20
ATOM     20  C   UNL     1     -35.673  28.419   1.969  0.00  0.00    +0.086 C 
BRANCH  20  21
ATOM     21  S   UNL     1     -36.337  27.078   0.956  0.00  0.00    -0.176 S 
ATOM     22  C   UNL     1     -37.376  28.111  -0.102  0.00  0.00    +0.059 C 
BRANCH  21  23
ATOM     23  C   UNL     1     -37.657  26.595   2.114  0.00  0.00    +0.047 C 
BRANCH  23  24
ATOM     24  C   UNL     1     -38.385  25.352   1.609  0.00  0.00    -0.000 C 
BRANCH  24  25
ATOM     25  CA  UNL     1     -39.704  25.104   2.348  0.00  0.00    +0.037 C 
BRANCH  25  26
ATOM     26  N   UNL     1     -39.433  24.801   3.754  0.00  0.00    +0.389 N 
ATOM     27  H1  UNL     1     -38.608  24.205   3.820  0.00  0.00    -0.088 HD
ATOM     28  H2  UNL     1     -40.235  24.318   4.159  0.00  0.00    -0.088 HD
ATOM     29  H3  UNL     1     -39.267  25.670   4.264  0.00  0.00    -0.088 HD
ENDBRANCH  25  26
BRANCH  25  31
ATOM     30  OXT UNL     1     -41.471  23.942   1.128  0.00  0.00    -0.253 OA
ATOM     31  C   UNL     1     -40.435  23.906   1.778  0.00  0.00    +0.293 C 
BRANCH  31  32
ATOM     32  O   UNL     1     -39.766  22.760   2.061  0.00  0.00    -0.482 OA
ATOM     33  H   UNL     1     -39.028  22.777   2.638  0.00  0.00    +0.295 HD
ENDBRANCH  31  32
ENDBRANCH  25  31
ENDBRANCH  24  25
ENDBRANCH  23  24
ENDBRANCH  21  23
ENDBRANCH  20  21
ENDBRANCH   1  20
TORSDOF 13
ENDMDL
MODEL 2
REMARK VINA RESULT:      -4.9      3.231      6.005
REMARK  Name = 191876
REMARK  13 active torsions:
REMARK  status: ('A' for Active; 'I' for Inactive)
REMARK    1  A    between atoms: C_1  and  C_3
REMARK    2  A    between atoms: C_1  and  O_4
REMARK    3  A    between atoms: C_1  and  C_20
REMARK    4  A    between atoms: O_4  and  C_5
REMARK    5  A    between atoms: C_5  and  N_6
REMARK    6  A    between atoms: C_5  and  C_19
REMARK    7  A    between atoms: C_20  and  S_21
REMARK    8  A    between atoms: S_21  and  C_23
REMARK    9  A    between atoms: C_23  and  C_24
REMARK   10  A    between atoms: C_24  and  CA_25
REMARK   11  A    between atoms: CA_25  and  N_26
REMARK   12  A    between atoms: CA_25  and  C_31
REMARK   13  A    between atoms: C_31  and  O_32
REMARK                            x       y       z     vdW  Elec       q    Type
REMARK                         _______ _______ _______ _____ _____    ______ ____
ROOT
ATOM      1  C   UNL     1     -37.574  20.323   0.340  0.00  0.00    +0.192 C 
ENDROOT
BRANCH   1   3
ATOM      2  O   UNL     1     -36.779  18.403  -0.911  0.00  0.00    -0.286 OA
ATOM      3  C   UNL     1     -37.712  19.004  -0.390  0.00  0.00    +0.238 C 
ENDBRANCH   1   3
BRANCH   1   4
ATOM      4  O   UNL     1     -36.221  20.741   0.280  0.00  0.00    -0.325 OA
BRANCH   4   5
ATOM      5  C   UNL     1     -35.518  20.521   1.494  0.00  0.00    +0.262 C 
BRANCH   5   6
ATOM      6  N   UNL     1     -35.533  21.776   2.253  0.00  0.00    -0.243 N 
ATOM      7  N   UNL     1     -35.641  23.966   2.657  0.00  0.00    -0.242 NA
ATOM      8  N   UNL     1     -35.278  20.947   4.522  0.00  0.00    -0.228 NA
ATOM      9  N   UNL     1     -35.254  22.775   6.138  0.00  0.00    -0.229 NA
ATOM     10  C   UNL     1     -35.422  21.917   3.607  0.00  0.00    +0.153 C 
ATOM     11  C   UNL     1     -35.492  23.282   3.837  0.00  0.00    +0.140 C 
ATOM     12  C   UNL     1     -35.661  23.035   1.727  0.00  0.00    +0.223 C 
ATOM     13  C   UNL     1     -35.403  23.703   5.161  0.00  0.00    +0.143 C 
ATOM     14  C   UNL     1     -35.202  21.474   5.763  0.00  0.00    +0.253 C 
ATOM     15  N   UNL     1     -35.466  25.069   5.486  0.00  0.00    -0.342 N 
ATOM     16  H   UNL     1     -35.402  25.354   6.426  0.00  0.00    +0.144 HD
ATOM     17  H   UNL     1     -35.575  25.739   4.773  0.00  0.00    +0.144 HD
ENDBRANCH   5   6
BRANCH   5  19
ATOM     18  O   UNL     1     -33.602  19.051   1.743  0.00  0.00    -0.284 OA
ATOM     19  C   UNL     1     -34.093  20.064   1.254  0.00  0.00    +0.258 C 
ENDBRANCH   5  19
ENDBRANCH   4   5
ENDBRANCH   1   4
BRANCH   1  20
ATOM     20  C   UNL     1     -38.460  21.366  -0.323  0.00  0.00    +0.086 C 
BRANCH  20  21
ATOM     21  S   UNL     1     -39.992  21.596   0.607  0.00  0.00    -0.176 S 
ATOM     22  C   UNL     1     -40.551  23.071  -0.273  0.00  0.00    +0.059 C 
BRANCH  21  23
ATOM     23  C   UNL     1     -39.237  22.480   2.009  0.00  0.00    +0.047 C 
BRANCH  23  24
ATOM     24  C   UNL     1     -39.710  23.930   2.045  0.00  0.00    -0.000 C 
BRANCH  24  25
ATOM     25  CA  UNL     1     -39.172  24.692   3.262  0.00  0.00    +0.037 C 
BRANCH  25  26
ATOM     26  N   UNL     1     -40.281  25.072   4.138  0.00  0.00    +0.389 N 
ATOM     27  H1  UNL     1     -40.047  24.838   5.103  0.00  0.00    -0.088 HD
ATOM     28  H2  UNL     1     -41.123  24.567   3.859  0.00  0.00    -0.088 HD
ATOM     29  H3  UNL     1     -40.447  26.076   4.062  0.00  0.00    -0.088 HD
ENDBRANCH  25  26
BRANCH  25  31
ATOM     30  OXT UNL     1     -38.779  26.661   1.872  0.00  0.00    -0.253 OA
ATOM     31  C   UNL     1     -38.488  25.978   2.844  0.00  0.00    +0.293 C 
BRANCH  31  32
ATOM     32  O   UNL     1     -37.502  26.301   3.720  0.00  0.00    -0.482 OA
ATOM     33  H   UNL     1     -36.742  25.757   3.793  0.00  0.00    +0.295 HD
ENDBRANCH  31  32
ENDBRANCH  25  31
ENDBRANCH  24  25
ENDBRANCH  23  24
ENDBRANCH  21  23
ENDBRANCH  20  21
ENDBRANCH   1  20
TORSDOF 13
ENDMDL
MODEL 3
REMARK VINA RESULT:      -4.9      2.925      4.910
REMARK  Name = 191876
REMARK  13 active torsions:
REMARK  status: ('A' for Active; 'I' for Inactive)
REMARK    1  A    between atoms: C_1  and  C_3
REMARK    2  A    between atoms: C_1  and  O_4
REMARK    3  A    between atoms: C_1  and  C_20
REMARK    4  A    between atoms: O_4  and  C_5
REMARK    5  A    between atoms: C_5  and  N_6
REMARK    6  A    between atoms: C_5  and  C_19
REMARK    7  A    between atoms: C_20  and  S_21
REMARK    8  A    between atoms: S_21  and  C_23
REMARK    9  A    between atoms: C_23  and  C_24
REMARK   10  A    between atoms: C_24  and  CA_25
REMARK   11  A    between atoms: CA_25  and  N_26
REMARK   12  A    between atoms: CA_25  and  C_31
REMARK   13  A    between atoms: C_31  and  O_32
REMARK                            x       y       z     vdW  Elec       q    Type
REMARK                         _______ _______ _______ _____ _____    ______ ____
ROOT
ATOM      1  C   UNL     1     -36.355  22.038   2.957  0.00  0.00    +0.192 C 
ENDROOT
BRANCH   1   3
ATOM      2  O   UNL     1     -34.798  20.580   1.802  0.00  0.00    -0.286 OA
ATOM      3  C   UNL     1     -35.653  20.728   2.669  0.00  0.00    +0.238 C 
ENDBRANCH   1   3
BRANCH   1   4
ATOM      4  O   UNL     1     -35.392  22.993   3.371  0.00  0.00    -0.325 OA
BRANCH   4   5
ATOM      5  C   UNL     1     -35.763  23.674   4.561  0.00  0.00    +0.262 C 
BRANCH   5   6
ATOM      6  N   UNL     1     -35.181  25.020   4.506  0.00  0.00    -0.243 N 
ATOM      7  N   UNL     1     -33.932  26.775   5.079  0.00  0.00    -0.242 NA
ATOM      8  N   UNL     1     -36.270  25.912   2.527  0.00  0.00    -0.228 NA
ATOM      9  N   UNL     1     -35.553  28.200   2.076  0.00  0.00    -0.229 NA
ATOM     10  C   UNL     1     -35.438  25.986   3.577  0.00  0.00    +0.153 C 
ATOM     11  C   UNL     1     -34.654  27.066   3.950  0.00  0.00    +0.140 C 
ATOM     12  C   UNL     1     -34.271  25.541   5.388  0.00  0.00    +0.223 C 
ATOM     13  C   UNL     1     -34.731  28.205   3.153  0.00  0.00    +0.143 C 
ATOM     14  C   UNL     1     -36.261  27.071   1.833  0.00  0.00    +0.253 C 
ATOM     15  N   UNL     1     -33.969  29.346   3.457  0.00  0.00    -0.342 N 
ATOM     16  H   UNL     1     -34.031  30.146   2.886  0.00  0.00    +0.144 HD
ATOM     17  H   UNL     1     -33.373  29.346   4.240  0.00  0.00    +0.144 HD
ENDBRANCH   5   6
BRANCH   5  19
ATOM     18  O   UNL     1     -36.005  22.208   6.481  0.00  0.00    -0.284 OA
ATOM     19  C   UNL     1     -35.294  22.945   5.805  0.00  0.00    +0.258 C 
ENDBRANCH   5  19
ENDBRANCH   4   5
ENDBRANCH   1   4
BRANCH   1  20
ATOM     20  C   UNL     1     -37.051  22.529   1.697  0.00  0.00    +0.086 C 
BRANCH  20  21
ATOM     21  S   UNL     1     -38.615  21.659   1.444  0.00  0.00    -0.176 S 
ATOM     22  C   UNL     1     -38.924  22.267  -0.229  0.00  0.00    +0.059 C 
BRANCH  21  23
ATOM     23  C   UNL     1     -39.659  22.886   2.294  0.00  0.00    +0.047 C 
BRANCH  23  24
ATOM     24  C   UNL     1     -39.598  24.231   1.574  0.00  0.00    -0.000 C 
BRANCH  24  25
ATOM     25  CA  UNL     1     -39.622  25.417   2.546  0.00  0.00    +0.037 C 
BRANCH  25  26
ATOM     26  N   UNL     1     -39.053  25.013   3.832  0.00  0.00    +0.389 N 
ATOM     27  H1  UNL     1     -38.440  24.209   3.695  0.00  0.00    -0.088 HD
ATOM     28  H2  UNL     1     -39.805  24.762   4.474  0.00  0.00    -0.088 HD
ATOM     29  H3  UNL     1     -38.515  25.786   4.224  0.00  0.00    -0.088 HD
ENDBRANCH  25  26
BRANCH  25  31
ATOM     30  OXT UNL     1     -41.965  25.858   2.020  0.00  0.00    -0.253 OA
ATOM     31  C   UNL     1     -41.041  25.871   2.821  0.00  0.00    +0.293 C 
BRANCH  31  32
ATOM     32  O   UNL     1     -41.169  26.280   4.109  0.00  0.00    -0.482 OA
ATOM     33  H   UNL     1     -40.856  25.740   4.807  0.00  0.00    +0.295 HD
ENDBRANCH  31  32
ENDBRANCH  25  31
ENDBRANCH  24  25
ENDBRANCH  23  24
ENDBRANCH  21  23
ENDBRANCH  20  21
ENDBRANCH   1  20
TORSDOF 13
ENDMDL
MODEL 4
REMARK VINA RESULT:      -4.8      2.449      3.391
REMARK  Name = 191876
REMARK  13 active torsions:
REMARK  status: ('A' for Active; 'I' for Inactive)
REMARK    1  A    between atoms: C_1  and  C_3
REMARK    2  A    between atoms: C_1  and  O_4
REMARK    3  A    between atoms: C_1  and  C_20
REMARK    4  A    between atoms: O_4  and  C_5
REMARK    5  A    between atoms: C_5  and  N_6
REMARK    6  A    between atoms: C_5  and  C_19
REMARK    7  A    between atoms: C_20  and  S_21
REMARK    8  A    between atoms: S_21  and  C_23
REMARK    9  A    between atoms: C_23  and  C_24
REMARK   10  A    between atoms: C_24  and  CA_25
REMARK   11  A    between atoms: CA_25  and  N_26
REMARK   12  A    between atoms: CA_25  and  C_31
REMARK   13  A    between atoms: C_31  and  O_32
REMARK                            x       y       z     vdW  Elec       q    Type
REMARK                         _______ _______ _______ _____ _____    ______ ____
ROOT
ATOM      1  C   UNL     1     -34.403  24.960   3.868  0.00  0.00    +0.192 C 
ENDROOT
BRANCH   1   3
ATOM      2  O   UNL     1     -35.256  26.577   5.463  0.00  0.00    -0.286 OA
ATOM      3  C   UNL     1     -34.443  25.701   5.188  0.00  0.00    +0.238 C 
ENDBRANCH   1   3
BRANCH   1   4
ATOM      4  O   UNL     1     -35.558  24.145   3.764  0.00  0.00    -0.325 OA
BRANCH   4   5
ATOM      5  C   UNL     1     -35.262  22.756   3.802  0.00  0.00    +0.262 C 
BRANCH   5   6
ATOM      6  N   UNL     1     -36.198  22.075   2.901  0.00  0.00    -0.243 N 
ATOM      7  N   UNL     1     -38.108  21.593   1.856  0.00  0.00    -0.242 NA
ATOM      8  N   UNL     1     -34.747  20.399   1.909  0.00  0.00    -0.228 NA
ATOM      9  N   UNL     1     -35.958  19.015   0.304  0.00  0.00    -0.229 NA
ATOM     10  C   UNL     1     -35.922  21.025   2.073  0.00  0.00    +0.153 C 
ATOM     11  C   UNL     1     -37.119  20.742   1.434  0.00  0.00    +0.140 C 
ATOM     12  C   UNL     1     -37.524  22.380   2.736  0.00  0.00    +0.223 C 
ATOM     13  C   UNL     1     -37.112  19.693   0.519  0.00  0.00    +0.143 C 
ATOM     14  C   UNL     1     -34.863  19.404   1.003  0.00  0.00    +0.253 C 
ATOM     15  N   UNL     1     -38.281  19.338  -0.175  0.00  0.00    -0.342 N 
ATOM     16  H   UNL     1     -38.263  18.594  -0.820  0.00  0.00    +0.144 HD
ATOM     17  H   UNL     1     -39.116  19.833  -0.017  0.00  0.00    +0.144 HD
ENDBRANCH   5   6
BRANCH   5  19
ATOM     18  O   UNL     1     -35.096  21.029   5.499  0.00  0.00    -0.284 OA
ATOM     19  C   UNL     1     -35.367  22.189   5.203  0.00  0.00    +0.258 C 
ENDBRANCH   5  19
ENDBRANCH   4   5
ENDBRANCH   1   4
BRANCH   1  20
ATOM     20  C   UNL     1     -34.381  25.962   2.724  0.00  0.00    +0.086 C 
BRANCH  20  21
ATOM     21  S   UNL     1     -35.198  25.288   1.260  0.00  0.00    -0.176 S 
ATOM     22  C   UNL     1     -34.212  26.184   0.040  0.00  0.00    +0.059 C 
BRANCH  21  23
ATOM     23  C   UNL     1     -36.601  26.449   1.268  0.00  0.00    +0.047 C 
BRANCH  23  24
ATOM     24  C   UNL     1     -37.922  25.692   1.365  0.00  0.00    -0.000 C 
BRANCH  24  25
ATOM     25  CA  UNL     1     -38.740  26.096   2.597  0.00  0.00    +0.037 C 
BRANCH  25  26
ATOM     26  N   UNL     1     -37.891  26.053   3.789  0.00  0.00    +0.389 N 
ATOM     27  H1  UNL     1     -38.392  25.587   4.546  0.00  0.00    -0.088 HD
ATOM     28  H2  UNL     1     -37.653  27.004   4.072  0.00  0.00    -0.088 HD
ATOM     29  H3  UNL     1     -37.036  25.537   3.579  0.00  0.00    -0.088 HD
ENDBRANCH  25  26
BRANCH  25  31
ATOM     30  OXT UNL     1     -40.518  24.542   1.976  0.00  0.00    -0.253 OA
ATOM     31  C   UNL     1     -39.880  25.128   2.839  0.00  0.00    +0.293 C 
BRANCH  31  32
ATOM     32  O   UNL     1     -40.094  24.965   4.170  0.00  0.00    -0.482 OA
ATOM     33  H   UNL     1     -39.958  24.128   4.568  0.00  0.00    +0.295 HD
ENDBRANCH  31  32
ENDBRANCH  25  31
ENDBRANCH  24  25
ENDBRANCH  23  24
ENDBRANCH  21  23
ENDBRANCH  20  21
ENDBRANCH   1  20
TORSDOF 13
ENDMDL
MODEL 5
REMARK VINA RESULT:      -4.8      4.187      6.410
REMARK  Name = 191876
REMARK  13 active torsions:
REMARK  status: ('A' for Active; 'I' for Inactive)
REMARK    1  A    between atoms: C_1  and  C_3
REMARK    2  A    between atoms: C_1  and  O_4
REMARK    3  A    between atoms: C_1  and  C_20
REMARK    4  A    between atoms: O_4  and  C_5
REMARK    5  A    between atoms: C_5  and  N_6
REMARK    6  A    between atoms: C_5  and  C_19
REMARK    7  A    between atoms: C_20  and  S_21
REMARK    8  A    between atoms: S_21  and  C_23
REMARK    9  A    between atoms: C_23  and  C_24
REMARK   10  A    between atoms: C_24  and  CA_25
REMARK   11  A    between atoms: CA_25  and  N_26
REMARK   12  A    between atoms: CA_25  and  C_31
REMARK   13  A    between atoms: C_31  and  O_32
REMARK                            x       y       z     vdW  Elec       q    Type
REMARK                         _______ _______ _______ _____ _____    ______ ____
ROOT
ATOM      1  C   UNL     1     -33.622  26.420   4.027  0.00  0.00    +0.192 C 
ENDROOT
BRANCH   1   3
ATOM      2  O   UNL     1     -34.894  26.304   6.090  0.00  0.00    -0.286 OA
ATOM      3  C   UNL     1     -33.822  26.177   5.508  0.00  0.00    +0.238 C 
ENDBRANCH   1   3
BRANCH   1   4
ATOM      4  O   UNL     1     -32.254  26.700   3.789  0.00  0.00    -0.325 OA
BRANCH   4   5
ATOM      5  C   UNL     1     -31.988  28.088   3.642  0.00  0.00    +0.262 C 
BRANCH   5   6
ATOM      6  N   UNL     1     -31.354  28.556   4.880  0.00  0.00    -0.243 N 
ATOM      7  N   UNL     1     -31.127  29.582   6.846  0.00  0.00    -0.242 NA
ATOM      8  N   UNL     1     -29.129  27.612   4.644  0.00  0.00    -0.228 NA
ATOM      9  N   UNL     1     -27.719  28.176   6.554  0.00  0.00    -0.229 NA
ATOM     10  C   UNL     1     -30.072  28.317   5.285  0.00  0.00    +0.153 C 
ATOM     11  C   UNL     1     -29.951  28.962   6.506  0.00  0.00    +0.140 C 
ATOM     12  C   UNL     1     -31.948  29.320   5.850  0.00  0.00    +0.223 C 
ATOM     13  C   UNL     1     -28.719  28.873   7.146  0.00  0.00    +0.143 C 
ATOM     14  C   UNL     1     -27.981  27.597   5.357  0.00  0.00    +0.253 C 
ATOM     15  N   UNL     1     -28.508  29.495   8.389  0.00  0.00    -0.342 N 
ATOM     16  H   UNL     1     -27.632  29.425   8.832  0.00  0.00    +0.144 HD
ATOM     17  H   UNL     1     -29.238  30.000   8.816  0.00  0.00    +0.144 HD
ENDBRANCH   5   6
BRANCH   5  19
ATOM     18  O   UNL     1     -33.398  29.607   2.380  0.00  0.00    -0.284 OA
ATOM     19  C   UNL     1     -33.247  28.883   3.359  0.00  0.00    +0.258 C 
ENDBRANCH   5  19
ENDBRANCH   4   5
ENDBRANCH   1   4
BRANCH   1  20
ATOM     20  C   UNL     1     -34.033  25.180   3.249  0.00  0.00    +0.086 C 
BRANCH  20  21
ATOM     21  S   UNL     1     -35.259  25.588   1.985  0.00  0.00    -0.176 S 
ATOM     22  C   UNL     1     -36.586  26.047   3.122  0.00  0.00    +0.059 C 
BRANCH  21  23
ATOM     23  C   UNL     1     -35.824  23.880   1.703  0.00  0.00    +0.047 C 
BRANCH  23  24
ATOM     24  C   UNL     1     -35.071  22.911   2.610  0.00  0.00    -0.000 C 
BRANCH  24  25
ATOM     25  CA  UNL     1     -36.015  22.033   3.441  0.00  0.00    +0.037 C 
BRANCH  25  26
ATOM     26  N   UNL     1     -37.393  22.496   3.276  0.00  0.00    +0.389 N 
ATOM     27  H1  UNL     1     -37.958  22.167   4.059  0.00  0.00    -0.088 HD
ATOM     28  H2  UNL     1     -37.774  22.129   2.403  0.00  0.00    -0.088 HD
ATOM     29  H3  UNL     1     -37.409  23.516   3.250  0.00  0.00    -0.088 HD
ENDBRANCH  25  26
BRANCH  25  31
ATOM     30  OXT UNL     1     -35.878  23.113   5.626  0.00  0.00    -0.253 OA
ATOM     31  C   UNL     1     -35.696  22.132   4.918  0.00  0.00    +0.293 C 
BRANCH  31  32
ATOM     32  O   UNL     1     -35.196  20.957   5.379  0.00  0.00    -0.482 OA
ATOM     33  H   UNL     1     -34.406  20.608   5.014  0.00  0.00    +0.295 HD
ENDBRANCH  31  32
ENDBRANCH  25  31
ENDBRANCH  24  25
ENDBRANCH  23  24
ENDBRANCH  21  23
ENDBRANCH  20  21
ENDBRANCH   1  20
TORSDOF 13
ENDMDL
MODEL 6
REMARK VINA RESULT:      -4.8      3.442      5.811
REMARK  Name = 191876
REMARK  13 active torsions:
REMARK  status: ('A' for Active; 'I' for Inactive)
REMARK    1  A    between atoms: C_1  and  C_3
REMARK    2  A    between atoms: C_1  and  O_4
REMARK    3  A    between atoms: C_1  and  C_20
REMARK    4  A    between atoms: O_4  and  C_5
REMARK    5  A    between atoms: C_5  and  N_6
REMARK    6  A    between atoms: C_5  and  C_19
REMARK    7  A    between atoms: C_20  and  S_21
REMARK    8  A    between atoms: S_21  and  C_23
REMARK    9  A    between atoms: C_23  and  C_24
REMARK   10  A    between atoms: C_24  and  CA_25
REMARK   11  A    between atoms: CA_25  and  N_26
REMARK   12  A    between atoms: CA_25  and  C_31
REMARK   13  A    between atoms: C_31  and  O_32
REMARK                            x       y       z     vdW  Elec       q    Type
REMARK                         _______ _______ _______ _____ _____    ______ ____
ROOT
ATOM      1  C   UNL     1     -35.920  22.683   4.294  0.00  0.00    +0.192 C 
ENDROOT
BRANCH   1   3
ATOM      2  O   UNL     1     -35.965  21.999   6.621  0.00  0.00    -0.286 OA
ATOM      3  C   UNL     1     -35.350  22.087   5.564  0.00  0.00    +0.238 C 
ENDBRANCH   1   3
BRANCH   1   4
ATOM      4  O   UNL     1     -35.400  23.991   4.128  0.00  0.00    -0.325 OA
BRANCH   4   5
ATOM      5  C   UNL     1     -36.247  24.997   4.667  0.00  0.00    +0.262 C 
BRANCH   5   6
ATOM      6  N   UNL     1     -36.891  25.689   3.544  0.00  0.00    -0.243 N 
ATOM      7  N   UNL     1     -37.161  27.122   1.858  0.00  0.00    -0.242 NA
ATOM      8  N   UNL     1     -39.031  24.543   3.464  0.00  0.00    -0.228 NA
ATOM      9  N   UNL     1     -40.441  25.423   1.676  0.00  0.00    -0.229 NA
ATOM     10  C   UNL     1     -38.138  25.451   3.041  0.00  0.00    +0.153 C 
ATOM     11  C   UNL     1     -38.286  26.349   1.997  0.00  0.00    +0.140 C 
ATOM     12  C   UNL     1     -36.344  26.702   2.801  0.00  0.00    +0.223 C 
ATOM     13  C   UNL     1     -39.491  26.315   1.303  0.00  0.00    +0.143 C 
ATOM     14  C   UNL     1     -40.156  24.605   2.718  0.00  0.00    +0.253 C 
ATOM     15  N   UNL     1     -39.727  27.190   0.229  0.00  0.00    -0.342 N 
ATOM     16  H   UNL     1     -40.583  27.157  -0.255  0.00  0.00    +0.144 HD
ATOM     17  H   UNL     1     -39.034  27.836  -0.040  0.00  0.00    +0.144 HD
ENDBRANCH   5   6
BRANCH   5  19
ATOM     18  O   UNL     1     -34.304  25.859   5.838  0.00  0.00    -0.284 OA
ATOM     19  C   UNL     1     -35.484  25.983   5.529  0.00  0.00    +0.258 C 
ENDBRANCH   5  19
ENDBRANCH   4   5
ENDBRANCH   1   4
BRANCH   1  20
ATOM     20  C   UNL     1     -35.523  21.822   3.106  0.00  0.00    +0.086 C 
BRANCH  20  21
ATOM     21  S   UNL     1     -34.990  22.846   1.715  0.00  0.00    -0.176 S 
ATOM     22  C   UNL     1     -36.588  22.901   0.873  0.00  0.00    +0.059 C 
BRANCH  21  23
ATOM     23  C   UNL     1     -34.294  21.485   0.726  0.00  0.00    +0.047 C 
BRANCH  23  24
ATOM     24  C   UNL     1     -34.679  20.136   1.326  0.00  0.00    -0.000 C 
BRANCH  24  25
ATOM     25  CA  UNL     1     -35.557  19.304   0.385  0.00  0.00    +0.037 C 
BRANCH  25  26
ATOM     26  N   UNL     1     -36.811  18.958   1.056  0.00  0.00    +0.389 N 
ATOM     27  H1  UNL     1     -36.627  18.763   2.040  0.00  0.00    -0.088 HD
ATOM     28  H2  UNL     1     -37.217  18.132   0.615  0.00  0.00    -0.088 HD
ATOM     29  H3  UNL     1     -37.464  19.738   0.980  0.00  0.00    -0.088 HD
ENDBRANCH  25  26
BRANCH  25  31
ATOM     30  OXT UNL     1     -35.184  17.275  -0.922  0.00  0.00    -0.253 OA
ATOM     31  C   UNL     1     -34.884  17.997   0.019  0.00  0.00    +0.293 C 
BRANCH  31  32
ATOM     32  O   UNL     1     -33.862  17.732   0.872  0.00  0.00    -0.482 OA
ATOM     33  H   UNL     1     -34.033  17.602   1.784  0.00  0.00    +0.295 HD
ENDBRANCH  31  32
ENDBRANCH  25  31
ENDBRANCH  24  25
ENDBRANCH  23  24
ENDBRANCH  21  23
ENDBRANCH  20  21
ENDBRANCH   1  20
TORSDOF 13
ENDMDL
MODEL 7
REMARK VINA RESULT:      -4.8      3.333      5.296
REMARK  Name = 191876
REMARK  13 active torsions:
REMARK  status: ('A' for Active; 'I' for Inactive)
REMARK    1  A    between atoms: C_1  and  C_3
REMARK    2  A    between atoms: C_1  and  O_4
REMARK    3  A    between atoms: C_1  and  C_20
REMARK    4  A    between atoms: O_4  and  C_5
REMARK    5  A    between atoms: C_5  and  N_6
REMARK    6  A    between atoms: C_5  and  C_19
REMARK    7  A    between atoms: C_20  and  S_21
REMARK    8  A    between atoms: S_21  and  C_23
REMARK    9  A    between atoms: C_23  and  C_24
REMARK   10  A    between atoms: C_24  and  CA_25
REMARK   11  A    between atoms: CA_25  and  N_26
REMARK   12  A    between atoms: CA_25  and  C_31
REMARK   13  A    between atoms: C_31  and  O_32
REMARK                            x       y       z     vdW  Elec       q    Type
REMARK                         _______ _______ _______ _____ _____    ______ ____
ROOT
ATOM      1  C   UNL     1     -35.974  21.719   4.119  0.00  0.00    +0.192 C 
ENDROOT
BRANCH   1   3
ATOM      2  O   UNL     1     -35.178  22.042   6.387  0.00  0.00    -0.286 OA
ATOM      3  C   UNL     1     -34.960  21.663   5.241  0.00  0.00    +0.238 C 
ENDBRANCH   1   3
BRANCH   1   4
ATOM      4  O   UNL     1     -36.820  22.837   4.321  0.00  0.00    -0.325 OA
BRANCH   4   5
ATOM      5  C   UNL     1     -36.556  23.903   3.419  0.00  0.00    +0.262 C 
BRANCH   5   6
ATOM      6  N   UNL     1     -35.780  24.918   4.140  0.00  0.00    -0.243 N 
ATOM      7  N   UNL     1     -35.220  26.364   5.742  0.00  0.00    -0.242 NA
ATOM      8  N   UNL     1     -33.899  25.217   2.633  0.00  0.00    -0.228 NA
ATOM      9  N   UNL     1     -32.327  26.874   3.494  0.00  0.00    -0.229 NA
ATOM     10  C   UNL     1     -34.597  25.475   3.749  0.00  0.00    +0.153 C 
ATOM     11  C   UNL     1     -34.266  26.369   4.756  0.00  0.00    +0.140 C 
ATOM     12  C   UNL     1     -36.114  25.484   5.343  0.00  0.00    +0.223 C 
ATOM     13  C   UNL     1     -33.082  27.083   4.600  0.00  0.00    +0.143 C 
ATOM     14  C   UNL     1     -32.776  25.967   2.592  0.00  0.00    +0.253 C 
ATOM     15  N   UNL     1     -32.669  28.010   5.573  0.00  0.00    -0.342 N 
ATOM     16  H   UNL     1     -31.829  28.509   5.452  0.00  0.00    +0.144 HD
ATOM     17  H   UNL     1     -33.220  28.159   6.375  0.00  0.00    +0.144 HD
ENDBRANCH   5   6
BRANCH   5  19
ATOM     18  O   UNL     1     -38.950  24.289   3.312  0.00  0.00    -0.284 OA
ATOM     19  C   UNL     1     -37.830  24.507   2.862  0.00  0.00    +0.258 C 
ENDBRANCH   5  19
ENDBRANCH   4   5
ENDBRANCH   1   4
BRANCH   1  20
ATOM     20  C   UNL     1     -35.251  21.859   2.788  0.00  0.00    +0.086 C 
BRANCH  20  21
ATOM     21  S   UNL     1     -35.000  20.244   2.017  0.00  0.00    -0.176 S 
ATOM     22  C   UNL     1     -34.049  20.835   0.599  0.00  0.00    +0.059 C 
BRANCH  21  23
ATOM     23  C   UNL     1     -36.608  20.185   1.163  0.00  0.00    +0.047 C 
BRANCH  23  24
ATOM     24  C   UNL     1     -37.021  21.580   0.703  0.00  0.00    -0.000 C 
BRANCH  24  25
ATOM     25  CA  UNL     1     -38.440  21.609   0.122  0.00  0.00    +0.037 C 
BRANCH  25  26
ATOM     26  N   UNL     1     -38.753  22.959  -0.349  0.00  0.00    +0.389 N 
ATOM     27  H1  UNL     1     -38.812  23.591   0.449  0.00  0.00    -0.088 HD
ATOM     28  H2  UNL     1     -39.646  22.949  -0.842  0.00  0.00    -0.088 HD
ATOM     29  H3  UNL     1     -38.019  23.277  -0.982  0.00  0.00    -0.088 HD
ENDBRANCH  25  26
BRANCH  25  31
ATOM     30  OXT UNL     1     -40.616  20.892   0.966  0.00  0.00    -0.253 OA
ATOM     31  C   UNL     1     -39.471  21.265   1.177  0.00  0.00    +0.293 C 
BRANCH  31  32
ATOM     32  O   UNL     1     -38.944  21.401   2.421  0.00  0.00    -0.482 OA
ATOM     33  H   UNL     1     -38.536  20.669   2.841  0.00  0.00    +0.295 HD
ENDBRANCH  31  32
ENDBRANCH  25  31
ENDBRANCH  24  25
ENDBRANCH  23  24
ENDBRANCH  21  23
ENDBRANCH  20  21
ENDBRANCH   1  20
TORSDOF 13
ENDMDL
MODEL 8
REMARK VINA RESULT:      -4.7      3.100      5.809
REMARK  Name = 191876
REMARK  13 active torsions:
REMARK  status: ('A' for Active; 'I' for Inactive)
REMARK    1  A    between atoms: C_1  and  C_3
REMARK    2  A    between atoms: C_1  and  O_4
REMARK    3  A    between atoms: C_1  and  C_20
REMARK    4  A    between atoms: O_4  and  C_5
REMARK    5  A    between atoms: C_5  and  N_6
REMARK    6  A    between atoms: C_5  and  C_19
REMARK    7  A    between atoms: C_20  and  S_21
REMARK    8  A    between atoms: S_21  and  C_23
REMARK    9  A    between atoms: C_23  and  C_24
REMARK   10  A    between atoms: C_24  and  CA_25
REMARK   11  A    between atoms: CA_25  and  N_26
REMARK   12  A    between atoms: CA_25  and  C_31
REMARK   13  A    between atoms: C_31  and  O_32
REMARK                            x       y       z     vdW  Elec       q    Type
REMARK                         _______ _______ _______ _____ _____    ______ ____
ROOT
ATOM      1  C   UNL     1     -33.521  28.337   3.446  0.00  0.00    +0.192 C 
ENDROOT
BRANCH   1   3
ATOM      2  O   UNL     1     -33.693  30.697   2.912  0.00  0.00    -0.286 OA
ATOM      3  C   UNL     1     -34.211  29.586   2.940  0.00  0.00    +0.238 C 
ENDBRANCH   1   3
BRANCH   1   4
ATOM      4  O   UNL     1     -34.501  27.441   3.942  0.00  0.00    -0.325 OA
BRANCH   4   5
ATOM      5  C   UNL     1     -33.941  26.294   4.565  0.00  0.00    +0.262 C 
BRANCH   5   6
ATOM      6  N   UNL     1     -34.872  25.178   4.370  0.00  0.00    -0.243 N 
ATOM      7  N   UNL     1     -36.495  23.715   4.814  0.00  0.00    -0.242 NA
ATOM      8  N   UNL     1     -34.266  24.459   2.130  0.00  0.00    -0.228 NA
ATOM      9  N   UNL     1     -35.625  22.564   1.409  0.00  0.00    -0.229 NA
ATOM     10  C   UNL     1     -34.981  24.386   3.263  0.00  0.00    +0.153 C 
ATOM     11  C   UNL     1     -35.992  23.485   3.558  0.00  0.00    +0.140 C 
ATOM     12  C   UNL     1     -35.802  24.735   5.274  0.00  0.00    +0.223 C 
ATOM     13  C   UNL     1     -36.309  22.549   2.578  0.00  0.00    +0.143 C 
ATOM     14  C   UNL     1     -34.660  23.504   1.259  0.00  0.00    +0.253 C 
ATOM     15  N   UNL     1     -37.322  21.599   2.793  0.00  0.00    -0.342 N 
ATOM     16  H   UNL     1     -37.537  20.943   2.092  0.00  0.00    +0.144 HD
ATOM     17  H   UNL     1     -37.817  21.592   3.644  0.00  0.00    +0.144 HD
ENDBRANCH   5   6
BRANCH   5  19
ATOM     18  O   UNL     1     -32.573  26.703   6.528  0.00  0.00    -0.284 OA
ATOM     19  C   UNL     1     -33.684  26.517   6.042  0.00  0.00    +0.258 C 
ENDBRANCH   5  19
ENDBRANCH   4   5
ENDBRANCH   1   4
BRANCH   1  20
ATOM     20  C   UNL     1     -32.759  27.680   2.307  0.00  0.00    +0.086 C 
BRANCH  20  21
ATOM     21  S   UNL     1     -31.072  28.322   2.205  0.00  0.00    -0.176 S 
ATOM     22  C   UNL     1     -30.288  26.771   1.710  0.00  0.00    +0.059 C 
BRANCH  21  23
ATOM     23  C   UNL     1     -30.699  28.171   3.981  0.00  0.00    +0.047 C 
BRANCH  23  24
ATOM     24  C   UNL     1     -30.168  29.492   4.530  0.00  0.00    -0.000 C 
BRANCH  24  25
ATOM     25  CA  UNL     1     -30.188  29.540   6.062  0.00  0.00    +0.037 C 
BRANCH  25  26
ATOM     26  N   UNL     1     -29.847  28.223   6.602  0.00  0.00    +0.389 N 
ATOM     27  H1  UNL     1     -30.495  27.527   6.233  0.00  0.00    -0.088 HD
ATOM     28  H2  UNL     1     -29.913  28.244   7.620  0.00  0.00    -0.088 HD
ATOM     29  H3  UNL     1     -28.895  27.979   6.329  0.00  0.00    -0.088 HD
ENDBRANCH  25  26
BRANCH  25  31
ATOM     30  OXT UNL     1     -32.397  30.577   6.013  0.00  0.00    -0.253 OA
ATOM     31  C   UNL     1     -31.569  29.880   6.582  0.00  0.00    +0.293 C 
BRANCH  31  32
ATOM     32  O   UNL     1     -31.791  29.276   7.778  0.00  0.00    -0.482 OA
ATOM     33  H   UNL     1     -31.644  29.745   8.575  0.00  0.00    +0.295 HD
ENDBRANCH  31  32
ENDBRANCH  25  31
ENDBRANCH  24  25
ENDBRANCH  23  24
ENDBRANCH  21  23
ENDBRANCH  20  21
ENDBRANCH   1  20
TORSDOF 13
ENDMDL
MODEL 9
REMARK VINA RESULT:      -4.7      2.715      6.735
REMARK  Name = 191876
REMARK  13 active torsions:
REMARK  status: ('A' for Active; 'I' for Inactive)
REMARK    1  A    between atoms: C_1  and  C_3
REMARK    2  A    between atoms: C_1  and  O_4
REMARK    3  A    between atoms: C_1  and  C_20
REMARK    4  A    between atoms: O_4  and  C_5
REMARK    5  A    between atoms: C_5  and  N_6
REMARK    6  A    between atoms: C_5  and  C_19
REMARK    7  A    between atoms: C_20  and  S_21
REMARK    8  A    between atoms: S_21  and  C_23
REMARK    9  A    between atoms: C_23  and  C_24
REMARK   10  A    between atoms: C_24  and  CA_25
REMARK   11  A    between atoms: CA_25  and  N_26
REMARK   12  A    between atoms: CA_25  and  C_31
REMARK   13  A    between atoms: C_31  and  O_32
REMARK                            x       y       z     vdW  Elec       q    Type
REMARK                         _______ _______ _______ _____ _____    ______ ____
ROOT
ATOM      1  C   UNL     1     -35.321  22.912   4.537  0.00  0.00    +0.192 C 
ENDROOT
BRANCH   1   3
ATOM      2  O   UNL     1     -36.092  21.990   6.644  0.00  0.00    -0.286 OA
ATOM      3  C   UNL     1     -35.339  22.747   6.041  0.00  0.00    +0.238 C 
ENDBRANCH   1   3
BRANCH   1   4
ATOM      4  O   UNL     1     -36.655  22.912   4.060  0.00  0.00    -0.325 OA
BRANCH   4   5
ATOM      5  C   UNL     1     -36.751  22.595   2.678  0.00  0.00    +0.262 C 
BRANCH   5   6
ATOM      6  N   UNL     1     -38.150  22.774   2.274  0.00  0.00    -0.243 N 
ATOM      7  N   UNL     1     -40.244  22.244   1.724  0.00  0.00    -0.242 NA
ATOM      8  N   UNL     1     -38.268  25.192   2.077  0.00  0.00    -0.228 NA
ATOM      9  N   UNL     1     -40.497  25.920   1.403  0.00  0.00    -0.229 NA
ATOM     10  C   UNL     1     -38.784  23.956   2.016  0.00  0.00    +0.153 C 
ATOM     11  C   UNL     1     -40.081  23.605   1.677  0.00  0.00    +0.140 C 
ATOM     12  C   UNL     1     -39.068  21.774   2.084  0.00  0.00    +0.223 C 
ATOM     13  C   UNL     1     -40.953  24.644   1.363  0.00  0.00    +0.143 C 
ATOM     14  C   UNL     1     -39.202  26.112   1.752  0.00  0.00    +0.253 C 
ATOM     15  N   UNL     1     -42.287  24.380   1.009  0.00  0.00    -0.342 N 
ATOM     16  H   UNL     1     -42.894  25.123   0.790  0.00  0.00    +0.144 HD
ATOM     17  H   UNL     1     -42.614  23.452   0.982  0.00  0.00    +0.144 HD
ENDBRANCH   5   6
BRANCH   5  19
ATOM     18  O   UNL     1     -35.850  20.811   1.301  0.00  0.00    -0.284 OA
ATOM     19  C   UNL     1     -36.291  21.181   2.384  0.00  0.00    +0.258 C 
ENDBRANCH   5  19
ENDBRANCH   4   5
ENDBRANCH   1   4
BRANCH   1  20
ATOM     20  C   UNL     1     -34.649  24.228   4.177  0.00  0.00    +0.086 C 
BRANCH  20  21
ATOM     21  S   UNL     1     -35.439  25.610   5.034  0.00  0.00    -0.176 S 
ATOM     22  C   UNL     1     -35.408  26.762   3.643  0.00  0.00    +0.059 C 
BRANCH  21  23
ATOM     23  C   UNL     1     -33.928  26.231   5.836  0.00  0.00    +0.047 C 
BRANCH  23  24
ATOM     24  C   UNL     1     -33.165  27.160   4.896  0.00  0.00    -0.000 C 
BRANCH  24  25
ATOM     25  CA  UNL     1     -32.112  27.999   5.629  0.00  0.00    +0.037 C 
BRANCH  25  26
ATOM     26  N   UNL     1     -32.385  27.990   7.067  0.00  0.00    +0.389 N 
ATOM     27  H1  UNL     1     -32.931  28.815   7.314  0.00  0.00    -0.088 HD
ATOM     28  H2  UNL     1     -31.504  27.998   7.581  0.00  0.00    -0.088 HD
ATOM     29  H3  UNL     1     -32.911  27.149   7.307  0.00  0.00    -0.088 HD
ENDBRANCH  25  26
BRANCH  25  31
ATOM     30  OXT UNL     1     -32.394  29.842   4.052  0.00  0.00    -0.253 OA
ATOM     31  C   UNL     1     -32.161  29.447   5.186  0.00  0.00    +0.293 C 
BRANCH  31  32
ATOM     32  O   UNL     1     -31.935  30.276   6.237  0.00  0.00    -0.482 OA
ATOM     33  H   UNL     1     -32.578  30.360   6.915  0.00  0.00    +0.295 HD
ENDBRANCH  31  32
ENDBRANCH  25  31
ENDBRANCH  24  25
ENDBRANCH  23  24
ENDBRANCH  21  23
ENDBRANCH  20  21
ENDBRANCH   1  20
TORSDOF 13
ENDMDL
