MODEL 1
REMARK VINA RESULT:      -6.5      0.000      0.000
REMARK  Name = 5460314
REMARK  7 active torsions:
REMARK  status: ('A' for Active; 'I' for Inactive)
REMARK    1  A    between atoms: C_6  and  C_26
REMARK    2  A    between atoms: C_7  and  O_20
REMARK    3  A    between atoms: C_11  and  O_22
REMARK    4  A    between atoms: C_19  and  O_24
REMARK    5  A    between atoms: C_26  and  C_28
REMARK    6  A    between atoms: C_28  and  C_29
REMARK    7  A    between atoms: C_29  and  C_32
REMARK                            x       y       z     vdW  Elec       q    Type
REMARK                         _______ _______ _______ _____ _____    ______ ____
ROOT
ATOM      1  C   UNL     1     -36.016  22.431   2.542  0.00  0.00    +0.025 C 
ATOM      2  C   UNL     1     -37.368  22.068   1.885  0.00  0.00    +0.005 C 
ATOM      3  C   UNL     1     -37.214  21.452   0.486  0.00  0.00    +0.027 C 
ATOM      4  C   UNL     1     -36.349  20.151   0.597  0.00  0.00    +0.005 C 
ATOM      5  C   UNL     1     -36.147  19.464  -0.809  0.00  0.00    +0.000 C 
ATOM      6  C   UNL     1     -36.550  23.074   3.848  0.00  0.00    +0.002 C 
ATOM      7  C   UNL     1     -35.180  21.146   2.711  0.00  0.00    +0.110 C 
ATOM      8  C   UNL     1     -35.020  20.394   1.372  0.00  0.00    +0.029 C 
ATOM      9  C   UNL     1     -37.545  19.175  -1.451  0.00  0.00    +0.005 C 
ATOM     10  C   UNL     1     -38.196  23.343   2.031  0.00  0.00    +0.000 C 
ATOM     11  C   UNL     1     -38.573  21.185  -0.188  0.00  0.00    +0.110 C 
ATOM     12  C   UNL     1     -37.740  23.941   3.375  0.00  0.00    +0.000 C 
ATOM     13  C   UNL     1     -38.432  20.434  -1.515  0.00  0.00    +0.029 C 
ATOM     14  C   UNL     1     -35.355  18.125  -0.715  0.00  0.00    +0.002 C 
ATOM     15  C   UNL     1     -35.188  23.458   1.722  0.00  0.00    +0.002 C 
ATOM     16  C   UNL     1     -38.287  18.004  -0.770  0.00  0.00    +0.029 C 
ATOM     17  C   UNL     1     -35.325  20.371  -1.766  0.00  0.00    +0.000 C 
ATOM     18  C   UNL     1     -36.111  17.005  -0.014  0.00  0.00    +0.029 C 
ATOM     19  C   UNL     1     -37.441  16.737  -0.704  0.00  0.00    +0.111 C 
ENDROOT
BRANCH   7  20
ATOM     20  O   UNL     1     -35.743  20.264   3.682  0.00  0.00    -0.384 OA
ATOM     21  H   UNL     1     -35.032  19.876   4.215  0.00  0.00    +0.210 HD
ENDBRANCH   7  20
BRANCH  11  22
ATOM     22  O   UNL     1     -39.432  20.468   0.693  0.00  0.00    -0.384 OA
ATOM     23  H   UNL     1     -40.254  20.243   0.231  0.00  0.00    +0.210 HD
ENDBRANCH  11  22
BRANCH  19  24
ATOM     24  O   UNL     1     -38.138  15.733   0.027  0.00  0.00    -0.384 OA
ATOM     25  H   UNL     1     -39.064  15.998   0.138  0.00  0.00    +0.210 HD
ENDBRANCH  19  24
BRANCH   6  26
ATOM     26  C   UNL     1     -35.542  23.857   4.679  0.00  0.00    +0.001 C 
ATOM     27  C   UNL     1     -35.163  23.058   5.931  0.00  0.00    +0.000 C 
BRANCH  26  28
ATOM     28  C   UNL     1     -36.112  25.249   5.030  0.00  0.00    +0.012 C 
BRANCH  28  29
ATOM     29  C   UNL     1     -35.274  26.433   4.552  0.00  0.00    +0.114 C 
BRANCH  29  32
ATOM     30  O   UNL     1     -33.663  26.673   6.278  0.00  0.00    -0.246 OA
ATOM     31  O   UNL     1     -32.960  26.279   4.140  0.00  0.00    -0.246 OA
ATOM     32  C   UNL     1     -33.824  26.459   5.045  0.00  0.00    +0.365 C 
ENDBRANCH  29  32
ENDBRANCH  28  29
ENDBRANCH  26  28
ENDBRANCH   6  26
TORSDOF 7
ENDMDL
MODEL 2
REMARK VINA RESULT:      -6.5      3.705      6.963
REMARK  Name = 5460314
REMARK  7 active torsions:
REMARK  status: ('A' for Active; 'I' for Inactive)
REMARK    1  A    between atoms: C_6  and  C_26
REMARK    2  A    between atoms: C_7  and  O_20
REMARK    3  A    between atoms: C_11  and  O_22
REMARK    4  A    between atoms: C_19  and  O_24
REMARK    5  A    between atoms: C_26  and  C_28
REMARK    6  A    between atoms: C_28  and  C_29
REMARK    7  A    between atoms: C_29  and  C_32
REMARK                            x       y       z     vdW  Elec       q    Type
REMARK                         _______ _______ _______ _____ _____    ______ ____
ROOT
ATOM      1  C   UNL     1     -39.668  25.060   1.669  0.00  0.00    +0.025 C 
ATOM      2  C   UNL     1     -39.307  23.571   1.462  0.00  0.00    +0.005 C 
ATOM      3  C   UNL     1     -37.792  23.317   1.419  0.00  0.00    +0.027 C 
ATOM      4  C   UNL     1     -37.159  23.798   2.768  0.00  0.00    +0.005 C 
ATOM      5  C   UNL     1     -35.598  23.569   2.794  0.00  0.00    +0.000 C 
ATOM      6  C   UNL     1     -41.212  24.947   1.580  0.00  0.00    +0.002 C 
ATOM      7  C   UNL     1     -39.099  25.528   3.025  0.00  0.00    +0.110 C 
ATOM      8  C   UNL     1     -37.584  25.252   3.130  0.00  0.00    +0.029 C 
ATOM      9  C   UNL     1     -35.291  22.058   2.519  0.00  0.00    +0.005 C 
ATOM     10  C   UNL     1     -40.148  23.159   0.254  0.00  0.00    +0.000 C 
ATOM     11  C   UNL     1     -37.455  21.844   1.117  0.00  0.00    +0.110 C 
ATOM     12  C   UNL     1     -41.444  23.978   0.397  0.00  0.00    +0.000 C 
ATOM     13  C   UNL     1     -35.956  21.552   1.223  0.00  0.00    +0.029 C 
ATOM     14  C   UNL     1     -34.955  23.968   4.156  0.00  0.00    +0.002 C 
ATOM     15  C   UNL     1     -39.118  25.990   0.553  0.00  0.00    +0.002 C 
ATOM     16  C   UNL     1     -35.639  21.148   3.717  0.00  0.00    +0.029 C 
ATOM     17  C   UNL     1     -34.884  24.437   1.722  0.00  0.00    +0.000 C 
ATOM     18  C   UNL     1     -35.343  23.062   5.315  0.00  0.00    +0.029 C 
ATOM     19  C   UNL     1     -34.984  21.614   5.012  0.00  0.00    +0.111 C 
ENDROOT
BRANCH   7  20
ATOM     20  O   UNL     1     -39.767  24.915   4.127  0.00  0.00    -0.384 OA
ATOM     21  H   UNL     1     -39.830  25.548   4.860  0.00  0.00    +0.210 HD
ENDBRANCH   7  20
BRANCH  11  22
ATOM     22  O   UNL     1     -38.186  20.980   1.982  0.00  0.00    -0.384 OA
ATOM     23  H   UNL     1     -37.917  21.139   2.900  0.00  0.00    +0.210 HD
ENDBRANCH  11  22
BRANCH  19  24
ATOM     24  O   UNL     1     -35.428  20.800   6.093  0.00  0.00    -0.384 OA
ATOM     25  H   UNL     1     -34.927  19.970   6.100  0.00  0.00    +0.210 HD
ENDBRANCH  19  24
BRANCH   6  26
ATOM     26  C   UNL     1     -41.980  26.254   1.434  0.00  0.00    +0.001 C 
ATOM     27  C   UNL     1     -42.393  26.776   2.814  0.00  0.00    +0.000 C 
BRANCH  26  28
ATOM     28  C   UNL     1     -43.195  26.052   0.502  0.00  0.00    +0.012 C 
BRANCH  28  29
ATOM     29  C   UNL     1     -44.557  26.101   1.193  0.00  0.00    +0.114 C 
BRANCH  29  32
ATOM     30  O   UNL     1     -45.704  24.762   2.782  0.00  0.00    -0.246 OA
ATOM     31  O   UNL     1     -44.870  23.786   0.892  0.00  0.00    -0.246 OA
ATOM     32  C   UNL     1     -45.105  24.754   1.672  0.00  0.00    +0.365 C 
ENDBRANCH  29  32
ENDBRANCH  28  29
ENDBRANCH  26  28
ENDBRANCH   6  26
TORSDOF 7
ENDMDL
MODEL 3
REMARK VINA RESULT:      -6.5      1.028      1.207
REMARK  Name = 5460314
REMARK  7 active torsions:
REMARK  status: ('A' for Active; 'I' for Inactive)
REMARK    1  A    between atoms: C_6  and  C_26
REMARK    2  A    between atoms: C_7  and  O_20
REMARK    3  A    between atoms: C_11  and  O_22
REMARK    4  A    between atoms: C_19  and  O_24
REMARK    5  A    between atoms: C_26  and  C_28
REMARK    6  A    between atoms: C_28  and  C_29
REMARK    7  A    between atoms: C_29  and  C_32
REMARK                            x       y       z     vdW  Elec       q    Type
REMARK                         _______ _______ _______ _____ _____    ______ ____
ROOT
ATOM      1  C   UNL     1     -35.887  22.613   2.636  0.00  0.00    +0.025 C 
ATOM      2  C   UNL     1     -37.273  22.663   1.951  0.00  0.00    +0.005 C 
ATOM      3  C   UNL     1     -37.230  22.255   0.471  0.00  0.00    +0.027 C 
ATOM      4  C   UNL     1     -36.675  20.794   0.364  0.00  0.00    +0.005 C 
ATOM      5  C   UNL     1     -36.600  20.308  -1.136  0.00  0.00    +0.000 C 
ATOM      6  C   UNL     1     -36.293  23.146   4.036  0.00  0.00    +0.002 C 
ATOM      7  C   UNL     1     -35.358  21.165   2.589  0.00  0.00    +0.110 C 
ATOM      8  C   UNL     1     -35.340  20.614   1.147  0.00  0.00    +0.029 C 
ATOM      9  C   UNL     1     -38.015  20.437  -1.793  0.00  0.00    +0.005 C 
ATOM     10  C   UNL     1     -37.803  24.051   2.308  0.00  0.00    +0.000 C 
ATOM     11  C   UNL     1     -38.601  22.402  -0.216  0.00  0.00    +0.110 C 
ATOM     12  C   UNL     1     -37.254  24.316   3.721  0.00  0.00    +0.000 C 
ATOM     13  C   UNL     1     -38.603  21.855  -1.646  0.00  0.00    +0.029 C 
ATOM     14  C   UNL     1     -36.125  18.830  -1.264  0.00  0.00    +0.002 C 
ATOM     15  C   UNL     1     -34.838  23.547   1.975  0.00  0.00    +0.002 C 
ATOM     16  C   UNL     1     -39.009  19.367  -1.293  0.00  0.00    +0.029 C 
ATOM     17  C   UNL     1     -35.581  21.150  -1.951  0.00  0.00    +0.000 C 
ATOM     18  C   UNL     1     -37.122  17.808  -0.736  0.00  0.00    +0.029 C 
ATOM     19  C   UNL     1     -38.464  17.951  -1.439  0.00  0.00    +0.111 C 
ENDROOT
BRANCH   7  20
ATOM     20  O   UNL     1     -36.120  20.288   3.418  0.00  0.00    -0.384 OA
ATOM     21  H   UNL     1     -36.794  19.842   2.883  0.00  0.00    +0.210 HD
ENDBRANCH   7  20
BRANCH  11  22
ATOM     22  O   UNL     1     -39.614  21.763   0.555  0.00  0.00    -0.384 OA
ATOM     23  H   UNL     1     -40.450  21.775   0.063  0.00  0.00    +0.210 HD
ENDBRANCH  11  22
BRANCH  19  24
ATOM     24  O   UNL     1     -39.379  17.023  -0.864  0.00  0.00    -0.384 OA
ATOM     25  H   UNL     1     -39.450  17.187   0.089  0.00  0.00    +0.210 HD
ENDBRANCH  19  24
BRANCH   6  26
ATOM     26  C   UNL     1     -35.155  23.548   4.963  0.00  0.00    +0.001 C 
ATOM     27  C   UNL     1     -34.951  22.474   6.038  0.00  0.00    +0.000 C 
BRANCH  26  28
ATOM     28  C   UNL     1     -35.437  24.937   5.577  0.00  0.00    +0.012 C 
BRANCH  28  29
ATOM     29  C   UNL     1     -34.230  25.870   5.654  0.00  0.00    +0.114 C 
BRANCH  29  32
ATOM     30  O   UNL     1     -32.867  26.014   3.716  0.00  0.00    -0.246 OA
ATOM     31  O   UNL     1     -34.509  27.568   4.046  0.00  0.00    -0.246 OA
ATOM     32  C   UNL     1     -33.828  26.543   4.339  0.00  0.00    +0.365 C 
ENDBRANCH  29  32
ENDBRANCH  28  29
ENDBRANCH  26  28
ENDBRANCH   6  26
TORSDOF 7
ENDMDL
MODEL 4
REMARK VINA RESULT:      -6.4      4.042      6.454
REMARK  Name = 5460314
REMARK  7 active torsions:
REMARK  status: ('A' for Active; 'I' for Inactive)
REMARK    1  A    between atoms: C_6  and  C_26
REMARK    2  A    between atoms: C_7  and  O_20
REMARK    3  A    between atoms: C_11  and  O_22
REMARK    4  A    between atoms: C_19  and  O_24
REMARK    5  A    between atoms: C_26  and  C_28
REMARK    6  A    between atoms: C_28  and  C_29
REMARK    7  A    between atoms: C_29  and  C_32
REMARK                            x       y       z     vdW  Elec       q    Type
REMARK                         _______ _______ _______ _____ _____    ______ ____
ROOT
ATOM      1  C   UNL     1     -39.638  25.237   1.771  0.00  0.00    +0.025 C 
ATOM      2  C   UNL     1     -39.289  23.762   1.468  0.00  0.00    +0.005 C 
ATOM      3  C   UNL     1     -37.776  23.496   1.421  0.00  0.00    +0.027 C 
ATOM      4  C   UNL     1     -37.150  23.881   2.805  0.00  0.00    +0.005 C 
ATOM      5  C   UNL     1     -35.592  23.636   2.828  0.00  0.00    +0.000 C 
ATOM      6  C   UNL     1     -41.182  25.145   1.661  0.00  0.00    +0.002 C 
ATOM      7  C   UNL     1     -39.077  25.609   3.159  0.00  0.00    +0.110 C 
ATOM      8  C   UNL     1     -37.566  25.313   3.258  0.00  0.00    +0.029 C 
ATOM      9  C   UNL     1     -35.297  22.144   2.456  0.00  0.00    +0.005 C 
ATOM     10  C   UNL     1     -40.122  23.438   0.229  0.00  0.00    +0.000 C 
ATOM     11  C   UNL     1     -37.450  22.043   1.026  0.00  0.00    +0.110 C 
ATOM     12  C   UNL     1     -41.412  24.258   0.415  0.00  0.00    +0.000 C 
ATOM     13  C   UNL     1     -35.954  21.730   1.125  0.00  0.00    +0.029 C 
ATOM     14  C   UNL     1     -34.957  23.938   4.218  0.00  0.00    +0.002 C 
ATOM     15  C   UNL     1     -39.070  26.233   0.723  0.00  0.00    +0.002 C 
ATOM     16  C   UNL     1     -35.663  21.160   3.588  0.00  0.00    +0.029 C 
ATOM     17  C   UNL     1     -34.860  24.565   1.821  0.00  0.00    +0.000 C 
ATOM     18  C   UNL     1     -35.364  22.961   5.312  0.00  0.00    +0.029 C 
ATOM     19  C   UNL     1     -35.016  21.533   4.917  0.00  0.00    +0.111 C 
ENDROOT
BRANCH   7  20
ATOM     20  O   UNL     1     -39.760  24.931   4.212  0.00  0.00    -0.384 OA
ATOM     21  H   UNL     1     -40.681  25.235   4.249  0.00  0.00    +0.210 HD
ENDBRANCH   7  20
BRANCH  11  22
ATOM     22  O   UNL     1     -38.196  21.131   1.826  0.00  0.00    -0.384 OA
ATOM     23  H   UNL     1     -37.830  20.239   1.724  0.00  0.00    +0.210 HD
ENDBRANCH  11  22
BRANCH  19  24
ATOM     24  O   UNL     1     -35.477  20.654   5.939  0.00  0.00    -0.384 OA
ATOM     25  H   UNL     1     -36.446  20.671   5.968  0.00  0.00    +0.210 HD
ENDBRANCH  19  24
BRANCH   6  26
ATOM     26  C   UNL     1     -41.937  26.466   1.595  0.00  0.00    +0.001 C 
ATOM     27  C   UNL     1     -43.108  26.450   2.584  0.00  0.00    +0.000 C 
BRANCH  26  28
ATOM     28  C   UNL     1     -42.404  26.737   0.148  0.00  0.00    +0.012 C 
BRANCH  28  29
ATOM     29  C   UNL     1     -42.596  28.210  -0.206  0.00  0.00    +0.114 C 
BRANCH  29  32
ATOM     30  O   UNL     1     -42.193  29.799   1.510  0.00  0.00    -0.246 OA
ATOM     31  O   UNL     1     -40.517  29.288   0.045  0.00  0.00    -0.246 OA
ATOM     32  C   UNL     1     -41.681  29.193   0.529  0.00  0.00    +0.365 C 
ENDBRANCH  29  32
ENDBRANCH  28  29
ENDBRANCH  26  28
ENDBRANCH   6  26
TORSDOF 7
ENDMDL
MODEL 5
REMARK VINA RESULT:      -6.1      4.659     10.171
REMARK  Name = 5460314
REMARK  7 active torsions:
REMARK  status: ('A' for Active; 'I' for Inactive)
REMARK    1  A    between atoms: C_6  and  C_26
REMARK    2  A    between atoms: C_7  and  O_20
REMARK    3  A    between atoms: C_11  and  O_22
REMARK    4  A    between atoms: C_19  and  O_24
REMARK    5  A    between atoms: C_26  and  C_28
REMARK    6  A    between atoms: C_28  and  C_29
REMARK    7  A    between atoms: C_29  and  C_32
REMARK                            x       y       z     vdW  Elec       q    Type
REMARK                         _______ _______ _______ _____ _____    ______ ____
ROOT
ATOM      1  C   UNL     1     -34.203  26.752   3.550  0.00  0.00    +0.025 C 
ATOM      2  C   UNL     1     -33.485  27.490   4.703  0.00  0.00    +0.005 C 
ATOM      3  C   UNL     1     -32.093  28.010   4.314  0.00  0.00    +0.027 C 
ATOM      4  C   UNL     1     -32.239  28.998   3.108  0.00  0.00    +0.005 C 
ATOM      5  C   UNL     1     -30.841  29.572   2.652  0.00  0.00    +0.000 C 
ATOM      6  C   UNL     1     -35.486  26.317   4.305  0.00  0.00    +0.002 C 
ATOM      7  C   UNL     1     -34.406  27.734   2.378  0.00  0.00    +0.110 C 
ATOM      8  C   UNL     1     -33.074  28.384   1.945  0.00  0.00    +0.029 C 
ATOM      9  C   UNL     1     -30.137  30.252   3.873  0.00  0.00    +0.005 C 
ATOM     10  C   UNL     1     -33.597  26.520   5.879  0.00  0.00    +0.000 C 
ATOM     11  C   UNL     1     -31.357  28.657   5.504  0.00  0.00    +0.110 C 
ATOM     12  C   UNL     1     -34.961  25.835   5.677  0.00  0.00    +0.000 C 
ATOM     13  C   UNL     1     -30.036  29.312   5.090  0.00  0.00    +0.029 C 
ATOM     14  C   UNL     1     -30.968  30.617   1.503  0.00  0.00    +0.002 C 
ATOM     15  C   UNL     1     -33.424  25.514   3.029  0.00  0.00    +0.002 C 
ATOM     16  C   UNL     1     -30.780  31.601   4.262  0.00  0.00    +0.029 C 
ATOM     17  C   UNL     1     -29.925  28.447   2.097  0.00  0.00    +0.000 C 
ATOM     18  C   UNL     1     -31.631  31.921   1.921  0.00  0.00    +0.029 C 
ATOM     19  C   UNL     1     -30.882  32.560   3.081  0.00  0.00    +0.111 C 
ENDROOT
BRANCH   7  20
ATOM     20  O   UNL     1     -35.348  28.759   2.694  0.00  0.00    -0.384 OA
ATOM     21  H   UNL     1     -36.107  28.368   3.155  0.00  0.00    +0.210 HD
ENDBRANCH   7  20
BRANCH  11  22
ATOM     22  O   UNL     1     -32.197  29.610   6.147  0.00  0.00    -0.384 OA
ATOM     23  H   UNL     1     -32.104  29.525   7.109  0.00  0.00    +0.210 HD
ENDBRANCH  11  22
BRANCH  19  24
ATOM     24  O   UNL     1     -31.578  33.738   3.479  0.00  0.00    -0.384 OA
ATOM     25  H   UNL     1     -30.954  34.362   3.879  0.00  0.00    +0.210 HD
ENDBRANCH  19  24
BRANCH   6  26
ATOM     26  C   UNL     1     -36.363  25.284   3.611  0.00  0.00    +0.001 C 
ATOM     27  C   UNL     1     -37.678  25.931   3.161  0.00  0.00    +0.000 C 
BRANCH  26  28
ATOM     28  C   UNL     1     -36.600  24.077   4.545  0.00  0.00    +0.012 C 
BRANCH  28  29
ATOM     29  C   UNL     1     -35.845  22.805   4.165  0.00  0.00    +0.114 C 
BRANCH  29  32
ATOM     30  O   UNL     1     -35.006  20.750   5.005  0.00  0.00    -0.246 OA
ATOM     31  O   UNL     1     -35.841  22.296   6.465  0.00  0.00    -0.246 OA
ATOM     32  C   UNL     1     -35.525  21.855   5.323  0.00  0.00    +0.365 C 
ENDBRANCH  29  32
ENDBRANCH  28  29
ENDBRANCH  26  28
ENDBRANCH   6  26
TORSDOF 7
ENDMDL
MODEL 6
REMARK VINA RESULT:      -5.9      3.071      5.811
REMARK  Name = 5460314
REMARK  7 active torsions:
REMARK  status: ('A' for Active; 'I' for Inactive)
REMARK    1  A    between atoms: C_6  and  C_26
REMARK    2  A    between atoms: C_7  and  O_20
REMARK    3  A    between atoms: C_11  and  O_22
REMARK    4  A    between atoms: C_19  and  O_24
REMARK    5  A    between atoms: C_26  and  C_28
REMARK    6  A    between atoms: C_28  and  C_29
REMARK    7  A    between atoms: C_29  and  C_32
REMARK                            x       y       z     vdW  Elec       q    Type
REMARK                         _______ _______ _______ _____ _____    ______ ____
ROOT
ATOM      1  C   UNL     1     -33.349  26.864   3.510  0.00  0.00    +0.025 C 
ATOM      2  C   UNL     1     -33.854  25.691   4.381  0.00  0.00    +0.005 C 
ATOM      3  C   UNL     1     -35.014  24.916   3.737  0.00  0.00    +0.027 C 
ATOM      4  C   UNL     1     -34.540  24.344   2.359  0.00  0.00    +0.005 C 
ATOM      5  C   UNL     1     -35.687  23.536   1.637  0.00  0.00    +0.000 C 
ATOM      6  C   UNL     1     -32.280  27.437   4.477  0.00  0.00    +0.002 C 
ATOM      7  C   UNL     1     -32.823  26.304   2.172  0.00  0.00    +0.110 C 
ATOM      8  C   UNL     1     -33.886  25.438   1.463  0.00  0.00    +0.029 C 
ATOM      9  C   UNL     1     -36.199  22.402   2.587  0.00  0.00    +0.005 C 
ATOM     10  C   UNL     1     -34.076  26.326   5.752  0.00  0.00    +0.000 C 
ATOM     11  C   UNL     1     -35.564  23.813   4.661  0.00  0.00    +0.110 C 
ATOM     12  C   UNL     1     -32.970  27.393   5.860  0.00  0.00    +0.000 C 
ATOM     13  C   UNL     1     -36.616  22.940   3.970  0.00  0.00    +0.029 C 
ATOM     14  C   UNL     1     -35.216  22.890   0.299  0.00  0.00    +0.002 C 
ATOM     15  C   UNL     1     -34.443  27.924   3.209  0.00  0.00    +0.002 C 
ATOM     16  C   UNL     1     -35.197  21.235   2.722  0.00  0.00    +0.029 C 
ATOM     17  C   UNL     1     -36.877  24.461   1.262  0.00  0.00    +0.000 C 
ATOM     18  C   UNL     1     -34.210  21.762   0.474  0.00  0.00    +0.029 C 
ATOM     19  C   UNL     1     -34.775  20.670   1.370  0.00  0.00    +0.111 C 
ENDROOT
BRANCH   7  20
ATOM     20  O   UNL     1     -31.630  25.540   2.343  0.00  0.00    -0.384 OA
ATOM     21  H   UNL     1     -31.204  25.787   3.178  0.00  0.00    +0.210 HD
ENDBRANCH   7  20
BRANCH  11  22
ATOM     22  O   UNL     1     -34.501  23.003   5.154  0.00  0.00    -0.384 OA
ATOM     23  H   UNL     1     -34.575  22.927   6.118  0.00  0.00    +0.210 HD
ENDBRANCH  11  22
BRANCH  19  24
ATOM     24  O   UNL     1     -33.775  19.674   1.559  0.00  0.00    -0.384 OA
ATOM     25  H   UNL     1     -33.621  19.207   0.723  0.00  0.00    +0.210 HD
ENDBRANCH  19  24
BRANCH   6  26
ATOM     26  C   UNL     1     -31.726  28.814   4.136  0.00  0.00    +0.001 C 
ATOM     27  C   UNL     1     -30.487  28.674   3.244  0.00  0.00    +0.000 C 
BRANCH  26  28
ATOM     28  C   UNL     1     -31.422  29.598   5.432  0.00  0.00    +0.012 C 
BRANCH  28  29
ATOM     29  C   UNL     1     -29.940  29.833   5.715  0.00  0.00    +0.114 C 
BRANCH  29  32
ATOM     30  O   UNL     1     -28.806  29.497   7.773  0.00  0.00    -0.246 OA
ATOM     31  O   UNL     1     -29.374  27.686   6.502  0.00  0.00    -0.246 OA
ATOM     32  C   UNL     1     -29.315  28.920   6.774  0.00  0.00    +0.365 C 
ENDBRANCH  29  32
ENDBRANCH  28  29
ENDBRANCH  26  28
ENDBRANCH   6  26
TORSDOF 7
ENDMDL
MODEL 7
REMARK VINA RESULT:      -5.7      4.837      9.291
REMARK  Name = 5460314
REMARK  7 active torsions:
REMARK  status: ('A' for Active; 'I' for Inactive)
REMARK    1  A    between atoms: C_6  and  C_26
REMARK    2  A    between atoms: C_7  and  O_20
REMARK    3  A    between atoms: C_11  and  O_22
REMARK    4  A    between atoms: C_19  and  O_24
REMARK    5  A    between atoms: C_26  and  C_28
REMARK    6  A    between atoms: C_28  and  C_29
REMARK    7  A    between atoms: C_29  and  C_32
REMARK                            x       y       z     vdW  Elec       q    Type
REMARK                         _______ _______ _______ _____ _____    ______ ____
ROOT
ATOM      1  C   UNL     1     -35.421  26.770   2.196  0.00  0.00    +0.025 C 
ATOM      2  C   UNL     1     -35.143  28.127   2.884  0.00  0.00    +0.005 C 
ATOM      3  C   UNL     1     -35.019  29.293   1.891  0.00  0.00    +0.027 C 
ATOM      4  C   UNL     1     -36.352  29.412   1.078  0.00  0.00    +0.005 C 
ATOM      5  C   UNL     1     -36.294  30.593   0.033  0.00  0.00    +0.000 C 
ATOM      6  C   UNL     1     -35.402  25.858   3.450  0.00  0.00    +0.002 C 
ATOM      7  C   UNL     1     -36.763  26.858   1.441  0.00  0.00    +0.110 C 
ATOM      8  C   UNL     1     -36.786  28.049   0.460  0.00  0.00    +0.029 C 
ATOM      9  C   UNL     1     -35.951  31.927   0.777  0.00  0.00    +0.005 C 
ATOM     10  C   UNL     1     -33.963  27.830   3.808  0.00  0.00    +0.000 C 
ATOM     11  C   UNL     1     -34.649  30.617   2.588  0.00  0.00    +0.110 C 
ATOM     12  C   UNL     1     -34.198  26.379   4.269  0.00  0.00    +0.000 C 
ATOM     13  C   UNL     1     -34.672  31.811   1.629  0.00  0.00    +0.029 C 
ATOM     14  C   UNL     1     -37.637  30.781  -0.734  0.00  0.00    +0.002 C 
ATOM     15  C   UNL     1     -34.313  26.349   1.192  0.00  0.00    +0.002 C 
ATOM     16  C   UNL     1     -37.131  32.468   1.613  0.00  0.00    +0.029 C 
ATOM     17  C   UNL     1     -35.221  30.327  -1.057  0.00  0.00    +0.000 C 
ATOM     18  C   UNL     1     -38.781  31.290   0.131  0.00  0.00    +0.029 C 
ATOM     19  C   UNL     1     -38.410  32.608   0.795  0.00  0.00    +0.111 C 
ENDROOT
BRANCH   7  20
ATOM     20  O   UNL     1     -37.874  26.960   2.332  0.00  0.00    -0.384 OA
ATOM     21  H   UNL     1     -38.280  26.087   2.443  0.00  0.00    +0.210 HD
ENDBRANCH   7  20
BRANCH  11  22
ATOM     22  O   UNL     1     -35.516  30.856   3.692  0.00  0.00    -0.384 OA
ATOM     23  H   UNL     1     -36.416  30.577   3.461  0.00  0.00    +0.210 HD
ENDBRANCH  11  22
BRANCH  19  24
ATOM     24  O   UNL     1     -39.481  33.007   1.644  0.00  0.00    -0.384 OA
ATOM     25  H   UNL     1     -40.283  32.517   1.406  0.00  0.00    +0.210 HD
ENDBRANCH  19  24
BRANCH   6  26
ATOM     26  C   UNL     1     -35.339  24.358   3.196  0.00  0.00    +0.001 C 
ATOM     27  C   UNL     1     -36.755  23.772   3.168  0.00  0.00    +0.000 C 
BRANCH  26  28
ATOM     28  C   UNL     1     -34.451  23.677   4.261  0.00  0.00    +0.012 C 
BRANCH  28  29
ATOM     29  C   UNL     1     -35.120  23.448   5.615  0.00  0.00    +0.114 C 
BRANCH  29  32
ATOM     30  O   UNL     1     -36.252  21.825   6.925  0.00  0.00    -0.246 OA
ATOM     31  O   UNL     1     -34.983  21.143   5.152  0.00  0.00    -0.246 OA
ATOM     32  C   UNL     1     -35.497  21.998   5.929  0.00  0.00    +0.365 C 
ENDBRANCH  29  32
ENDBRANCH  28  29
ENDBRANCH  26  28
ENDBRANCH   6  26
TORSDOF 7
ENDMDL
MODEL 8
REMARK VINA RESULT:      -5.6      1.976      2.351
REMARK  Name = 5460314
REMARK  7 active torsions:
REMARK  status: ('A' for Active; 'I' for Inactive)
REMARK    1  A    between atoms: C_6  and  C_26
REMARK    2  A    between atoms: C_7  and  O_20
REMARK    3  A    between atoms: C_11  and  O_22
REMARK    4  A    between atoms: C_19  and  O_24
REMARK    5  A    between atoms: C_26  and  C_28
REMARK    6  A    between atoms: C_28  and  C_29
REMARK    7  A    between atoms: C_29  and  C_32
REMARK                            x       y       z     vdW  Elec       q    Type
REMARK                         _______ _______ _______ _____ _____    ______ ____
ROOT
ATOM      1  C   UNL     1     -35.963  21.924   1.835  0.00  0.00    +0.025 C 
ATOM      2  C   UNL     1     -37.070  21.096   1.142  0.00  0.00    +0.005 C 
ATOM      3  C   UNL     1     -36.610  20.459  -0.178  0.00  0.00    +0.027 C 
ATOM      4  C   UNL     1     -35.392  19.518   0.110  0.00  0.00    +0.005 C 
ATOM      5  C   UNL     1     -34.864  18.828  -1.208  0.00  0.00    +0.000 C 
ATOM      6  C   UNL     1     -36.783  22.458   3.039  0.00  0.00    +0.002 C 
ATOM      7  C   UNL     1     -34.783  20.993   2.178  0.00  0.00    +0.110 C 
ATOM      8  C   UNL     1     -34.279  20.233   0.932  0.00  0.00    +0.029 C 
ATOM      9  C   UNL     1     -36.039  18.056  -1.896  0.00  0.00    +0.005 C 
ATOM     10  C   UNL     1     -38.268  22.044   1.113  0.00  0.00    +0.000 C 
ATOM     11  C   UNL     1     -37.753  19.718  -0.899  0.00  0.00    +0.110 C 
ATOM     12  C   UNL     1     -38.140  22.857   2.415  0.00  0.00    +0.000 C 
ATOM     13  C   UNL     1     -37.269  18.954  -2.135  0.00  0.00    +0.029 C 
ATOM     14  C   UNL     1     -33.702  17.826  -0.936  0.00  0.00    +0.002 C 
ATOM     15  C   UNL     1     -35.434  23.097   0.966  0.00  0.00    +0.002 C 
ATOM     16  C   UNL     1     -36.429  16.764  -1.146  0.00  0.00    +0.029 C 
ATOM     17  C   UNL     1     -34.292  19.876  -2.201  0.00  0.00    +0.000 C 
ATOM     18  C   UNL     1     -34.122  16.579  -0.172  0.00  0.00    +0.029 C 
ATOM     19  C   UNL     1     -35.235  15.847  -0.906  0.00  0.00    +0.111 C 
ENDROOT
BRANCH   7  20
ATOM     20  O   UNL     1     -35.119  20.053   3.198  0.00  0.00    -0.384 OA
ATOM     21  H   UNL     1     -36.064  19.840   3.142  0.00  0.00    +0.210 HD
ENDBRANCH   7  20
BRANCH  11  22
ATOM     22  O   UNL     1     -38.414  18.832  -0.001  0.00  0.00    -0.384 OA
ATOM     23  H   UNL     1     -39.082  19.322   0.503  0.00  0.00    +0.210 HD
ENDBRANCH  11  22
BRANCH  19  24
ATOM     24  O   UNL     1     -35.640  14.729  -0.121  0.00  0.00    -0.384 OA
ATOM     25  H   UNL     1     -35.169  13.937  -0.419  0.00  0.00    +0.210 HD
ENDBRANCH  19  24
BRANCH   6  26
ATOM     26  C   UNL     1     -36.148  23.584   3.845  0.00  0.00    +0.001 C 
ATOM     27  C   UNL     1     -35.702  23.061   5.215  0.00  0.00    +0.000 C 
BRANCH  26  28
ATOM     28  C   UNL     1     -37.134  24.767   3.968  0.00  0.00    +0.012 C 
BRANCH  28  29
ATOM     29  C   UNL     1     -36.662  26.073   3.332  0.00  0.00    +0.114 C 
BRANCH  29  32
ATOM     30  O   UNL     1     -36.633  26.446   0.988  0.00  0.00    -0.246 OA
ATOM     31  O   UNL     1     -38.576  26.763   2.146  0.00  0.00    -0.246 OA
ATOM     32  C   UNL     1     -37.355  26.459   2.022  0.00  0.00    +0.365 C 
ENDBRANCH  29  32
ENDBRANCH  28  29
ENDBRANCH  26  28
ENDBRANCH   6  26
TORSDOF 7
ENDMDL
MODEL 9
REMARK VINA RESULT:      -5.6      2.657      4.064
REMARK  Name = 5460314
REMARK  7 active torsions:
REMARK  status: ('A' for Active; 'I' for Inactive)
REMARK    1  A    between atoms: C_6  and  C_26
REMARK    2  A    between atoms: C_7  and  O_20
REMARK    3  A    between atoms: C_11  and  O_22
REMARK    4  A    between atoms: C_19  and  O_24
REMARK    5  A    between atoms: C_26  and  C_28
REMARK    6  A    between atoms: C_28  and  C_29
REMARK    7  A    between atoms: C_29  and  C_32
REMARK                            x       y       z     vdW  Elec       q    Type
REMARK                         _______ _______ _______ _____ _____    ______ ____
ROOT
ATOM      1  C   UNL     1     -37.001  22.946   1.478  0.00  0.00    +0.025 C 
ATOM      2  C   UNL     1     -37.273  21.438   1.271  0.00  0.00    +0.005 C 
ATOM      3  C   UNL     1     -36.483  20.837   0.098  0.00  0.00    +0.027 C 
ATOM      4  C   UNL     1     -34.952  21.034   0.365  0.00  0.00    +0.005 C 
ATOM      5  C   UNL     1     -34.075  20.440  -0.805  0.00  0.00    +0.000 C 
ATOM      6  C   UNL     1     -37.992  23.210   2.643  0.00  0.00    +0.002 C 
ATOM      7  C   UNL     1     -35.506  23.145   1.801  0.00  0.00    +0.110 C 
ATOM      8  C   UNL     1     -34.603  22.510   0.722  0.00  0.00    +0.029 C 
ATOM      9  C   UNL     1     -34.437  18.931  -1.009  0.00  0.00    +0.005 C 
ATOM     10  C   UNL     1     -38.798  21.346   1.242  0.00  0.00    +0.000 C 
ATOM     11  C   UNL     1     -36.839  19.359  -0.151  0.00  0.00    +0.110 C 
ATOM     12  C   UNL     1     -39.263  22.432   2.230  0.00  0.00    +0.000 C 
ATOM     13  C   UNL     1     -35.949  18.712  -1.215  0.00  0.00    +0.029 C 
ATOM     14  C   UNL     1     -32.547  20.554  -0.527  0.00  0.00    +0.002 C 
ATOM     15  C   UNL     1     -37.361  23.814   0.242  0.00  0.00    +0.002 C 
ATOM     16  C   UNL     1     -33.891  18.027   0.118  0.00  0.00    +0.029 C 
ATOM     17  C   UNL     1     -34.319  21.206  -2.135  0.00  0.00    +0.000 C 
ATOM     18  C   UNL     1     -32.054  19.667   0.607  0.00  0.00    +0.029 C 
ATOM     19  C   UNL     1     -32.394  18.208   0.337  0.00  0.00    +0.111 C 
ENDROOT
BRANCH   7  20
ATOM     20  O   UNL     1     -35.158  22.612   3.079  0.00  0.00    -0.384 OA
ATOM     21  H   UNL     1     -35.764  22.962   3.751  0.00  0.00    +0.210 HD
ENDBRANCH   7  20
BRANCH  11  22
ATOM     22  O   UNL     1     -36.768  18.620   1.065  0.00  0.00    -0.384 OA
ATOM     23  H   UNL     1     -36.911  19.218   1.815  0.00  0.00    +0.210 HD
ENDBRANCH  11  22
BRANCH  19  24
ATOM     24  O   UNL     1     -31.975  17.430   1.455  0.00  0.00    -0.384 OA
ATOM     25  H   UNL     1     -31.437  17.977   2.047  0.00  0.00    +0.210 HD
ENDBRANCH  19  24
BRANCH   6  26
ATOM     26  C   UNL     1     -38.273  24.669   2.975  0.00  0.00    +0.001 C 
ATOM     27  C   UNL     1     -37.348  25.137   4.104  0.00  0.00    +0.000 C 
BRANCH  26  28
ATOM     28  C   UNL     1     -39.764  24.852   3.334  0.00  0.00    +0.012 C 
BRANCH  28  29
ATOM     29  C   UNL     1     -40.437  26.072   2.707  0.00  0.00    +0.114 C 
BRANCH  29  32
ATOM     30  O   UNL     1     -39.568  27.354   0.908  0.00  0.00    -0.246 OA
ATOM     31  O   UNL     1     -40.589  25.358   0.468  0.00  0.00    -0.246 OA
ATOM     32  C   UNL     1     -40.163  26.285   1.216  0.00  0.00    +0.365 C 
ENDBRANCH  29  32
ENDBRANCH  28  29
ENDBRANCH  26  28
ENDBRANCH   6  26
TORSDOF 7
ENDMDL
