MODEL 1
REMARK VINA RESULT:      -6.5      0.000      0.000
REMARK  Name = 5748404
REMARK  6 active torsions:
REMARK  status: ('A' for Active; 'I' for Inactive)
REMARK    1  A    between atoms: C_1  and  N_7
REMARK    2  A    between atoms: C_4  and  N_19
REMARK    3  A    between atoms: N_7  and  C_10
REMARK    4  A    between atoms: C_10  and  N_13
REMARK    5  A    between atoms: N_19  and  C_21
REMARK    6  A    between atoms: C_26  and  N_29
REMARK                            x       y       z     vdW  Elec       q    Type
REMARK                         _______ _______ _______ _____ _____    ______ ____
ROOT
ATOM      1  C   UNL     1     -37.061  22.729   3.162  0.00  0.00    +0.050 C 
ATOM      2  C   UNL     1     -35.894  22.305   3.775  0.00  0.00    +0.016 C 
ATOM      3  C   UNL     1     -37.542  22.114   2.019  0.00  0.00    +0.016 C 
ATOM      4  C   UNL     1     -35.658  20.602   2.078  0.00  0.00    +0.048 C 
ATOM      5  C   UNL     1     -35.188  21.233   3.229  0.00  0.00    +0.016 C 
ATOM      6  C   UNL     1     -36.835  21.042   1.473  0.00  0.00    +0.016 C 
ENDROOT
BRANCH   1   7
ATOM      7  N   UNL     1     -37.779  23.816   3.716  0.00  0.00    -0.296 N 
ATOM      8  H   UNL     1     -38.294  23.594   4.525  0.00  0.00    +0.154 HD
BRANCH   7  10
ATOM      9  S   UNL     1     -39.347  25.723   2.768  0.00  0.00    -0.018 S 
ATOM     10  C   UNL     1     -37.881  25.125   3.322  0.00  0.00    +0.138 C 
BRANCH  10  13
ATOM     11  O   UNL     1     -34.248  28.217   3.812  0.00  0.00    -0.290 OA
ATOM     12  N   UNL     1     -34.104  26.932   3.351  0.00  0.00    +0.431 N 
ATOM     13  N   UNL     1     -36.813  25.951   3.437  0.00  0.00    -0.295 N 
ATOM     14  C   UNL     1     -34.560  25.939   4.404  0.00  0.00    -0.006 C 
ATOM     15  C   UNL     1     -34.922  26.731   2.087  0.00  0.00    -0.006 C 
ATOM     16  C   UNL     1     -36.055  26.053   4.676  0.00  0.00    +0.075 C 
ATOM     17  C   UNL     1     -36.415  26.844   2.358  0.00  0.00    +0.075 C 
ATOM     18  C   UNL     1     -32.649  26.705   3.046  0.00  0.00    -0.045 C 
ENDBRANCH  10  13
ENDBRANCH   7  10
ENDBRANCH   1   7
BRANCH   4  19
ATOM     19  N   UNL     1     -34.944  19.517   1.527  0.00  0.00    -0.313 N 
ATOM     20  H   UNL     1     -35.488  18.707   1.405  0.00  0.00    +0.152 HD
BRANCH  19  21
ATOM     21  C   UNL     1     -33.605  19.367   1.117  0.00  0.00    +0.048 C 
ATOM     22  C   UNL     1     -32.993  20.360   0.352  0.00  0.00    +0.016 C 
ATOM     23  C   UNL     1     -32.889  18.224   1.476  0.00  0.00    +0.016 C 
ATOM     24  C   UNL     1     -31.666  20.212  -0.054  0.00  0.00    +0.025 C 
ATOM     25  C   UNL     1     -31.561  18.076   1.070  0.00  0.00    +0.025 C 
ATOM     26  C   UNL     1     -30.950  19.069   0.305  0.00  0.00    +0.143 C 
BRANCH  26  29
ATOM     27  O   UNL     1     -29.082  17.775  -0.083  0.00  0.00    -0.126 OA
ATOM     28  O   UNL     1     -28.963  19.930  -0.485  0.00  0.00    -0.126 OA
ATOM     29  N   UNL     1     -29.601  18.918  -0.108  0.00  0.00    +0.058 N 
ENDBRANCH  26  29
ENDBRANCH  19  21
ENDBRANCH   4  19
TORSDOF 6
ENDMDL
MODEL 2
REMARK VINA RESULT:      -6.3      2.578      8.372
REMARK  Name = 5748404
REMARK  6 active torsions:
REMARK  status: ('A' for Active; 'I' for Inactive)
REMARK    1  A    between atoms: C_1  and  N_7
REMARK    2  A    between atoms: C_4  and  N_19
REMARK    3  A    between atoms: N_7  and  C_10
REMARK    4  A    between atoms: C_10  and  N_13
REMARK    5  A    between atoms: N_19  and  C_21
REMARK    6  A    between atoms: C_26  and  N_29
REMARK                            x       y       z     vdW  Elec       q    Type
REMARK                         _______ _______ _______ _____ _____    ______ ____
ROOT
ATOM      1  C   UNL     1     -36.604  20.342   1.881  0.00  0.00    +0.050 C 
ATOM      2  C   UNL     1     -35.550  20.652   2.725  0.00  0.00    +0.016 C 
ATOM      3  C   UNL     1     -37.684  21.194   1.730  0.00  0.00    +0.016 C 
ATOM      4  C   UNL     1     -36.660  22.720   3.299  0.00  0.00    +0.048 C 
ATOM      5  C   UNL     1     -35.578  21.850   3.439  0.00  0.00    +0.016 C 
ATOM      6  C   UNL     1     -37.712  22.393   2.444  0.00  0.00    +0.016 C 
ENDROOT
BRANCH   1   7
ATOM      7  N   UNL     1     -36.575  19.127   1.155  0.00  0.00    -0.296 N 
ATOM      8  H   UNL     1     -37.116  18.405   1.549  0.00  0.00    +0.154 HD
BRANCH   7  10
ATOM      9  S   UNL     1     -36.421  19.425  -1.468  0.00  0.00    -0.018 S 
ATOM     10  C   UNL     1     -35.924  18.781  -0.001  0.00  0.00    +0.138 C 
BRANCH  10  13
ATOM     11  O   UNL     1     -32.174  15.818   0.389  0.00  0.00    -0.290 OA
ATOM     12  N   UNL     1     -32.388  16.645  -0.684  0.00  0.00    +0.431 N 
ATOM     13  N   UNL     1     -34.843  17.966   0.050  0.00  0.00    -0.295 N 
ATOM     14  C   UNL     1     -33.708  16.308  -1.355  0.00  0.00    -0.006 C 
ATOM     15  C   UNL     1     -32.412  18.096  -0.237  0.00  0.00    -0.006 C 
ATOM     16  C   UNL     1     -34.894  16.596  -0.442  0.00  0.00    +0.075 C 
ATOM     17  C   UNL     1     -33.596  18.385   0.675  0.00  0.00    +0.075 C 
ATOM     18  C   UNL     1     -31.265  16.443  -1.663  0.00  0.00    -0.045 C 
ENDBRANCH  10  13
ENDBRANCH   7  10
ENDBRANCH   1   7
BRANCH   4  19
ATOM     19  N   UNL     1     -36.687  23.932   4.020  0.00  0.00    -0.313 N 
ATOM     20  H   UNL     1     -37.569  24.147   4.398  0.00  0.00    +0.152 HD
BRANCH  19  21
ATOM     21  C   UNL     1     -35.699  24.895   4.302  0.00  0.00    +0.048 C 
ATOM     22  C   UNL     1     -35.236  25.738   3.292  0.00  0.00    +0.016 C 
ATOM     23  C   UNL     1     -35.181  25.007   5.594  0.00  0.00    +0.016 C 
ATOM     24  C   UNL     1     -34.257  26.693   3.571  0.00  0.00    +0.025 C 
ATOM     25  C   UNL     1     -34.202  25.962   5.874  0.00  0.00    +0.025 C 
ATOM     26  C   UNL     1     -33.740  26.804   4.863  0.00  0.00    +0.143 C 
BRANCH  26  29
ATOM     27  O   UNL     1     -31.803  27.473   5.921  0.00  0.00    -0.126 OA
ATOM     28  O   UNL     1     -32.832  28.909   4.619  0.00  0.00    -0.126 OA
ATOM     29  N   UNL     1     -32.744  27.775   5.147  0.00  0.00    +0.058 N 
ENDBRANCH  26  29
ENDBRANCH  19  21
ENDBRANCH   4  19
TORSDOF 6
ENDMDL
MODEL 3
REMARK VINA RESULT:      -6.3      2.332      7.964
REMARK  Name = 5748404
REMARK  6 active torsions:
REMARK  status: ('A' for Active; 'I' for Inactive)
REMARK    1  A    between atoms: C_1  and  N_7
REMARK    2  A    between atoms: C_4  and  N_19
REMARK    3  A    between atoms: N_7  and  C_10
REMARK    4  A    between atoms: C_10  and  N_13
REMARK    5  A    between atoms: N_19  and  C_21
REMARK    6  A    between atoms: C_26  and  N_29
REMARK                            x       y       z     vdW  Elec       q    Type
REMARK                         _______ _______ _______ _____ _____    ______ ____
ROOT
ATOM      1  C   UNL     1     -36.677  20.436   1.942  0.00  0.00    +0.050 C 
ATOM      2  C   UNL     1     -35.588  20.751   2.738  0.00  0.00    +0.016 C 
ATOM      3  C   UNL     1     -37.772  21.277   1.849  0.00  0.00    +0.016 C 
ATOM      4  C   UNL     1     -36.692  22.803   3.380  0.00  0.00    +0.048 C 
ATOM      5  C   UNL     1     -35.595  21.944   3.462  0.00  0.00    +0.016 C 
ATOM      6  C   UNL     1     -37.779  22.470   2.573  0.00  0.00    +0.016 C 
ENDROOT
BRANCH   1   7
ATOM      7  N   UNL     1     -36.669  19.227   1.206  0.00  0.00    -0.296 N 
ATOM      8  H   UNL     1     -37.013  18.448   1.700  0.00  0.00    +0.154 HD
BRANCH   7  10
ATOM      9  S   UNL     1     -37.373  19.008  -1.333  0.00  0.00    -0.018 S 
ATOM     10  C   UNL     1     -36.266  18.952  -0.075  0.00  0.00    +0.138 C 
BRANCH  10  13
ATOM     11  O   UNL     1     -31.698  18.041  -1.218  0.00  0.00    -0.290 OA
ATOM     12  N   UNL     1     -32.152  18.183   0.069  0.00  0.00    +0.431 N 
ATOM     13  N   UNL     1     -34.961  18.694  -0.332  0.00  0.00    -0.295 N 
ATOM     14  C   UNL     1     -32.749  19.565   0.269  0.00  0.00    -0.006 C 
ATOM     15  C   UNL     1     -33.207  17.135   0.375  0.00  0.00    -0.006 C 
ATOM     16  C   UNL     1     -34.003  19.764  -0.573  0.00  0.00    +0.075 C 
ATOM     17  C   UNL     1     -34.461  17.333  -0.466  0.00  0.00    +0.075 C 
ATOM     18  C   UNL     1     -30.985  18.003   0.999  0.00  0.00    -0.045 C 
ENDBRANCH  10  13
ENDBRANCH   7  10
ENDBRANCH   1   7
BRANCH   4  19
ATOM     19  N   UNL     1     -36.698  24.009   4.111  0.00  0.00    -0.313 N 
ATOM     20  H   UNL     1     -37.581  24.246   4.475  0.00  0.00    +0.152 HD
BRANCH  19  21
ATOM     21  C   UNL     1     -35.689  24.942   4.420  0.00  0.00    +0.048 C 
ATOM     22  C   UNL     1     -35.113  24.952   5.690  0.00  0.00    +0.016 C 
ATOM     23  C   UNL     1     -35.265  25.858   3.456  0.00  0.00    +0.016 C 
ATOM     24  C   UNL     1     -34.113  25.876   5.997  0.00  0.00    +0.025 C 
ATOM     25  C   UNL     1     -34.265  26.782   3.763  0.00  0.00    +0.025 C 
ATOM     26  C   UNL     1     -33.689  26.791   5.033  0.00  0.00    +0.143 C 
BRANCH  26  29
ATOM     27  O   UNL     1     -31.764  27.401   6.147  0.00  0.00    -0.126 OA
ATOM     28  O   UNL     1     -32.708  28.865   4.812  0.00  0.00    -0.126 OA
ATOM     29  N   UNL     1     -32.672  27.731   5.345  0.00  0.00    +0.058 N 
ENDBRANCH  26  29
ENDBRANCH  19  21
ENDBRANCH   4  19
TORSDOF 6
ENDMDL
MODEL 4
REMARK VINA RESULT:      -6.3      2.355      7.920
REMARK  Name = 5748404
REMARK  6 active torsions:
REMARK  status: ('A' for Active; 'I' for Inactive)
REMARK    1  A    between atoms: C_1  and  N_7
REMARK    2  A    between atoms: C_4  and  N_19
REMARK    3  A    between atoms: N_7  and  C_10
REMARK    4  A    between atoms: C_10  and  N_13
REMARK    5  A    between atoms: N_19  and  C_21
REMARK    6  A    between atoms: C_26  and  N_29
REMARK                            x       y       z     vdW  Elec       q    Type
REMARK                         _______ _______ _______ _____ _____    ______ ____
ROOT
ATOM      1  C   UNL     1     -36.702  20.406   1.957  0.00  0.00    +0.050 C 
ATOM      2  C   UNL     1     -37.745  21.311   1.854  0.00  0.00    +0.016 C 
ATOM      3  C   UNL     1     -35.608  20.653   2.768  0.00  0.00    +0.016 C 
ATOM      4  C   UNL     1     -36.598  22.763   3.408  0.00  0.00    +0.048 C 
ATOM      5  C   UNL     1     -37.693  22.498   2.585  0.00  0.00    +0.016 C 
ATOM      6  C   UNL     1     -35.556  21.840   3.500  0.00  0.00    +0.016 C 
ENDROOT
BRANCH   1   7
ATOM      7  N   UNL     1     -36.755  19.202   1.215  0.00  0.00    -0.296 N 
ATOM      8  H   UNL     1     -37.129  18.436   1.707  0.00  0.00    +0.154 HD
BRANCH   7  10
ATOM      9  S   UNL     1     -37.507  18.966  -1.310  0.00  0.00    -0.018 S 
ATOM     10  C   UNL     1     -36.376  18.917  -0.072  0.00  0.00    +0.138 C 
BRANCH  10  13
ATOM     11  O   UNL     1     -31.833  17.985  -1.293  0.00  0.00    -0.290 OA
ATOM     12  N   UNL     1     -32.258  18.160  -0.000  0.00  0.00    +0.431 N 
ATOM     13  N   UNL     1     -35.076  18.655  -0.351  0.00  0.00    -0.295 N 
ATOM     14  C   UNL     1     -32.854  19.545   0.177  0.00  0.00    -0.006 C 
ATOM     15  C   UNL     1     -33.304  17.118   0.356  0.00  0.00    -0.006 C 
ATOM     16  C   UNL     1     -34.126  19.721  -0.641  0.00  0.00    +0.075 C 
ATOM     17  C   UNL     1     -34.576  17.292  -0.461  0.00  0.00    +0.075 C 
ATOM     18  C   UNL     1     -31.070  18.006   0.908  0.00  0.00    -0.045 C 
ENDBRANCH  10  13
ENDBRANCH   7  10
ENDBRANCH   1   7
BRANCH   4  19
ATOM     19  N   UNL     1     -36.546  23.962   4.149  0.00  0.00    -0.313 N 
ATOM     20  H   UNL     1     -37.392  24.185   4.600  0.00  0.00    +0.152 HD
BRANCH  19  21
ATOM     21  C   UNL     1     -35.522  24.902   4.369  0.00  0.00    +0.048 C 
ATOM     22  C   UNL     1     -34.889  25.512   3.286  0.00  0.00    +0.016 C 
ATOM     23  C   UNL     1     -35.137  25.226   5.672  0.00  0.00    +0.016 C 
ATOM     24  C   UNL     1     -33.873  26.444   3.504  0.00  0.00    +0.025 C 
ATOM     25  C   UNL     1     -34.122  26.158   5.890  0.00  0.00    +0.025 C 
ATOM     26  C   UNL     1     -33.490  26.767   4.806  0.00  0.00    +0.143 C 
BRANCH  26  29
ATOM     27  O   UNL     1     -32.555  28.505   5.998  0.00  0.00    -0.126 OA
ATOM     28  O   UNL     1     -31.475  27.739   4.247  0.00  0.00    -0.126 OA
ATOM     29  N   UNL     1     -32.457  27.716   5.027  0.00  0.00    +0.058 N 
ENDBRANCH  26  29
ENDBRANCH  19  21
ENDBRANCH   4  19
TORSDOF 6
ENDMDL
MODEL 5
REMARK VINA RESULT:      -6.2      4.364      9.006
REMARK  Name = 5748404
REMARK  6 active torsions:
REMARK  status: ('A' for Active; 'I' for Inactive)
REMARK    1  A    between atoms: C_1  and  N_7
REMARK    2  A    between atoms: C_4  and  N_19
REMARK    3  A    between atoms: N_7  and  C_10
REMARK    4  A    between atoms: C_10  and  N_13
REMARK    5  A    between atoms: N_19  and  C_21
REMARK    6  A    between atoms: C_26  and  N_29
REMARK                            x       y       z     vdW  Elec       q    Type
REMARK                         _______ _______ _______ _____ _____    ______ ____
ROOT
ATOM      1  C   UNL     1     -36.518  20.245   1.797  0.00  0.00    +0.050 C 
ATOM      2  C   UNL     1     -35.481  20.589   2.649  0.00  0.00    +0.016 C 
ATOM      3  C   UNL     1     -37.621  21.064   1.633  0.00  0.00    +0.016 C 
ATOM      4  C   UNL     1     -36.655  22.627   3.202  0.00  0.00    +0.048 C 
ATOM      5  C   UNL     1     -35.551  21.789   3.356  0.00  0.00    +0.016 C 
ATOM      6  C   UNL     1     -37.690  22.265   2.340  0.00  0.00    +0.016 C 
ENDROOT
BRANCH   1   7
ATOM      7  N   UNL     1     -36.448  19.027   1.079  0.00  0.00    -0.296 N 
ATOM      8  H   UNL     1     -36.091  18.269   1.596  0.00  0.00    +0.154 HD
BRANCH   7  10
ATOM      9  S   UNL     1     -35.855  19.283  -1.486  0.00  0.00    -0.018 S 
ATOM     10  C   UNL     1     -36.791  18.720  -0.213  0.00  0.00    +0.138 C 
BRANCH  10  13
ATOM     11  O   UNL     1     -40.634  15.928  -0.869  0.00  0.00    -0.290 OA
ATOM     12  N   UNL     1     -39.603  16.035  -1.767  0.00  0.00    +0.431 N 
ATOM     13  N   UNL     1     -37.850  17.912  -0.457  0.00  0.00    -0.295 N 
ATOM     14  C   UNL     1     -39.466  17.469  -2.246  0.00  0.00    -0.006 C 
ATOM     15  C   UNL     1     -38.297  15.597  -1.127  0.00  0.00    -0.006 C 
ATOM     16  C   UNL     1     -39.052  18.404  -1.117  0.00  0.00    +0.075 C 
ATOM     17  C   UNL     1     -37.881  16.530   0.002  0.00  0.00    +0.075 C 
ATOM     18  C   UNL     1     -39.908  15.144  -2.939  0.00  0.00    -0.045 C 
ENDBRANCH  10  13
ENDBRANCH   7  10
ENDBRANCH   1   7
BRANCH   4  19
ATOM     19  N   UNL     1     -36.724  23.841   3.916  0.00  0.00    -0.313 N 
ATOM     20  H   UNL     1     -37.631  24.069   4.223  0.00  0.00    +0.152 HD
BRANCH  19  21
ATOM     21  C   UNL     1     -35.749  24.792   4.276  0.00  0.00    +0.048 C 
ATOM     22  C   UNL     1     -35.251  24.824   5.579  0.00  0.00    +0.016 C 
ATOM     23  C   UNL     1     -35.281  25.705   3.329  0.00  0.00    +0.016 C 
ATOM     24  C   UNL     1     -34.285  25.766   5.935  0.00  0.00    +0.025 C 
ATOM     25  C   UNL     1     -34.315  26.647   3.686  0.00  0.00    +0.025 C 
ATOM     26  C   UNL     1     -33.818  26.678   4.989  0.00  0.00    +0.143 C 
BRANCH  26  29
ATOM     27  O   UNL     1     -32.064  27.384   6.309  0.00  0.00    -0.126 OA
ATOM     28  O   UNL     1     -32.764  28.709   4.705  0.00  0.00    -0.126 OA
ATOM     29  N   UNL     1     -32.835  27.636   5.351  0.00  0.00    +0.058 N 
ENDBRANCH  26  29
ENDBRANCH  19  21
ENDBRANCH   4  19
TORSDOF 6
ENDMDL
MODEL 6
REMARK VINA RESULT:      -6.2      4.366      9.029
REMARK  Name = 5748404
REMARK  6 active torsions:
REMARK  status: ('A' for Active; 'I' for Inactive)
REMARK    1  A    between atoms: C_1  and  N_7
REMARK    2  A    between atoms: C_4  and  N_19
REMARK    3  A    between atoms: N_7  and  C_10
REMARK    4  A    between atoms: C_10  and  N_13
REMARK    5  A    between atoms: N_19  and  C_21
REMARK    6  A    between atoms: C_26  and  N_29
REMARK                            x       y       z     vdW  Elec       q    Type
REMARK                         _______ _______ _______ _____ _____    ______ ____
ROOT
ATOM      1  C   UNL     1     -36.533  20.248   1.768  0.00  0.00    +0.050 C 
ATOM      2  C   UNL     1     -37.630  21.076   1.599  0.00  0.00    +0.016 C 
ATOM      3  C   UNL     1     -35.499  20.582   2.626  0.00  0.00    +0.016 C 
ATOM      4  C   UNL     1     -36.662  22.627   3.180  0.00  0.00    +0.048 C 
ATOM      5  C   UNL     1     -37.695  22.275   2.311  0.00  0.00    +0.016 C 
ATOM      6  C   UNL     1     -35.564  21.781   3.338  0.00  0.00    +0.016 C 
ENDROOT
BRANCH   1   7
ATOM      7  N   UNL     1     -36.467  19.032   1.047  0.00  0.00    -0.296 N 
ATOM      8  H   UNL     1     -36.104  18.273   1.559  0.00  0.00    +0.154 HD
BRANCH   7  10
ATOM      9  S   UNL     1     -35.900  19.296  -1.523  0.00  0.00    -0.018 S 
ATOM     10  C   UNL     1     -36.822  18.727  -0.242  0.00  0.00    +0.138 C 
BRANCH  10  13
ATOM     11  O   UNL     1     -40.663  15.925  -0.869  0.00  0.00    -0.290 OA
ATOM     12  N   UNL     1     -39.636  16.031  -1.773  0.00  0.00    +0.431 N 
ATOM     13  N   UNL     1     -37.881  17.915  -0.478  0.00  0.00    -0.295 N 
ATOM     14  C   UNL     1     -39.506  17.464  -2.257  0.00  0.00    -0.006 C 
ATOM     15  C   UNL     1     -38.327  15.598  -1.138  0.00  0.00    -0.006 C 
ATOM     16  C   UNL     1     -39.087  18.403  -1.133  0.00  0.00    +0.075 C 
ATOM     17  C   UNL     1     -37.907  16.535  -0.014  0.00  0.00    +0.075 C 
ATOM     18  C   UNL     1     -39.946  15.135  -2.940  0.00  0.00    -0.045 C 
ENDBRANCH  10  13
ENDBRANCH   7  10
ENDBRANCH   1   7
BRANCH   4  19
ATOM     19  N   UNL     1     -36.728  23.838   3.900  0.00  0.00    -0.313 N 
ATOM     20  H   UNL     1     -37.636  24.069   4.201  0.00  0.00    +0.152 HD
BRANCH  19  21
ATOM     21  C   UNL     1     -35.751  24.780   4.272  0.00  0.00    +0.048 C 
ATOM     22  C   UNL     1     -35.242  25.670   3.326  0.00  0.00    +0.016 C 
ATOM     23  C   UNL     1     -35.288  24.825   5.589  0.00  0.00    +0.016 C 
ATOM     24  C   UNL     1     -34.272  26.604   3.694  0.00  0.00    +0.025 C 
ATOM     25  C   UNL     1     -34.319  25.760   5.957  0.00  0.00    +0.025 C 
ATOM     26  C   UNL     1     -33.811  26.649   5.010  0.00  0.00    +0.143 C 
BRANCH  26  29
ATOM     27  O   UNL     1     -32.753  28.681   4.753  0.00  0.00    -0.126 OA
ATOM     28  O   UNL     1     -32.053  27.332   6.337  0.00  0.00    -0.126 OA
ATOM     29  N   UNL     1     -32.825  27.599   5.385  0.00  0.00    +0.058 N 
ENDBRANCH  26  29
ENDBRANCH  19  21
ENDBRANCH   4  19
TORSDOF 6
ENDMDL
MODEL 7
REMARK VINA RESULT:      -6.2      4.565      9.221
REMARK  Name = 5748404
REMARK  6 active torsions:
REMARK  status: ('A' for Active; 'I' for Inactive)
REMARK    1  A    between atoms: C_1  and  N_7
REMARK    2  A    between atoms: C_4  and  N_19
REMARK    3  A    between atoms: N_7  and  C_10
REMARK    4  A    between atoms: C_10  and  N_13
REMARK    5  A    between atoms: N_19  and  C_21
REMARK    6  A    between atoms: C_26  and  N_29
REMARK                            x       y       z     vdW  Elec       q    Type
REMARK                         _______ _______ _______ _____ _____    ______ ____
ROOT
ATOM      1  C   UNL     1     -35.219  19.080  -0.207  0.00  0.00    +0.050 C 
ATOM      2  C   UNL     1     -34.172  19.203   0.691  0.00  0.00    +0.016 C 
ATOM      3  C   UNL     1     -36.477  19.585   0.076  0.00  0.00    +0.016 C 
ATOM      4  C   UNL     1     -35.651  20.366   2.208  0.00  0.00    +0.048 C 
ATOM      5  C   UNL     1     -34.389  19.851   1.907  0.00  0.00    +0.016 C 
ATOM      6  C   UNL     1     -36.694  20.233   1.292  0.00  0.00    +0.016 C 
ENDROOT
BRANCH   1   7
ATOM      7  N   UNL     1     -34.999  18.423  -1.441  0.00  0.00    -0.296 N 
ATOM      8  H   UNL     1     -34.914  19.027  -2.215  0.00  0.00    +0.154 HD
BRANCH   7  10
ATOM      9  S   UNL     1     -33.403  16.470  -2.237  0.00  0.00    -0.018 S 
ATOM     10  C   UNL     1     -34.882  17.092  -1.747  0.00  0.00    +0.138 C 
BRANCH  10  13
ATOM     11  O   UNL     1     -38.501  13.988  -1.232  0.00  0.00    -0.290 OA
ATOM     12  N   UNL     1     -38.648  15.351  -1.182  0.00  0.00    +0.431 N 
ATOM     13  N   UNL     1     -35.946  16.267  -1.594  0.00  0.00    -0.295 N 
ATOM     14  C   UNL     1     -37.819  15.930  -0.049  0.00  0.00    -0.006 C 
ATOM     15  C   UNL     1     -38.207  15.978  -2.493  0.00  0.00    -0.006 C 
ATOM     16  C   UNL     1     -36.327  15.743  -0.289  0.00  0.00    +0.075 C 
ATOM     17  C   UNL     1     -36.716  15.791  -2.735  0.00  0.00    +0.075 C 
ATOM     18  C   UNL     1     -40.101  15.656  -0.945  0.00  0.00    -0.045 C 
ENDBRANCH  10  13
ENDBRANCH   7  10
ENDBRANCH   1   7
BRANCH   4  19
ATOM     19  N   UNL     1     -35.870  21.023   3.436  0.00  0.00    -0.313 N 
ATOM     20  H   UNL     1     -36.350  20.475   4.098  0.00  0.00    +0.152 HD
BRANCH  19  21
ATOM     21  C   UNL     1     -35.536  22.309   3.902  0.00  0.00    +0.048 C 
ATOM     22  C   UNL     1     -35.242  23.326   2.994  0.00  0.00    +0.016 C 
ATOM     23  C   UNL     1     -35.499  22.568   5.273  0.00  0.00    +0.016 C 
ATOM     24  C   UNL     1     -34.911  24.601   3.455  0.00  0.00    +0.025 C 
ATOM     25  C   UNL     1     -35.168  23.844   5.735  0.00  0.00    +0.025 C 
ATOM     26  C   UNL     1     -34.874  24.860   4.826  0.00  0.00    +0.143 C 
BRANCH  26  29
ATOM     27  O   UNL     1     -34.922  27.158   4.643  0.00  0.00    -0.126 OA
ATOM     28  O   UNL     1     -33.865  26.267   6.348  0.00  0.00    -0.126 OA
ATOM     29  N   UNL     1     -34.538  26.156   5.295  0.00  0.00    +0.058 N 
ENDBRANCH  26  29
ENDBRANCH  19  21
ENDBRANCH   4  19
TORSDOF 6
ENDMDL
MODEL 8
REMARK VINA RESULT:      -6.2      1.869      2.992
REMARK  Name = 5748404
REMARK  6 active torsions:
REMARK  status: ('A' for Active; 'I' for Inactive)
REMARK    1  A    between atoms: C_1  and  N_7
REMARK    2  A    between atoms: C_4  and  N_19
REMARK    3  A    between atoms: N_7  and  C_10
REMARK    4  A    between atoms: C_10  and  N_13
REMARK    5  A    between atoms: N_19  and  C_21
REMARK    6  A    between atoms: C_26  and  N_29
REMARK                            x       y       z     vdW  Elec       q    Type
REMARK                         _______ _______ _______ _____ _____    ______ ____
ROOT
ATOM      1  C   UNL     1     -36.654  22.770   3.474  0.00  0.00    +0.050 C 
ATOM      2  C   UNL     1     -37.070  22.409   2.203  0.00  0.00    +0.016 C 
ATOM      3  C   UNL     1     -35.636  22.090   4.121  0.00  0.00    +0.016 C 
ATOM      4  C   UNL     1     -35.422  20.642   2.199  0.00  0.00    +0.048 C 
ATOM      5  C   UNL     1     -36.450  21.338   1.561  0.00  0.00    +0.016 C 
ATOM      6  C   UNL     1     -35.016  21.018   3.479  0.00  0.00    +0.016 C 
ENDROOT
BRANCH   1   7
ATOM      7  N   UNL     1     -37.283  23.858   4.126  0.00  0.00    -0.296 N 
ATOM      8  H   UNL     1     -38.028  23.603   4.716  0.00  0.00    +0.154 HD
BRANCH   7  10
ATOM      9  S   UNL     1     -36.046  25.918   5.232  0.00  0.00    -0.018 S 
ATOM     10  C   UNL     1     -37.034  25.205   4.077  0.00  0.00    +0.138 C 
BRANCH  10  13
ATOM     11  O   UNL     1     -38.834  28.022   0.639  0.00  0.00    -0.290 OA
ATOM     12  N   UNL     1     -38.441  26.723   0.438  0.00  0.00    +0.431 N 
ATOM     13  N   UNL     1     -37.536  25.950   3.063  0.00  0.00    -0.295 N 
ATOM     14  C   UNL     1     -36.966  26.561   0.758  0.00  0.00    -0.006 C 
ATOM     15  C   UNL     1     -39.249  25.786   1.318  0.00  0.00    -0.006 C 
ATOM     16  C   UNL     1     -36.682  26.792   2.237  0.00  0.00    +0.075 C 
ATOM     17  C   UNL     1     -38.966  26.015   2.796  0.00  0.00    +0.075 C 
ATOM     18  C   UNL     1     -38.680  26.381  -1.007  0.00  0.00    -0.045 C 
ENDBRANCH  10  13
ENDBRANCH   7  10
ENDBRANCH   1   7
BRANCH   4  19
ATOM     19  N   UNL     1     -34.794  19.559   1.549  0.00  0.00    -0.313 N 
ATOM     20  H   UNL     1     -35.397  18.804   1.366  0.00  0.00    +0.152 HD
BRANCH  19  21
ATOM     21  C   UNL     1     -33.473  19.348   1.112  0.00  0.00    +0.048 C 
ATOM     22  C   UNL     1     -32.807  18.168   1.446  0.00  0.00    +0.016 C 
ATOM     23  C   UNL     1     -32.826  20.318   0.345  0.00  0.00    +0.016 C 
ATOM     24  C   UNL     1     -31.497  17.957   1.013  0.00  0.00    +0.025 C 
ATOM     25  C   UNL     1     -31.516  20.108  -0.088  0.00  0.00    +0.025 C 
ATOM     26  C   UNL     1     -30.851  18.928   0.246  0.00  0.00    +0.143 C 
BRANCH  26  29
ATOM     27  O   UNL     1     -28.716  19.679  -0.194  0.00  0.00    -0.126 OA
ATOM     28  O   UNL     1     -29.180  17.568  -0.574  0.00  0.00    -0.126 OA
ATOM     29  N   UNL     1     -29.519  18.714  -0.195  0.00  0.00    +0.058 N 
ENDBRANCH  26  29
ENDBRANCH  19  21
ENDBRANCH   4  19
TORSDOF 6
ENDMDL
MODEL 9
REMARK VINA RESULT:      -6.2      2.742      8.300
REMARK  Name = 5748404
REMARK  6 active torsions:
REMARK  status: ('A' for Active; 'I' for Inactive)
REMARK    1  A    between atoms: C_1  and  N_7
REMARK    2  A    between atoms: C_4  and  N_19
REMARK    3  A    between atoms: N_7  and  C_10
REMARK    4  A    between atoms: C_10  and  N_13
REMARK    5  A    between atoms: N_19  and  C_21
REMARK    6  A    between atoms: C_26  and  N_29
REMARK                            x       y       z     vdW  Elec       q    Type
REMARK                         _______ _______ _______ _____ _____    ______ ____
ROOT
ATOM      1  C   UNL     1     -35.528  21.939   3.872  0.00  0.00    +0.050 C 
ATOM      2  C   UNL     1     -35.322  23.087   3.124  0.00  0.00    +0.016 C 
ATOM      3  C   UNL     1     -35.455  21.954   5.254  0.00  0.00    +0.016 C 
ATOM      4  C   UNL     1     -34.961  24.318   5.172  0.00  0.00    +0.048 C 
ATOM      5  C   UNL     1     -35.037  24.285   3.780  0.00  0.00    +0.016 C 
ATOM      6  C   UNL     1     -35.170  23.153   5.909  0.00  0.00    +0.016 C 
ENDROOT
BRANCH   1   7
ATOM      7  N   UNL     1     -35.818  20.724   3.208  0.00  0.00    -0.296 N 
ATOM      8  H   UNL     1     -35.765  19.924   3.780  0.00  0.00    +0.154 HD
BRANCH   7  10
ATOM      9  S   UNL     1     -37.634  20.998   1.304  0.00  0.00    -0.018 S 
ATOM     10  C   UNL     1     -36.160  20.466   1.905  0.00  0.00    +0.138 C 
BRANCH  10  13
ATOM     11  O   UNL     1     -33.029  18.437  -1.107  0.00  0.00    -0.290 OA
ATOM     12  N   UNL     1     -33.633  17.774  -0.069  0.00  0.00    +0.431 N 
ATOM     13  N   UNL     1     -35.283  19.835   1.088  0.00  0.00    -0.295 N 
ATOM     14  C   UNL     1     -33.280  18.431   1.253  0.00  0.00    -0.006 C 
ATOM     15  C   UNL     1     -35.141  17.782  -0.243  0.00  0.00    -0.006 C 
ATOM     16  C   UNL     1     -33.851  19.840   1.353  0.00  0.00    +0.075 C 
ATOM     17  C   UNL     1     -35.713  19.190  -0.145  0.00  0.00    +0.075 C 
ATOM     18  C   UNL     1     -33.138  16.355  -0.069  0.00  0.00    -0.045 C 
ENDBRANCH  10  13
ENDBRANCH   7  10
ENDBRANCH   1   7
BRANCH   4  19
ATOM     19  N   UNL     1     -34.674  25.530   5.834  0.00  0.00    -0.313 N 
ATOM     20  H   UNL     1     -35.276  25.721   6.588  0.00  0.00    +0.152 HD
BRANCH  19  21
ATOM     21  C   UNL     1     -33.695  26.520   5.627  0.00  0.00    +0.048 C 
ATOM     22  C   UNL     1     -33.459  27.011   4.342  0.00  0.00    +0.016 C 
ATOM     23  C   UNL     1     -32.958  27.012   6.705  0.00  0.00    +0.016 C 
ATOM     24  C   UNL     1     -32.489  27.993   4.136  0.00  0.00    +0.025 C 
ATOM     25  C   UNL     1     -31.987  27.994   6.499  0.00  0.00    +0.025 C 
ATOM     26  C   UNL     1     -31.752  28.484   5.215  0.00  0.00    +0.143 C 
BRANCH  26  29
ATOM     27  O   UNL     1     -30.852  30.220   3.993  0.00  0.00    -0.126 OA
ATOM     28  O   UNL     1     -29.834  29.601   5.837  0.00  0.00    -0.126 OA
ATOM     29  N   UNL     1     -30.765  29.483   5.006  0.00  0.00    +0.058 N 
ENDBRANCH  26  29
ENDBRANCH  19  21
ENDBRANCH   4  19
TORSDOF 6
ENDMDL
