MODEL 1
REMARK VINA RESULT:      -5.2      0.000      0.000
REMARK  Name = 57357211
REMARK  7 active torsions:
REMARK  status: ('A' for Active; 'I' for Inactive)
REMARK    1  A    between atoms: N_2  and  C_18
REMARK    2  A    between atoms: N_3  and  C_11
REMARK    3  A    between atoms: N_4  and  C_7
REMARK    4  A    between atoms: N_4  and  O_16
REMARK    5  A    between atoms: C_5  and  O_8
REMARK    6  A    between atoms: C_11  and  C_12
REMARK    7  A    between atoms: C_18  and  C_21
REMARK                            x       y       z     vdW  Elec       q    Type
REMARK                         _______ _______ _______ _____ _____    ______ ____
ROOT
ATOM      1  S   UNL     1     -37.998  23.951   2.768  0.00  0.00    -0.059 S 
ATOM      2  N   UNL     1     -36.496  22.105   1.697  0.00  0.00    -0.258 N 
ATOM      3  N   UNL     1     -35.366  24.031   2.606  0.00  0.00    -0.159 NA
ATOM      4  C   UNL     1     -37.827  21.581   1.440  0.00  0.00    +0.224 C 
ATOM      5  C   UNL     1     -36.408  23.330   2.322  0.00  0.00    +0.154 C 
ATOM      6  C   UNL     1     -38.780  22.541   2.094  0.00  0.00    +0.203 C 
ENDROOT
BRANCH   4   7
ATOM      7  O   UNL     1     -38.127  21.545   0.057  0.00  0.00    -0.333 OA
ATOM      8  C   UNL     1     -38.317  20.214  -0.407  0.00  0.00    +0.176 C 
ENDBRANCH   4   7
BRANCH   3  10
ATOM      9  O   UNL     1     -36.067  26.243   2.744  0.00  0.00    -0.273 OA
ATOM     10  C   UNL     1     -35.557  25.242   3.246  0.00  0.00    +0.246 C 
BRANCH  10  11
ATOM     11  C   UNL     1     -35.061  25.243   4.707  0.00  0.00    +0.071 C 
ATOM     12  C   UNL     1     -36.143  25.827   5.629  0.00  0.00    +0.009 C 
ATOM     13  C   UNL     1     -34.759  23.803   5.144  0.00  0.00    +0.009 C 
ATOM     14  C   UNL     1     -33.795  26.106   4.817  0.00  0.00    +0.009 C 
ENDBRANCH  10  11
ENDBRANCH   3  10
BRANCH   6  15
ATOM     15  N   UNL     1     -40.053  22.357   2.161  0.00  0.00    -0.073 NA
BRANCH  15  16
ATOM     16  O   UNL     1     -40.299  20.983   2.220  0.00  0.00    -0.294 OA
ATOM     17  H   UNL     1     -41.163  20.654   2.071  0.00  0.00    +0.238 HD
ENDBRANCH  15  16
ENDBRANCH   6  15
BRANCH   2  18
ATOM     18  C   UNL     1     -35.348  21.377   1.196  0.00  0.00    +0.180 C 
BRANCH  18  21
ATOM     19  O   UNL     1     -35.148  20.353   3.383  0.00  0.00    -0.273 OA
ATOM     20  N   UNL     1     -34.393  19.204   1.541  0.00  0.00    -0.327 N 
ATOM     21  C   UNL     1     -34.968  20.287   2.170  0.00  0.00    +0.240 C 
ATOM     22  H   UNL     1     -34.101  18.426   2.069  0.00  0.00    +0.145 HD
ATOM     23  H   UNL     1     -34.274  19.208   0.564  0.00  0.00    +0.145 HD
ENDBRANCH  18  21
ENDBRANCH   2  18
TORSDOF 7
ENDMDL
MODEL 2
REMARK VINA RESULT:      -5.2      2.053      3.557
REMARK  Name = 57357211
REMARK  7 active torsions:
REMARK  status: ('A' for Active; 'I' for Inactive)
REMARK    1  A    between atoms: N_2  and  C_18
REMARK    2  A    between atoms: N_3  and  C_11
REMARK    3  A    between atoms: N_4  and  C_7
REMARK    4  A    between atoms: N_4  and  O_16
REMARK    5  A    between atoms: C_5  and  O_8
REMARK    6  A    between atoms: C_11  and  C_12
REMARK    7  A    between atoms: C_18  and  C_21
REMARK                            x       y       z     vdW  Elec       q    Type
REMARK                         _______ _______ _______ _____ _____    ______ ____
ROOT
ATOM      1  S   UNL     1     -35.310  22.639   2.642  0.00  0.00    -0.059 S 
ATOM      2  N   UNL     1     -37.526  23.746   1.819  0.00  0.00    -0.258 N 
ATOM      3  N   UNL     1     -35.982  25.163   3.012  0.00  0.00    -0.159 NA
ATOM      4  C   UNL     1     -37.725  22.363   1.417  0.00  0.00    +0.224 C 
ATOM      5  C   UNL     1     -36.366  24.045   2.500  0.00  0.00    +0.154 C 
ATOM      6  C   UNL     1     -36.456  21.643   1.778  0.00  0.00    +0.203 C 
ENDROOT
BRANCH   4   7
ATOM      7  O   UNL     1     -38.788  21.751   2.123  0.00  0.00    -0.333 OA
ATOM      8  C   UNL     1     -39.824  21.319   1.248  0.00  0.00    +0.176 C 
ENDBRANCH   4   7
BRANCH   3  10
ATOM      9  O   UNL     1     -33.660  25.151   3.096  0.00  0.00    -0.273 OA
ATOM     10  C   UNL     1     -34.757  25.194   3.651  0.00  0.00    +0.246 C 
BRANCH  10  11
ATOM     11  C   UNL     1     -34.875  25.294   5.186  0.00  0.00    +0.071 C 
ATOM     12  C   UNL     1     -36.236  25.898   5.571  0.00  0.00    +0.009 C 
ATOM     13  C   UNL     1     -34.761  23.892   5.800  0.00  0.00    +0.009 C 
ATOM     14  C   UNL     1     -33.759  26.200   5.728  0.00  0.00    +0.009 C 
ENDBRANCH  10  11
ENDBRANCH   3  10
BRANCH   6  15
ATOM     15  N   UNL     1     -36.221  20.411   1.485  0.00  0.00    -0.073 NA
BRANCH  15  16
ATOM     16  O   UNL     1     -36.806  19.604   2.465  0.00  0.00    -0.294 OA
ATOM     17  H   UNL     1     -36.544  19.689   3.359  0.00  0.00    +0.238 HD
ENDBRANCH  15  16
ENDBRANCH   6  15
BRANCH   2  18
ATOM     18  C   UNL     1     -38.587  24.704   1.583  0.00  0.00    +0.180 C 
BRANCH  18  21
ATOM     19  O   UNL     1     -39.946  24.370   3.560  0.00  0.00    -0.273 OA
ATOM     20  N   UNL     1     -38.885  26.387   3.265  0.00  0.00    -0.327 N 
ATOM     21  C   UNL     1     -39.219  25.102   2.895  0.00  0.00    +0.240 C 
ATOM     22  H   UNL     1     -39.235  26.765   4.104  0.00  0.00    +0.145 HD
ATOM     23  H   UNL     1     -38.296  26.928   2.690  0.00  0.00    +0.145 HD
ENDBRANCH  18  21
ENDBRANCH   2  18
TORSDOF 7
ENDMDL
MODEL 3
REMARK VINA RESULT:      -5.1      2.172      3.886
REMARK  Name = 57357211
REMARK  7 active torsions:
REMARK  status: ('A' for Active; 'I' for Inactive)
REMARK    1  A    between atoms: N_2  and  C_18
REMARK    2  A    between atoms: N_3  and  C_11
REMARK    3  A    between atoms: N_4  and  C_7
REMARK    4  A    between atoms: N_4  and  O_16
REMARK    5  A    between atoms: C_5  and  O_8
REMARK    6  A    between atoms: C_11  and  C_12
REMARK    7  A    between atoms: C_18  and  C_21
REMARK                            x       y       z     vdW  Elec       q    Type
REMARK                         _______ _______ _______ _____ _____    ______ ____
ROOT
ATOM      1  S   UNL     1     -35.982  22.421   3.358  0.00  0.00    -0.059 S 
ATOM      2  N   UNL     1     -38.197  23.599   2.638  0.00  0.00    -0.258 N 
ATOM      3  N   UNL     1     -36.916  24.667   4.380  0.00  0.00    -0.159 NA
ATOM      4  C   UNL     1     -38.227  22.398   1.820  0.00  0.00    +0.224 C 
ATOM      5  C   UNL     1     -37.143  23.740   3.514  0.00  0.00    +0.154 C 
ATOM      6  C   UNL     1     -36.940  21.676   2.102  0.00  0.00    +0.203 C 
ENDROOT
BRANCH   4   7
ATOM      7  O   UNL     1     -39.295  21.539   2.175  0.00  0.00    -0.333 OA
ATOM      8  C   UNL     1     -40.110  21.219   1.053  0.00  0.00    +0.176 C 
ENDBRANCH   4   7
BRANCH   3  10
ATOM      9  O   UNL     1     -35.565  23.735   6.025  0.00  0.00    -0.273 OA
ATOM     10  C   UNL     1     -35.769  24.570   5.145  0.00  0.00    +0.246 C 
BRANCH  10  11
ATOM     11  C   UNL     1     -34.712  25.637   4.793  0.00  0.00    +0.071 C 
ATOM     12  C   UNL     1     -33.626  25.025   3.893  0.00  0.00    +0.009 C 
ATOM     13  C   UNL     1     -35.385  26.795   4.042  0.00  0.00    +0.009 C 
ATOM     14  C   UNL     1     -34.056  26.154   6.082  0.00  0.00    +0.009 C 
ENDBRANCH  10  11
ENDBRANCH   3  10
BRANCH   6  15
ATOM     15  N   UNL     1     -36.565  20.609   1.485  0.00  0.00    -0.073 NA
BRANCH  15  16
ATOM     16  O   UNL     1     -36.881  19.504   2.280  0.00  0.00    -0.294 OA
ATOM     17  H   UNL     1     -36.899  18.646   1.905  0.00  0.00    +0.238 HD
ENDBRANCH  15  16
ENDBRANCH   6  15
BRANCH   2  18
ATOM     18  C   UNL     1     -39.312  24.522   2.571  0.00  0.00    +0.180 C 
BRANCH  18  21
ATOM     19  O   UNL     1     -38.424  26.715   2.050  0.00  0.00    -0.273 OA
ATOM     20  N   UNL     1     -39.322  25.445   0.357  0.00  0.00    -0.327 N 
ATOM     21  C   UNL     1     -38.964  25.681   1.667  0.00  0.00    +0.240 C 
ATOM     22  H   UNL     1     -39.147  26.127  -0.331  0.00  0.00    +0.145 HD
ATOM     23  H   UNL     1     -39.753  24.596   0.109  0.00  0.00    +0.145 HD
ENDBRANCH  18  21
ENDBRANCH   2  18
TORSDOF 7
ENDMDL
MODEL 4
REMARK VINA RESULT:      -5.0      1.986      4.813
REMARK  Name = 57357211
REMARK  7 active torsions:
REMARK  status: ('A' for Active; 'I' for Inactive)
REMARK    1  A    between atoms: N_2  and  C_18
REMARK    2  A    between atoms: N_3  and  C_11
REMARK    3  A    between atoms: N_4  and  C_7
REMARK    4  A    between atoms: N_4  and  O_16
REMARK    5  A    between atoms: C_5  and  O_8
REMARK    6  A    between atoms: C_11  and  C_12
REMARK    7  A    between atoms: C_18  and  C_21
REMARK                            x       y       z     vdW  Elec       q    Type
REMARK                         _______ _______ _______ _____ _____    ______ ____
ROOT
ATOM      1  S   UNL     1     -37.620  21.371   1.741  0.00  0.00    -0.059 S 
ATOM      2  N   UNL     1     -37.032  23.867   2.229  0.00  0.00    -0.258 N 
ATOM      3  N   UNL     1     -35.185  22.324   2.093  0.00  0.00    -0.159 NA
ATOM      4  C   UNL     1     -38.485  23.909   2.208  0.00  0.00    +0.224 C 
ATOM      5  C   UNL     1     -36.434  22.638   2.057  0.00  0.00    +0.154 C 
ATOM      6  C   UNL     1     -38.932  22.519   1.852  0.00  0.00    +0.203 C 
ENDROOT
BRANCH   4   7
ATOM      7  O   UNL     1     -39.027  24.229   3.476  0.00  0.00    -0.333 OA
ATOM      8  C   UNL     1     -40.052  25.210   3.380  0.00  0.00    +0.176 C 
ENDBRANCH   4   7
BRANCH   3  10
ATOM      9  O   UNL     1     -35.108  20.067   2.642  0.00  0.00    -0.273 OA
ATOM     10  C   UNL     1     -34.846  21.000   1.884  0.00  0.00    +0.246 C 
BRANCH  10  11
ATOM     11  C   UNL     1     -34.079  20.769   0.566  0.00  0.00    +0.071 C 
ATOM     12  C   UNL     1     -32.932  19.770   0.792  0.00  0.00    +0.009 C 
ATOM     13  C   UNL     1     -35.036  20.196  -0.489  0.00  0.00    +0.009 C 
ATOM     14  C   UNL     1     -33.489  22.100   0.076  0.00  0.00    +0.009 C 
ENDBRANCH  10  11
ENDBRANCH   3  10
BRANCH   6  15
ATOM     15  N   UNL     1     -40.160  22.191   1.645  0.00  0.00    -0.073 NA
BRANCH  15  16
ATOM     16  O   UNL     1     -40.397  20.957   2.258  0.00  0.00    -0.294 OA
ATOM     17  H   UNL     1     -41.186  20.819   2.742  0.00  0.00    +0.238 HD
ENDBRANCH  15  16
ENDBRANCH   6  15
BRANCH   2  18
ATOM     18  C   UNL     1     -36.300  25.080   2.531  0.00  0.00    +0.180 C 
BRANCH  18  21
ATOM     19  O   UNL     1     -35.294  24.486   4.654  0.00  0.00    -0.273 OA
ATOM     20  N   UNL     1     -36.862  26.166   4.595  0.00  0.00    -0.327 N 
ATOM     21  C   UNL     1     -36.079  25.187   4.022  0.00  0.00    +0.240 C 
ATOM     22  H   UNL     1     -36.808  26.334   5.564  0.00  0.00    +0.145 HD
ATOM     23  H   UNL     1     -37.474  26.697   4.037  0.00  0.00    +0.145 HD
ENDBRANCH  18  21
ENDBRANCH   2  18
TORSDOF 7
ENDMDL
MODEL 5
REMARK VINA RESULT:      -5.0      2.148      5.489
REMARK  Name = 57357211
REMARK  7 active torsions:
REMARK  status: ('A' for Active; 'I' for Inactive)
REMARK    1  A    between atoms: N_2  and  C_18
REMARK    2  A    between atoms: N_3  and  C_11
REMARK    3  A    between atoms: N_4  and  C_7
REMARK    4  A    between atoms: N_4  and  O_16
REMARK    5  A    between atoms: C_5  and  O_8
REMARK    6  A    between atoms: C_11  and  C_12
REMARK    7  A    between atoms: C_18  and  C_21
REMARK                            x       y       z     vdW  Elec       q    Type
REMARK                         _______ _______ _______ _____ _____    ______ ____
ROOT
ATOM      1  S   UNL     1     -39.413  23.852   2.146  0.00  0.00    -0.059 S 
ATOM      2  N   UNL     1     -36.892  23.543   2.749  0.00  0.00    -0.258 N 
ATOM      3  N   UNL     1     -38.000  21.665   1.718  0.00  0.00    -0.159 NA
ATOM      4  C   UNL     1     -37.154  24.875   3.268  0.00  0.00    +0.224 C 
ATOM      5  C   UNL     1     -37.952  22.864   2.189  0.00  0.00    +0.154 C 
ATOM      6  C   UNL     1     -38.577  25.189   2.899  0.00  0.00    +0.203 C 
ENDROOT
BRANCH   4   7
ATOM      7  O   UNL     1     -37.050  24.926   4.679  0.00  0.00    -0.333 OA
ATOM      8  C   UNL     1     -36.097  25.894   5.104  0.00  0.00    +0.176 C 
ENDBRANCH   4   7
BRANCH   3  10
ATOM      9  O   UNL     1     -40.253  21.113   1.838  0.00  0.00    -0.273 OA
ATOM     10  C   UNL     1     -39.204  21.220   1.206  0.00  0.00    +0.246 C 
BRANCH  10  11
ATOM     11  C   UNL     1     -39.129  20.852  -0.291  0.00  0.00    +0.071 C 
ATOM     12  C   UNL     1     -40.546  20.726  -0.873  0.00  0.00    +0.009 C 
ATOM     13  C   UNL     1     -38.375  21.952  -1.050  0.00  0.00    +0.009 C 
ATOM     14  C   UNL     1     -38.404  19.507  -0.452  0.00  0.00    +0.009 C 
ENDBRANCH  10  11
ENDBRANCH   3  10
BRANCH   6  15
ATOM     15  N   UNL     1     -39.140  26.328   3.110  0.00  0.00    -0.073 NA
BRANCH  15  16
ATOM     16  O   UNL     1     -40.386  26.103   3.700  0.00  0.00    -0.294 OA
ATOM     17  H   UNL     1     -41.056  26.754   3.643  0.00  0.00    +0.238 HD
ENDBRANCH  15  16
ENDBRANCH   6  15
BRANCH   2  18
ATOM     18  C   UNL     1     -35.579  22.963   2.939  0.00  0.00    +0.180 C 
BRANCH  18  21
ATOM     19  O   UNL     1     -35.393  20.651   3.640  0.00  0.00    -0.273 OA
ATOM     20  N   UNL     1     -36.074  22.228   5.168  0.00  0.00    -0.327 N 
ATOM     21  C   UNL     1     -35.662  21.816   3.919  0.00  0.00    +0.240 C 
ATOM     22  H   UNL     1     -36.168  21.571   5.896  0.00  0.00    +0.145 HD
ATOM     23  H   UNL     1     -36.275  23.177   5.332  0.00  0.00    +0.145 HD
ENDBRANCH  18  21
ENDBRANCH   2  18
TORSDOF 7
ENDMDL
MODEL 6
REMARK VINA RESULT:      -4.9      3.668      7.482
REMARK  Name = 57357211
REMARK  7 active torsions:
REMARK  status: ('A' for Active; 'I' for Inactive)
REMARK    1  A    between atoms: N_2  and  C_18
REMARK    2  A    between atoms: N_3  and  C_11
REMARK    3  A    between atoms: N_4  and  C_7
REMARK    4  A    between atoms: N_4  and  O_16
REMARK    5  A    between atoms: C_5  and  O_8
REMARK    6  A    between atoms: C_11  and  C_12
REMARK    7  A    between atoms: C_18  and  C_21
REMARK                            x       y       z     vdW  Elec       q    Type
REMARK                         _______ _______ _______ _____ _____    ______ ____
ROOT
ATOM      1  S   UNL     1     -34.433  25.679   5.588  0.00  0.00    -0.059 S 
ATOM      2  N   UNL     1     -33.905  27.332   3.638  0.00  0.00    -0.258 N 
ATOM      3  N   UNL     1     -35.675  25.739   3.261  0.00  0.00    -0.159 NA
ATOM      4  C   UNL     1     -32.888  27.695   4.612  0.00  0.00    +0.224 C 
ATOM      5  C   UNL     1     -34.744  26.288   3.962  0.00  0.00    +0.154 C 
ATOM      6  C   UNL     1     -33.154  26.846   5.822  0.00  0.00    +0.203 C 
ENDROOT
BRANCH   4   7
ATOM      7  O   UNL     1     -31.582  27.399   4.152  0.00  0.00    -0.333 OA
ATOM      8  C   UNL     1     -30.775  28.568   4.068  0.00  0.00    +0.176 C 
ENDBRANCH   4   7
BRANCH   3  10
ATOM      9  O   UNL     1     -37.184  24.791   4.753  0.00  0.00    -0.273 OA
ATOM     10  C   UNL     1     -36.379  24.693   3.828  0.00  0.00    +0.246 C 
BRANCH  10  11
ATOM     11  C   UNL     1     -36.065  23.327   3.181  0.00  0.00    +0.071 C 
ATOM     12  C   UNL     1     -35.012  23.499   2.075  0.00  0.00    +0.009 C 
ATOM     13  C   UNL     1     -35.514  22.371   4.248  0.00  0.00    +0.009 C 
ATOM     14  C   UNL     1     -37.346  22.748   2.562  0.00  0.00    +0.009 C 
ENDBRANCH  10  11
ENDBRANCH   3  10
BRANCH   6  15
ATOM     15  N   UNL     1     -32.511  26.956   6.933  0.00  0.00    -0.073 NA
BRANCH  15  16
ATOM     16  O   UNL     1     -32.162  28.297   7.111  0.00  0.00    -0.294 OA
ATOM     17  H   UNL     1     -32.821  28.961   7.080  0.00  0.00    +0.238 HD
ENDBRANCH  15  16
ENDBRANCH   6  15
BRANCH   2  18
ATOM     18  C   UNL     1     -33.918  28.003   2.355  0.00  0.00    +0.180 C 
BRANCH  18  21
ATOM     19  O   UNL     1     -33.289  30.341   2.274  0.00  0.00    -0.273 OA
ATOM     20  N   UNL     1     -35.362  29.772   3.090  0.00  0.00    -0.327 N 
ATOM     21  C   UNL     1     -34.124  29.486   2.554  0.00  0.00    +0.240 C 
ATOM     22  H   UNL     1     -35.617  30.706   3.267  0.00  0.00    +0.145 HD
ATOM     23  H   UNL     1     -35.990  29.043   3.294  0.00  0.00    +0.145 HD
ENDBRANCH  18  21
ENDBRANCH   2  18
TORSDOF 7
ENDMDL
MODEL 7
REMARK VINA RESULT:      -4.9      2.609      3.673
REMARK  Name = 57357211
REMARK  7 active torsions:
REMARK  status: ('A' for Active; 'I' for Inactive)
REMARK    1  A    between atoms: N_2  and  C_18
REMARK    2  A    between atoms: N_3  and  C_11
REMARK    3  A    between atoms: N_4  and  C_7
REMARK    4  A    between atoms: N_4  and  O_16
REMARK    5  A    between atoms: C_5  and  O_8
REMARK    6  A    between atoms: C_11  and  C_12
REMARK    7  A    between atoms: C_18  and  C_21
REMARK                            x       y       z     vdW  Elec       q    Type
REMARK                         _______ _______ _______ _____ _____    ______ ____
ROOT
ATOM      1  S   UNL     1     -38.512  26.082   2.859  0.00  0.00    -0.059 S 
ATOM      2  N   UNL     1     -39.163  23.913   1.562  0.00  0.00    -0.258 N 
ATOM      3  N   UNL     1     -36.852  24.137   2.211  0.00  0.00    -0.159 NA
ATOM      4  C   UNL     1     -40.423  24.639   1.566  0.00  0.00    +0.224 C 
ATOM      5  C   UNL     1     -38.075  24.532   2.138  0.00  0.00    +0.154 C 
ATOM      6  C   UNL     1     -40.177  25.885   2.368  0.00  0.00    +0.203 C 
ENDROOT
BRANCH   4   7
ATOM      7  O   UNL     1     -40.816  25.030   0.263  0.00  0.00    -0.333 OA
ATOM      8  C   UNL     1     -42.123  24.567  -0.055  0.00  0.00    +0.176 C 
ENDBRANCH   4   7
BRANCH   3  10
ATOM      9  O   UNL     1     -35.538  26.041   2.431  0.00  0.00    -0.273 OA
ATOM     10  C   UNL     1     -35.944  24.959   2.852  0.00  0.00    +0.246 C 
BRANCH  10  11
ATOM     11  C   UNL     1     -35.458  24.391   4.202  0.00  0.00    +0.071 C 
ATOM     12  C   UNL     1     -35.741  22.882   4.271  0.00  0.00    +0.009 C 
ATOM     13  C   UNL     1     -33.946  24.620   4.338  0.00  0.00    +0.009 C 
ATOM     14  C   UNL     1     -36.203  25.090   5.350  0.00  0.00    +0.009 C 
ENDBRANCH  10  11
ENDBRANCH   3  10
BRANCH   6  15
ATOM     15  N   UNL     1     -41.094  26.737   2.672  0.00  0.00    -0.073 NA
BRANCH  15  16
ATOM     16  O   UNL     1     -40.990  27.031   4.034  0.00  0.00    -0.294 OA
ATOM     17  H   UNL     1     -41.582  26.640   4.645  0.00  0.00    +0.238 HD
ENDBRANCH  15  16
ENDBRANCH   6  15
BRANCH   2  18
ATOM     18  C   UNL     1     -39.089  22.642   0.870  0.00  0.00    +0.180 C 
BRANCH  18  21
ATOM     19  O   UNL     1     -40.400  21.120   2.224  0.00  0.00    -0.273 OA
ATOM     20  N   UNL     1     -38.107  20.969   2.281  0.00  0.00    -0.327 N 
ATOM     21  C   UNL     1     -39.298  21.513   1.851  0.00  0.00    +0.240 C 
ATOM     22  H   UNL     1     -38.110  20.223   2.923  0.00  0.00    +0.145 HD
ATOM     23  H   UNL     1     -37.253  21.326   1.945  0.00  0.00    +0.145 HD
ENDBRANCH  18  21
ENDBRANCH   2  18
TORSDOF 7
ENDMDL
MODEL 8
REMARK VINA RESULT:      -4.9      2.538      5.948
REMARK  Name = 57357211
REMARK  7 active torsions:
REMARK  status: ('A' for Active; 'I' for Inactive)
REMARK    1  A    between atoms: N_2  and  C_18
REMARK    2  A    between atoms: N_3  and  C_11
REMARK    3  A    between atoms: N_4  and  C_7
REMARK    4  A    between atoms: N_4  and  O_16
REMARK    5  A    between atoms: C_5  and  O_8
REMARK    6  A    between atoms: C_11  and  C_12
REMARK    7  A    between atoms: C_18  and  C_21
REMARK                            x       y       z     vdW  Elec       q    Type
REMARK                         _______ _______ _______ _____ _____    ______ ____
ROOT
ATOM      1  S   UNL     1     -35.561  21.537   3.368  0.00  0.00    -0.059 S 
ATOM      2  N   UNL     1     -35.314  24.081   2.842  0.00  0.00    -0.258 N 
ATOM      3  N   UNL     1     -35.244  22.573   0.962  0.00  0.00    -0.159 NA
ATOM      4  C   UNL     1     -35.378  24.089   4.294  0.00  0.00    +0.224 C 
ATOM      5  C   UNL     1     -35.345  22.855   2.215  0.00  0.00    +0.154 C 
ATOM      6  C   UNL     1     -35.603  22.661   4.704  0.00  0.00    +0.203 C 
ENDROOT
BRANCH   4   7
ATOM      7  O   UNL     1     -34.164  24.524   4.878  0.00  0.00    -0.333 OA
ATOM      8  C   UNL     1     -34.355  25.664   5.706  0.00  0.00    +0.176 C 
ENDBRANCH   4   7
BRANCH   3  10
ATOM      9  O   UNL     1     -36.301  20.522   0.681  0.00  0.00    -0.273 OA
ATOM     10  C   UNL     1     -35.307  21.242   0.592  0.00  0.00    +0.246 C 
BRANCH  10  11
ATOM     11  C   UNL     1     -33.975  20.703   0.031  0.00  0.00    +0.071 C 
ATOM     12  C   UNL     1     -34.217  20.004  -1.317  0.00  0.00    +0.009 C 
ATOM     13  C   UNL     1     -33.001  21.870  -0.181  0.00  0.00    +0.009 C 
ATOM     14  C   UNL     1     -33.377  19.688   1.017  0.00  0.00    +0.009 C 
ENDBRANCH  10  11
ENDBRANCH   3  10
BRANCH   6  15
ATOM     15  N   UNL     1     -35.808  22.287   5.919  0.00  0.00    -0.073 NA
BRANCH  15  16
ATOM     16  O   UNL     1     -35.535  20.920   6.013  0.00  0.00    -0.294 OA
ATOM     17  H   UNL     1     -35.941  20.319   5.421  0.00  0.00    +0.238 HD
ENDBRANCH  15  16
ENDBRANCH   6  15
BRANCH   2  18
ATOM     18  C   UNL     1     -35.117  25.334   2.142  0.00  0.00    +0.180 C 
BRANCH  18  21
ATOM     19  O   UNL     1     -37.455  25.970   2.192  0.00  0.00    -0.273 OA
ATOM     20  N   UNL     1     -35.876  27.469   2.930  0.00  0.00    -0.327 N 
ATOM     21  C   UNL     1     -36.281  26.259   2.410  0.00  0.00    +0.240 C 
ATOM     22  H   UNL     1     -36.543  28.159   3.149  0.00  0.00    +0.145 HD
ATOM     23  H   UNL     1     -34.919  27.643   3.084  0.00  0.00    +0.145 HD
ENDBRANCH  18  21
ENDBRANCH   2  18
TORSDOF 7
ENDMDL
MODEL 9
REMARK VINA RESULT:      -4.9      3.073      5.914
REMARK  Name = 57357211
REMARK  7 active torsions:
REMARK  status: ('A' for Active; 'I' for Inactive)
REMARK    1  A    between atoms: N_2  and  C_18
REMARK    2  A    between atoms: N_3  and  C_11
REMARK    3  A    between atoms: N_4  and  C_7
REMARK    4  A    between atoms: N_4  and  O_16
REMARK    5  A    between atoms: C_5  and  O_8
REMARK    6  A    between atoms: C_11  and  C_12
REMARK    7  A    between atoms: C_18  and  C_21
REMARK                            x       y       z     vdW  Elec       q    Type
REMARK                         _______ _______ _______ _____ _____    ______ ____
ROOT
ATOM      1  S   UNL     1     -36.772  26.613   2.630  0.00  0.00    -0.059 S 
ATOM      2  N   UNL     1     -35.959  24.985   4.501  0.00  0.00    -0.258 N 
ATOM      3  N   UNL     1     -38.200  24.655   3.675  0.00  0.00    -0.159 NA
ATOM      4  C   UNL     1     -34.820  25.880   4.379  0.00  0.00    +0.224 C 
ATOM      5  C   UNL     1     -37.058  25.250   3.713  0.00  0.00    +0.154 C 
ATOM      6  C   UNL     1     -35.155  26.822   3.257  0.00  0.00    +0.203 C 
ENDROOT
BRANCH   4   7
ATOM      7  O   UNL     1     -34.621  26.651   5.550  0.00  0.00    -0.333 OA
ATOM      8  C   UNL     1     -33.263  26.626   5.974  0.00  0.00    +0.176 C 
ENDBRANCH   4   7
BRANCH   3  10
ATOM      9  O   UNL     1     -39.664  26.241   2.813  0.00  0.00    -0.273 OA
ATOM     10  C   UNL     1     -39.143  25.127   2.781  0.00  0.00    +0.246 C 
BRANCH  10  11
ATOM     11  C   UNL     1     -39.509  24.102   1.687  0.00  0.00    +0.071 C 
ATOM     12  C   UNL     1     -39.340  22.673   2.227  0.00  0.00    +0.009 C 
ATOM     13  C   UNL     1     -40.972  24.305   1.266  0.00  0.00    +0.009 C 
ATOM     14  C   UNL     1     -38.580  24.290   0.478  0.00  0.00    +0.009 C 
ENDBRANCH  10  11
ENDBRANCH   3  10
BRANCH   6  15
ATOM     15  N   UNL     1     -34.340  27.705   2.792  0.00  0.00    -0.073 NA
BRANCH  15  16
ATOM     16  O   UNL     1     -34.532  28.898   3.494  0.00  0.00    -0.294 OA
ATOM     17  H   UNL     1     -34.629  28.884   4.425  0.00  0.00    +0.238 HD
ENDBRANCH  15  16
ENDBRANCH   6  15
BRANCH   2  18
ATOM     18  C   UNL     1     -35.924  23.939   5.503  0.00  0.00    +0.180 C 
BRANCH  18  21
ATOM     19  O   UNL     1     -35.316  22.486   3.662  0.00  0.00    -0.273 OA
ATOM     20  N   UNL     1     -35.543  21.586   5.765  0.00  0.00    -0.327 N 
ATOM     21  C   UNL     1     -35.564  22.623   4.857  0.00  0.00    +0.240 C 
ATOM     22  H   UNL     1     -35.321  20.674   5.466  0.00  0.00    +0.145 HD
ATOM     23  H   UNL     1     -35.751  21.756   6.712  0.00  0.00    +0.145 HD
ENDBRANCH  18  21
ENDBRANCH   2  18
TORSDOF 7
ENDMDL
