MODEL 1
REMARK VINA RESULT:      -5.9      0.000      0.000
REMARK  Name = 57350509
REMARK  9 active torsions:
REMARK  status: ('A' for Active; 'I' for Inactive)
REMARK    1  A    between atoms: C_2  and  O_16
REMARK    2  A    between atoms: C_3  and  C_8
REMARK    3  A    between atoms: N_7  and  C_8
REMARK    4  A    between atoms: N_7  and  N_9
REMARK    5  A    between atoms: N_9  and  C_12
REMARK    6  A    between atoms: C_12  and  N_13
REMARK    7  A    between atoms: O_16  and  C_18
REMARK    8  A    between atoms: C_18  and  O_19
REMARK    9  A    between atoms: O_19  and  C_20
REMARK                            x       y       z     vdW  Elec       q    Type
REMARK                         _______ _______ _______ _____ _____    ______ ____
ROOT
ATOM      1  N   UNL     1     -33.584  25.519   4.459  0.00  0.00    -0.243 NA
ATOM      2  C   UNL     1     -35.531  24.233   5.093  0.00  0.00    +0.171 C 
ATOM      3  C   UNL     1     -34.422  26.502   4.056  0.00  0.00    +0.079 C 
ATOM      4  C   UNL     1     -36.360  25.265   4.668  0.00  0.00    +0.041 C 
ATOM      5  C   UNL     1     -35.803  26.424   4.140  0.00  0.00    +0.019 C 
ATOM      6  C   UNL     1     -34.162  24.408   4.968  0.00  0.00    +0.136 C 
ENDROOT
BRANCH   3   7
ATOM      7  C   UNL     1     -33.787  27.689   3.512  0.00  0.00    +0.157 C 
BRANCH   7   8
ATOM      8  N   UNL     1     -33.185  28.571   4.261  0.00  0.00    -0.126 NA
BRANCH   8   9
ATOM      9  N   UNL     1     -32.120  28.097   4.951  0.00  0.00    -0.244 N 
ATOM     10  H   UNL     1     -31.397  27.631   4.470  0.00  0.00    +0.170 HD
BRANCH   9  12
ATOM     11  S   UNL     1     -31.374  29.635   6.991  0.00  0.00    -0.018 S 
ATOM     12  C   UNL     1     -32.033  28.256   6.312  0.00  0.00    +0.143 C 
BRANCH  12  13
ATOM     13  N   UNL     1     -32.511  27.234   7.087  0.00  0.00    -0.340 N 
ATOM     14  H   UNL     1     -32.120  26.333   7.010  0.00  0.00    +0.144 HD
ATOM     15  H   UNL     1     -33.245  27.399   7.722  0.00  0.00    +0.144 HD
ENDBRANCH  12  13
ENDBRANCH   9  12
ENDBRANCH   8   9
ENDBRANCH   7   8
ENDBRANCH   3   7
BRANCH   2  16
ATOM     16  O   UNL     1     -36.061  23.058   5.630  0.00  0.00    -0.392 OA
BRANCH  16  18
ATOM     17  O   UNL     1     -34.968  21.022   5.303  0.00  0.00    -0.202 OA
ATOM     18  C   UNL     1     -35.700  21.924   4.914  0.00  0.00    +0.521 C 
BRANCH  18  19
ATOM     19  O   UNL     1     -36.314  21.973   3.653  0.00  0.00    -0.393 OA
BRANCH  19  20
ATOM     20  C   UNL     1     -35.492  21.649   2.616  0.00  0.00    +0.152 C 
ATOM     21  C   UNL     1     -34.963  22.653   1.805  0.00  0.00    +0.038 C 
ATOM     22  C   UNL     1     -35.180  20.313   2.366  0.00  0.00    +0.038 C 
ATOM     23  C   UNL     1     -34.122  22.320   0.743  0.00  0.00    +0.003 C 
ATOM     24  C   UNL     1     -34.339  19.981   1.304  0.00  0.00    +0.003 C 
ATOM     25  C   UNL     1     -33.810  20.984   0.494  0.00  0.00    +0.000 C 
ENDBRANCH  19  20
ENDBRANCH  18  19
ENDBRANCH  16  18
ENDBRANCH   2  16
TORSDOF 9
ENDMDL
MODEL 2
REMARK VINA RESULT:      -5.9      4.291      7.724
REMARK  Name = 57350509
REMARK  9 active torsions:
REMARK  status: ('A' for Active; 'I' for Inactive)
REMARK    1  A    between atoms: C_2  and  O_16
REMARK    2  A    between atoms: C_3  and  C_8
REMARK    3  A    between atoms: N_7  and  C_8
REMARK    4  A    between atoms: N_7  and  N_9
REMARK    5  A    between atoms: N_9  and  C_12
REMARK    6  A    between atoms: C_12  and  N_13
REMARK    7  A    between atoms: O_16  and  C_18
REMARK    8  A    between atoms: C_18  and  O_19
REMARK    9  A    between atoms: O_19  and  C_20
REMARK                            x       y       z     vdW  Elec       q    Type
REMARK                         _______ _______ _______ _____ _____    ______ ____
ROOT
ATOM      1  N   UNL     1     -36.651  22.928   4.252  0.00  0.00    -0.243 NA
ATOM      2  C   UNL     1     -34.697  24.335   4.034  0.00  0.00    +0.171 C 
ATOM      3  C   UNL     1     -36.915  23.171   2.949  0.00  0.00    +0.079 C 
ATOM      4  C   UNL     1     -35.001  24.562   2.697  0.00  0.00    +0.041 C 
ATOM      5  C   UNL     1     -36.129  23.972   2.136  0.00  0.00    +0.019 C 
ATOM      6  C   UNL     1     -35.547  23.517   4.762  0.00  0.00    +0.136 C 
ENDROOT
BRANCH   3   7
ATOM      7  C   UNL     1     -38.104  22.532   2.415  0.00  0.00    +0.157 C 
BRANCH   7   8
ATOM      8  N   UNL     1     -38.108  21.299   1.986  0.00  0.00    -0.126 NA
BRANCH   8   9
ATOM      9  N   UNL     1     -37.104  20.528   2.467  0.00  0.00    -0.244 N 
ATOM     10  H   UNL     1     -36.948  20.485   3.439  0.00  0.00    +0.170 HD
BRANCH   9  12
ATOM     11  S   UNL     1     -34.658  20.097   1.512  0.00  0.00    -0.018 S 
ATOM     12  C   UNL     1     -36.301  19.806   1.620  0.00  0.00    +0.143 C 
BRANCH  12  13
ATOM     13  N   UNL     1     -36.907  18.835   0.869  0.00  0.00    -0.340 N 
ATOM     14  H   UNL     1     -37.833  18.566   1.067  0.00  0.00    +0.144 HD
ATOM     15  H   UNL     1     -36.418  18.407   0.130  0.00  0.00    +0.144 HD
ENDBRANCH  12  13
ENDBRANCH   9  12
ENDBRANCH   8   9
ENDBRANCH   7   8
ENDBRANCH   3   7
BRANCH   2  16
ATOM     16  O   UNL     1     -33.570  24.912   4.625  0.00  0.00    -0.392 OA
BRANCH  16  18
ATOM     17  O   UNL     1     -34.682  26.878   5.214  0.00  0.00    -0.202 OA
ATOM     18  C   UNL     1     -33.693  26.284   4.800  0.00  0.00    +0.521 C 
BRANCH  18  19
ATOM     19  O   UNL     1     -32.489  26.896   4.420  0.00  0.00    -0.393 OA
BRANCH  19  20
ATOM     20  C   UNL     1     -32.285  28.125   4.970  0.00  0.00    +0.152 C 
ATOM     21  C   UNL     1     -31.884  28.235   6.301  0.00  0.00    +0.038 C 
ATOM     22  C   UNL     1     -32.477  29.273   4.202  0.00  0.00    +0.038 C 
ATOM     23  C   UNL     1     -31.676  29.494   6.866  0.00  0.00    +0.003 C 
ATOM     24  C   UNL     1     -32.270  30.532   4.766  0.00  0.00    +0.003 C 
ATOM     25  C   UNL     1     -31.868  30.642   6.097  0.00  0.00    +0.000 C 
ENDBRANCH  19  20
ENDBRANCH  18  19
ENDBRANCH  16  18
ENDBRANCH   2  16
TORSDOF 9
ENDMDL
MODEL 3
REMARK VINA RESULT:      -5.9      2.310      3.332
REMARK  Name = 57350509
REMARK  9 active torsions:
REMARK  status: ('A' for Active; 'I' for Inactive)
REMARK    1  A    between atoms: C_2  and  O_16
REMARK    2  A    between atoms: C_3  and  C_8
REMARK    3  A    between atoms: N_7  and  C_8
REMARK    4  A    between atoms: N_7  and  N_9
REMARK    5  A    between atoms: N_9  and  C_12
REMARK    6  A    between atoms: C_12  and  N_13
REMARK    7  A    between atoms: O_16  and  C_18
REMARK    8  A    between atoms: C_18  and  O_19
REMARK    9  A    between atoms: O_19  and  C_20
REMARK                            x       y       z     vdW  Elec       q    Type
REMARK                         _______ _______ _______ _____ _____    ______ ____
ROOT
ATOM      1  N   UNL     1     -35.013  24.196   3.789  0.00  0.00    -0.243 NA
ATOM      2  C   UNL     1     -35.289  21.807   4.033  0.00  0.00    +0.171 C 
ATOM      3  C   UNL     1     -35.127  24.299   5.132  0.00  0.00    +0.079 C 
ATOM      4  C   UNL     1     -35.402  21.953   5.411  0.00  0.00    +0.041 C 
ATOM      5  C   UNL     1     -35.320  23.219   5.979  0.00  0.00    +0.019 C 
ATOM      6  C   UNL     1     -35.097  22.949   3.273  0.00  0.00    +0.136 C 
ENDROOT
BRANCH   3   7
ATOM      7  C   UNL     1     -35.035  25.644   5.672  0.00  0.00    +0.157 C 
BRANCH   7   8
ATOM      8  N   UNL     1     -34.516  26.637   5.002  0.00  0.00    -0.126 NA
BRANCH   8   9
ATOM      9  N   UNL     1     -35.376  27.267   4.166  0.00  0.00    -0.244 N 
ATOM     10  H   UNL     1     -36.345  27.200   4.325  0.00  0.00    +0.170 HD
BRANCH   9  12
ATOM     11  S   UNL     1     -33.927  27.318   1.935  0.00  0.00    -0.018 S 
ATOM     12  C   UNL     1     -34.914  27.998   3.099  0.00  0.00    +0.143 C 
BRANCH  12  13
ATOM     13  N   UNL     1     -35.301  29.310   3.034  0.00  0.00    -0.340 N 
ATOM     14  H   UNL     1     -34.633  30.026   3.136  0.00  0.00    +0.144 HD
ATOM     15  H   UNL     1     -36.247  29.538   2.884  0.00  0.00    +0.144 HD
ENDBRANCH  12  13
ENDBRANCH   9  12
ENDBRANCH   8   9
ENDBRANCH   7   8
ENDBRANCH   3   7
BRANCH   2  16
ATOM     16  O   UNL     1     -35.366  20.547   3.434  0.00  0.00    -0.392 OA
BRANCH  16  18
ATOM     17  O   UNL     1     -37.170  21.236   2.124  0.00  0.00    -0.202 OA
ATOM     18  C   UNL     1     -36.189  20.528   2.315  0.00  0.00    +0.521 C 
BRANCH  18  19
ATOM     19  O   UNL     1     -35.713  19.554   1.423  0.00  0.00    -0.393 OA
BRANCH  19  20
ATOM     20  C   UNL     1     -34.434  19.756   1.002  0.00  0.00    +0.152 C 
ATOM     21  C   UNL     1     -34.099  20.928   0.324  0.00  0.00    +0.038 C 
ATOM     22  C   UNL     1     -33.458  18.790   1.251  0.00  0.00    +0.038 C 
ATOM     23  C   UNL     1     -32.788  21.134  -0.107  0.00  0.00    +0.003 C 
ATOM     24  C   UNL     1     -32.148  18.996   0.820  0.00  0.00    +0.003 C 
ATOM     25  C   UNL     1     -31.813  20.168   0.142  0.00  0.00    +0.000 C 
ENDBRANCH  19  20
ENDBRANCH  18  19
ENDBRANCH  16  18
ENDBRANCH   2  16
TORSDOF 9
ENDMDL
MODEL 4
REMARK VINA RESULT:      -5.7      4.135      7.605
REMARK  Name = 57350509
REMARK  9 active torsions:
REMARK  status: ('A' for Active; 'I' for Inactive)
REMARK    1  A    between atoms: C_2  and  O_16
REMARK    2  A    between atoms: C_3  and  C_8
REMARK    3  A    between atoms: N_7  and  C_8
REMARK    4  A    between atoms: N_7  and  N_9
REMARK    5  A    between atoms: N_9  and  C_12
REMARK    6  A    between atoms: C_12  and  N_13
REMARK    7  A    between atoms: O_16  and  C_18
REMARK    8  A    between atoms: C_18  and  O_19
REMARK    9  A    between atoms: O_19  and  C_20
REMARK                            x       y       z     vdW  Elec       q    Type
REMARK                         _______ _______ _______ _____ _____    ______ ____
ROOT
ATOM      1  N   UNL     1     -35.109  23.054   2.941  0.00  0.00    -0.243 NA
ATOM      2  C   UNL     1     -34.724  24.121   5.075  0.00  0.00    +0.171 C 
ATOM      3  C   UNL     1     -35.368  21.909   3.612  0.00  0.00    +0.079 C 
ATOM      4  C   UNL     1     -34.997  22.926   5.731  0.00  0.00    +0.041 C 
ATOM      5  C   UNL     1     -35.327  21.794   4.992  0.00  0.00    +0.019 C 
ATOM      6  C   UNL     1     -34.793  24.133   3.692  0.00  0.00    +0.136 C 
ENDROOT
BRANCH   3   7
ATOM      7  C   UNL     1     -35.706  20.760   2.792  0.00  0.00    +0.157 C 
BRANCH   7   8
ATOM      8  N   UNL     1     -36.613  20.806   1.855  0.00  0.00    -0.126 NA
BRANCH   8   9
ATOM      9  N   UNL     1     -37.891  20.732   2.299  0.00  0.00    -0.244 N 
ATOM     10  H   UNL     1     -38.143  20.024   2.936  0.00  0.00    +0.170 HD
BRANCH   9  12
ATOM     11  S   UNL     1     -38.413  23.058   1.117  0.00  0.00    -0.018 S 
ATOM     12  C   UNL     1     -38.839  21.628   1.872  0.00  0.00    +0.143 C 
BRANCH  12  13
ATOM     13  N   UNL     1     -40.149  21.297   2.094  0.00  0.00    -0.340 N 
ATOM     14  H   UNL     1     -40.751  21.939   2.536  0.00  0.00    +0.144 HD
ATOM     15  H   UNL     1     -40.489  20.417   1.811  0.00  0.00    +0.144 HD
ENDBRANCH  12  13
ENDBRANCH   9  12
ENDBRANCH   8   9
ENDBRANCH   7   8
ENDBRANCH   3   7
BRANCH   2  16
ATOM     16  O   UNL     1     -34.392  25.274   5.791  0.00  0.00    -0.392 OA
BRANCH  16  18
ATOM     17  O   UNL     1     -35.191  27.070   4.532  0.00  0.00    -0.202 OA
ATOM     18  C   UNL     1     -34.271  26.397   4.981  0.00  0.00    +0.521 C 
BRANCH  18  19
ATOM     19  O   UNL     1     -32.909  26.644   4.755  0.00  0.00    -0.393 OA
BRANCH  19  20
ATOM     20  C   UNL     1     -32.488  27.876   5.154  0.00  0.00    +0.152 C 
ATOM     21  C   UNL     1     -32.436  28.926   4.237  0.00  0.00    +0.038 C 
ATOM     22  C   UNL     1     -32.110  28.087   6.480  0.00  0.00    +0.038 C 
ATOM     23  C   UNL     1     -32.004  30.189   4.647  0.00  0.00    +0.003 C 
ATOM     24  C   UNL     1     -31.678  29.349   6.889  0.00  0.00    +0.003 C 
ATOM     25  C   UNL     1     -31.626  30.399   5.973  0.00  0.00    +0.000 C 
ENDBRANCH  19  20
ENDBRANCH  18  19
ENDBRANCH  16  18
ENDBRANCH   2  16
TORSDOF 9
ENDMDL
MODEL 5
REMARK VINA RESULT:      -5.6      1.426      1.871
REMARK  Name = 57350509
REMARK  9 active torsions:
REMARK  status: ('A' for Active; 'I' for Inactive)
REMARK    1  A    between atoms: C_2  and  O_16
REMARK    2  A    between atoms: C_3  and  C_8
REMARK    3  A    between atoms: N_7  and  C_8
REMARK    4  A    between atoms: N_7  and  N_9
REMARK    5  A    between atoms: N_9  and  C_12
REMARK    6  A    between atoms: C_12  and  N_13
REMARK    7  A    between atoms: O_16  and  C_18
REMARK    8  A    between atoms: C_18  and  O_19
REMARK    9  A    between atoms: O_19  and  C_20
REMARK                            x       y       z     vdW  Elec       q    Type
REMARK                         _______ _______ _______ _____ _____    ______ ____
ROOT
ATOM      1  N   UNL     1     -33.888  25.235   3.551  0.00  0.00    -0.243 NA
ATOM      2  C   UNL     1     -35.646  23.602   3.840  0.00  0.00    +0.171 C 
ATOM      3  C   UNL     1     -34.182  25.701   4.786  0.00  0.00    +0.079 C 
ATOM      4  C   UNL     1     -35.919  24.108   5.105  0.00  0.00    +0.041 C 
ATOM      5  C   UNL     1     -35.177  25.178   5.595  0.00  0.00    +0.019 C 
ATOM      6  C   UNL     1     -34.629  24.195   3.109  0.00  0.00    +0.136 C 
ENDROOT
BRANCH   3   7
ATOM      7  C   UNL     1     -33.377  26.819   5.246  0.00  0.00    +0.157 C 
BRANCH   7   8
ATOM      8  N   UNL     1     -32.722  26.797   6.375  0.00  0.00    -0.126 NA
BRANCH   8   9
ATOM      9  N   UNL     1     -32.508  28.014   6.930  0.00  0.00    -0.244 N 
ATOM     10  H   UNL     1     -32.975  28.257   7.762  0.00  0.00    +0.170 HD
BRANCH   9  12
ATOM     11  S   UNL     1     -30.020  28.582   6.178  0.00  0.00    -0.018 S 
ATOM     12  C   UNL     1     -31.649  28.913   6.348  0.00  0.00    +0.143 C 
BRANCH  12  13
ATOM     13  N   UNL     1     -32.190  30.094   5.913  0.00  0.00    -0.340 N 
ATOM     14  H   UNL     1     -32.318  30.838   6.544  0.00  0.00    +0.144 HD
ATOM     15  H   UNL     1     -32.449  30.198   4.969  0.00  0.00    +0.144 HD
ENDBRANCH  12  13
ENDBRANCH   9  12
ENDBRANCH   8   9
ENDBRANCH   7   8
ENDBRANCH   3   7
BRANCH   2  16
ATOM     16  O   UNL     1     -36.373  22.527   3.322  0.00  0.00    -0.392 OA
BRANCH  16  18
ATOM     17  O   UNL     1     -35.047  20.882   4.313  0.00  0.00    -0.202 OA
ATOM     18  C   UNL     1     -35.669  21.329   3.358  0.00  0.00    +0.521 C 
BRANCH  18  19
ATOM     19  O   UNL     1     -35.784  20.703   2.108  0.00  0.00    -0.393 OA
BRANCH  19  20
ATOM     20  C   UNL     1     -34.601  20.533   1.455  0.00  0.00    +0.152 C 
ATOM     21  C   UNL     1     -34.090  21.559   0.660  0.00  0.00    +0.038 C 
ATOM     22  C   UNL     1     -33.900  19.334   1.583  0.00  0.00    +0.038 C 
ATOM     23  C   UNL     1     -32.877  21.385  -0.009  0.00  0.00    +0.003 C 
ATOM     24  C   UNL     1     -32.688  19.160   0.914  0.00  0.00    +0.003 C 
ATOM     25  C   UNL     1     -32.177  20.185   0.119  0.00  0.00    +0.000 C 
ENDBRANCH  19  20
ENDBRANCH  18  19
ENDBRANCH  16  18
ENDBRANCH   2  16
TORSDOF 9
ENDMDL
MODEL 6
REMARK VINA RESULT:      -5.6      2.079      2.934
REMARK  Name = 57350509
REMARK  9 active torsions:
REMARK  status: ('A' for Active; 'I' for Inactive)
REMARK    1  A    between atoms: C_2  and  O_16
REMARK    2  A    between atoms: C_3  and  C_8
REMARK    3  A    between atoms: N_7  and  C_8
REMARK    4  A    between atoms: N_7  and  N_9
REMARK    5  A    between atoms: N_9  and  C_12
REMARK    6  A    between atoms: C_12  and  N_13
REMARK    7  A    between atoms: O_16  and  C_18
REMARK    8  A    between atoms: C_18  and  O_19
REMARK    9  A    between atoms: O_19  and  C_20
REMARK                            x       y       z     vdW  Elec       q    Type
REMARK                         _______ _______ _______ _____ _____    ______ ____
ROOT
ATOM      1  N   UNL     1     -35.983  25.878   4.791  0.00  0.00    -0.243 NA
ATOM      2  C   UNL     1     -36.684  23.695   4.024  0.00  0.00    +0.171 C 
ATOM      3  C   UNL     1     -34.890  25.289   5.324  0.00  0.00    +0.079 C 
ATOM      4  C   UNL     1     -35.547  23.125   4.585  0.00  0.00    +0.041 C 
ATOM      5  C   UNL     1     -34.628  23.930   5.249  0.00  0.00    +0.019 C 
ATOM      6  C   UNL     1     -36.854  25.064   4.153  0.00  0.00    +0.136 C 
ENDROOT
BRANCH   3   7
ATOM      7  C   UNL     1     -33.964  26.176   6.005  0.00  0.00    +0.157 C 
BRANCH   7   8
ATOM      8  N   UNL     1     -33.382  27.180   5.408  0.00  0.00    -0.126 NA
BRANCH   8   9
ATOM      9  N   UNL     1     -33.420  27.133   4.055  0.00  0.00    -0.244 N 
ATOM     10  H   UNL     1     -33.173  26.300   3.591  0.00  0.00    +0.170 HD
BRANCH   9  12
ATOM     11  S   UNL     1     -32.681  29.137   2.468  0.00  0.00    -0.018 S 
ATOM     12  C   UNL     1     -33.796  28.231   3.321  0.00  0.00    +0.143 C 
BRANCH  12  13
ATOM     13  N   UNL     1     -35.128  28.548   3.321  0.00  0.00    -0.340 N 
ATOM     14  H   UNL     1     -35.800  27.852   3.507  0.00  0.00    +0.144 HD
ATOM     15  H   UNL     1     -35.415  29.471   3.134  0.00  0.00    +0.144 HD
ENDBRANCH  12  13
ENDBRANCH   9  12
ENDBRANCH   8   9
ENDBRANCH   7   8
ENDBRANCH   3   7
BRANCH   2  16
ATOM     16  O   UNL     1     -37.624  22.912   3.350  0.00  0.00    -0.392 OA
BRANCH  16  18
ATOM     17  O   UNL     1     -36.618  22.998   1.245  0.00  0.00    -0.202 OA
ATOM     18  C   UNL     1     -37.133  22.375   2.166  0.00  0.00    +0.521 C 
BRANCH  18  19
ATOM     19  O   UNL     1     -37.322  20.985   2.190  0.00  0.00    -0.393 OA
BRANCH  19  20
ATOM     20  C   UNL     1     -36.303  20.270   1.637  0.00  0.00    +0.152 C 
ATOM     21  C   UNL     1     -36.518  19.538   0.470  0.00  0.00    +0.038 C 
ATOM     22  C   UNL     1     -35.043  20.273   2.237  0.00  0.00    +0.038 C 
ATOM     23  C   UNL     1     -35.473  18.806  -0.097  0.00  0.00    +0.003 C 
ATOM     24  C   UNL     1     -34.000  19.541   1.671  0.00  0.00    +0.003 C 
ATOM     25  C   UNL     1     -34.215  18.809   0.504  0.00  0.00    +0.000 C 
ENDBRANCH  19  20
ENDBRANCH  18  19
ENDBRANCH  16  18
ENDBRANCH   2  16
TORSDOF 9
ENDMDL
MODEL 7
REMARK VINA RESULT:      -5.5      1.232      1.671
REMARK  Name = 57350509
REMARK  9 active torsions:
REMARK  status: ('A' for Active; 'I' for Inactive)
REMARK    1  A    between atoms: C_2  and  O_16
REMARK    2  A    between atoms: C_3  and  C_8
REMARK    3  A    between atoms: N_7  and  C_8
REMARK    4  A    between atoms: N_7  and  N_9
REMARK    5  A    between atoms: N_9  and  C_12
REMARK    6  A    between atoms: C_12  and  N_13
REMARK    7  A    between atoms: O_16  and  C_18
REMARK    8  A    between atoms: C_18  and  O_19
REMARK    9  A    between atoms: O_19  and  C_20
REMARK                            x       y       z     vdW  Elec       q    Type
REMARK                         _______ _______ _______ _____ _____    ______ ____
ROOT
ATOM      1  N   UNL     1     -33.394  26.827   5.399  0.00  0.00    -0.243 NA
ATOM      2  C   UNL     1     -35.350  25.441   5.089  0.00  0.00    +0.171 C 
ATOM      3  C   UNL     1     -33.725  27.469   4.256  0.00  0.00    +0.079 C 
ATOM      4  C   UNL     1     -35.658  26.124   3.918  0.00  0.00    +0.041 C 
ATOM      5  C   UNL     1     -34.836  27.159   3.487  0.00  0.00    +0.019 C 
ATOM      6  C   UNL     1     -34.218  25.828   5.787  0.00  0.00    +0.136 C 
ENDROOT
BRANCH   3   7
ATOM      7  C   UNL     1     -32.832  28.540   3.852  0.00  0.00    +0.157 C 
BRANCH   7   8
ATOM      8  N   UNL     1     -32.465  29.494   4.664  0.00  0.00    -0.126 NA
BRANCH   8   9
ATOM      9  N   UNL     1     -31.160  29.458   5.026  0.00  0.00    -0.244 N 
ATOM     10  H   UNL     1     -30.463  29.632   4.352  0.00  0.00    +0.170 HD
BRANCH   9  12
ATOM     11  S   UNL     1     -29.191  29.174   6.794  0.00  0.00    -0.018 S 
ATOM     12  C   UNL     1     -30.794  29.181   6.320  0.00  0.00    +0.143 C 
BRANCH  12  13
ATOM     13  N   UNL     1     -31.804  28.912   7.205  0.00  0.00    -0.340 N 
ATOM     14  H   UNL     1     -32.646  29.420   7.160  0.00  0.00    +0.144 HD
ATOM     15  H   UNL     1     -31.688  28.211   7.886  0.00  0.00    +0.144 HD
ENDBRANCH  12  13
ENDBRANCH   9  12
ENDBRANCH   8   9
ENDBRANCH   7   8
ENDBRANCH   3   7
BRANCH   2  16
ATOM     16  O   UNL     1     -36.159  24.398   5.548  0.00  0.00    -0.392 OA
BRANCH  16  18
ATOM     17  O   UNL     1     -34.740  22.550   5.696  0.00  0.00    -0.202 OA
ATOM     18  C   UNL     1     -35.683  23.144   5.186  0.00  0.00    +0.521 C 
BRANCH  18  19
ATOM     19  O   UNL     1     -36.462  22.656   4.126  0.00  0.00    -0.393 OA
BRANCH  19  20
ATOM     20  C   UNL     1     -35.742  22.159   3.082  0.00  0.00    +0.152 C 
ATOM     21  C   UNL     1     -35.567  20.782   2.949  0.00  0.00    +0.038 C 
ATOM     22  C   UNL     1     -35.181  23.028   2.146  0.00  0.00    +0.038 C 
ATOM     23  C   UNL     1     -34.829  20.272   1.880  0.00  0.00    +0.003 C 
ATOM     24  C   UNL     1     -34.443  22.519   1.078  0.00  0.00    +0.003 C 
ATOM     25  C   UNL     1     -34.268  21.142   0.945  0.00  0.00    +0.000 C 
ENDBRANCH  19  20
ENDBRANCH  18  19
ENDBRANCH  16  18
ENDBRANCH   2  16
TORSDOF 9
ENDMDL
MODEL 8
REMARK VINA RESULT:      -5.5      6.258      8.865
REMARK  Name = 57350509
REMARK  9 active torsions:
REMARK  status: ('A' for Active; 'I' for Inactive)
REMARK    1  A    between atoms: C_2  and  O_16
REMARK    2  A    between atoms: C_3  and  C_8
REMARK    3  A    between atoms: N_7  and  C_8
REMARK    4  A    between atoms: N_7  and  N_9
REMARK    5  A    between atoms: N_9  and  C_12
REMARK    6  A    between atoms: C_12  and  N_13
REMARK    7  A    between atoms: O_16  and  C_18
REMARK    8  A    between atoms: C_18  and  O_19
REMARK    9  A    between atoms: O_19  and  C_20
REMARK                            x       y       z     vdW  Elec       q    Type
REMARK                         _______ _______ _______ _____ _____    ______ ____
ROOT
ATOM      1  N   UNL     1     -35.496  18.683  -0.034  0.00  0.00    -0.243 NA
ATOM      2  C   UNL     1     -36.278  20.232   1.650  0.00  0.00    +0.171 C 
ATOM      3  C   UNL     1     -34.284  18.718   0.564  0.00  0.00    +0.079 C 
ATOM      4  C   UNL     1     -35.018  20.242   2.237  0.00  0.00    +0.041 C 
ATOM      5  C   UNL     1     -33.996  19.473   1.691  0.00  0.00    +0.019 C 
ATOM      6  C   UNL     1     -36.464  19.443   0.526  0.00  0.00    +0.136 C 
ENDROOT
BRANCH   3   7
ATOM      7  C   UNL     1     -33.255  17.896  -0.048  0.00  0.00    +0.157 C 
BRANCH   7   8
ATOM      8  N   UNL     1     -33.525  16.800  -0.701  0.00  0.00    -0.126 NA
BRANCH   8   9
ATOM      9  N   UNL     1     -34.066  15.811   0.050  0.00  0.00    -0.244 N 
ATOM     10  H   UNL     1     -33.614  15.529   0.879  0.00  0.00    +0.170 HD
BRANCH   9  12
ATOM     11  S   UNL     1     -35.277  14.093  -1.582  0.00  0.00    -0.018 S 
ATOM     12  C   UNL     1     -35.234  15.197  -0.326  0.00  0.00    +0.143 C 
BRANCH  12  13
ATOM     13  N   UNL     1     -36.363  15.529   0.374  0.00  0.00    -0.340 N 
ATOM     14  H   UNL     1     -36.308  16.168   1.121  0.00  0.00    +0.144 HD
ATOM     15  H   UNL     1     -37.229  15.130   0.130  0.00  0.00    +0.144 HD
ENDBRANCH  12  13
ENDBRANCH   9  12
ENDBRANCH   8   9
ENDBRANCH   7   8
ENDBRANCH   3   7
BRANCH   2  16
ATOM     16  O   UNL     1     -37.324  20.993   2.178  0.00  0.00    -0.392 OA
BRANCH  16  18
ATOM     17  O   UNL     1     -36.479  22.965   1.259  0.00  0.00    -0.202 OA
ATOM     18  C   UNL     1     -37.071  22.359   2.143  0.00  0.00    +0.521 C 
BRANCH  18  19
ATOM     19  O   UNL     1     -37.608  22.945   3.300  0.00  0.00    -0.393 OA
BRANCH  19  20
ATOM     20  C   UNL     1     -36.708  23.650   4.040  0.00  0.00    +0.152 C 
ATOM     21  C   UNL     1     -35.625  22.998   4.629  0.00  0.00    +0.038 C 
ATOM     22  C   UNL     1     -36.871  25.026   4.209  0.00  0.00    +0.038 C 
ATOM     23  C   UNL     1     -34.704  23.720   5.387  0.00  0.00    +0.003 C 
ATOM     24  C   UNL     1     -35.950  25.748   4.968  0.00  0.00    +0.003 C 
ATOM     25  C   UNL     1     -34.867  25.095   5.556  0.00  0.00    +0.000 C 
ENDBRANCH  19  20
ENDBRANCH  18  19
ENDBRANCH  16  18
ENDBRANCH   2  16
TORSDOF 9
ENDMDL
MODEL 9
REMARK VINA RESULT:      -5.5      1.615      2.315
REMARK  Name = 57350509
REMARK  9 active torsions:
REMARK  status: ('A' for Active; 'I' for Inactive)
REMARK    1  A    between atoms: C_2  and  O_16
REMARK    2  A    between atoms: C_3  and  C_8
REMARK    3  A    between atoms: N_7  and  C_8
REMARK    4  A    between atoms: N_7  and  N_9
REMARK    5  A    between atoms: N_9  and  C_12
REMARK    6  A    between atoms: C_12  and  N_13
REMARK    7  A    between atoms: O_16  and  C_18
REMARK    8  A    between atoms: C_18  and  O_19
REMARK    9  A    between atoms: O_19  and  C_20
REMARK                            x       y       z     vdW  Elec       q    Type
REMARK                         _______ _______ _______ _____ _____    ______ ____
ROOT
ATOM      1  N   UNL     1     -35.458  26.254   5.584  0.00  0.00    -0.243 NA
ATOM      2  C   UNL     1     -36.126  24.210   4.481  0.00  0.00    +0.171 C 
ATOM      3  C   UNL     1     -34.181  25.964   5.247  0.00  0.00    +0.079 C 
ATOM      4  C   UNL     1     -34.802  23.945   4.152  0.00  0.00    +0.041 C 
ATOM      5  C   UNL     1     -33.805  24.835   4.538  0.00  0.00    +0.019 C 
ATOM      6  C   UNL     1     -36.400  25.367   5.191  0.00  0.00    +0.136 C 
ENDROOT
BRANCH   3   7
ATOM      7  C   UNL     1     -33.182  26.926   5.675  0.00  0.00    +0.157 C 
BRANCH   7   8
ATOM      8  N   UNL     1     -32.800  27.926   4.927  0.00  0.00    -0.126 NA
BRANCH   8   9
ATOM      9  N   UNL     1     -32.458  29.045   5.610  0.00  0.00    -0.244 N 
ATOM     10  H   UNL     1     -33.017  29.852   5.530  0.00  0.00    +0.170 HD
BRANCH   9  12
ATOM     11  S   UNL     1     -29.823  28.732   5.802  0.00  0.00    -0.018 S 
ATOM     12  C   UNL     1     -31.343  29.071   6.410  0.00  0.00    +0.143 C 
BRANCH  12  13
ATOM     13  N   UNL     1     -31.533  29.388   7.728  0.00  0.00    -0.340 N 
ATOM     14  H   UNL     1     -31.510  30.329   8.016  0.00  0.00    +0.144 HD
ATOM     15  H   UNL     1     -31.695  28.675   8.387  0.00  0.00    +0.144 HD
ENDBRANCH  12  13
ENDBRANCH   9  12
ENDBRANCH   8   9
ENDBRANCH   7   8
ENDBRANCH   3   7
BRANCH   2  16
ATOM     16  O   UNL     1     -37.150  23.336   4.105  0.00  0.00    -0.392 OA
BRANCH  16  18
ATOM     17  O   UNL     1     -37.731  24.513   2.175  0.00  0.00    -0.202 OA
ATOM     18  C   UNL     1     -37.509  23.465   2.769  0.00  0.00    +0.521 C 
BRANCH  18  19
ATOM     19  O   UNL     1     -37.579  22.186   2.196  0.00  0.00    -0.393 OA
BRANCH  19  20
ATOM     20  C   UNL     1     -36.379  21.686   1.790  0.00  0.00    +0.152 C 
ATOM     21  C   UNL     1     -35.904  20.491   2.328  0.00  0.00    +0.038 C 
ATOM     22  C   UNL     1     -35.628  22.370   0.834  0.00  0.00    +0.038 C 
ATOM     23  C   UNL     1     -34.674  19.979   1.912  0.00  0.00    +0.003 C 
ATOM     24  C   UNL     1     -34.398  21.858   0.419  0.00  0.00    +0.003 C 
ATOM     25  C   UNL     1     -33.922  20.663   0.957  0.00  0.00    +0.000 C 
ENDBRANCH  19  20
ENDBRANCH  18  19
ENDBRANCH  16  18
ENDBRANCH   2  16
TORSDOF 9
ENDMDL
