MODEL 1
REMARK VINA RESULT:      -6.0      0.000      0.000
REMARK  Name = 5490177
REMARK  8 active torsions:
REMARK  status: ('A' for Active; 'I' for Inactive)
REMARK    1  A    between atoms: C_4  and  C_8
REMARK    2  A    between atoms: C_5  and  C_19
REMARK    3  A    between atoms: N_7  and  C_13
REMARK    4  A    between atoms: C_13  and  C_16
REMARK    5  A    between atoms: C_16  and  C_18
REMARK    6  A    between atoms: C_19  and  N_22
REMARK    7  A    between atoms: C_23  and  C_25
REMARK    8  A    between atoms: C_25  and  N_28
REMARK                            x       y       z     vdW  Elec       q    Type
REMARK                         _______ _______ _______ _____ _____    ______ ____
ROOT
ATOM      1  O   UNL     1     -31.272  27.710   2.422  0.00  0.00    -0.277 OA
ATOM      2  O   UNL     1     -33.126  25.626   2.779  0.00  0.00    -0.273 OA
ATOM      3  N   UNL     1     -32.730  27.413   4.223  0.00  0.00    -0.256 N 
ATOM      4  C   UNL     1     -31.733  28.066   3.503  0.00  0.00    +0.209 C 
ATOM      5  C   UNL     1     -33.365  26.236   3.820  0.00  0.00    +0.246 C 
ATOM      6  H   UNL     1     -33.008  27.810   5.080  0.00  0.00    +0.157 HD
ENDROOT
BRANCH   4   8
ATOM      7  N   UNL     1     -32.433  30.037   4.642  0.00  0.00    +0.400 N 
ATOM      8  C   UNL     1     -31.247  29.293   4.205  0.00  0.00    +0.022 C 
ATOM      9  C   UNL     1     -30.487  28.939   5.484  0.00  0.00    -0.014 C 
ATOM     10  C   UNL     1     -32.094  30.639   5.933  0.00  0.00    -0.076 C 
ATOM     11  C   UNL     1     -31.330  29.517   6.610  0.00  0.00    -0.024 C 
ATOM     12  H   UNL     1     -33.228  29.405   4.731  0.00  0.00    -0.078 HD
BRANCH   7  13
ATOM     13  C   UNL     1     -32.876  31.030   3.673  0.00  0.00    +0.003 C 
ATOM     14  C   UNL     1     -31.822  31.221   2.593  0.00  0.00    -0.015 C 
BRANCH  13  16
ATOM     15  O   UNL     1     -34.731  29.507   3.429  0.00  0.00    -0.297 OA
ATOM     16  C   UNL     1     -34.182  30.542   3.054  0.00  0.00    +0.148 C 
BRANCH  16  18
ATOM     17 CL   UNL     1     -36.471  31.645   2.117  0.00  0.00    -0.105 Cl
ATOM     18  C   UNL     1     -34.728  31.395   1.926  0.00  0.00    +0.157 C 
ENDBRANCH  16  18
ENDBRANCH  13  16
ENDBRANCH   7  13
ENDBRANCH   4   8
BRANCH   5  19
ATOM     19  C   UNL     1     -34.448  25.807   4.803  0.00  0.00    +0.149 C 
ATOM     20  C   UNL     1     -34.054  26.170   6.227  0.00  0.00    +0.031 C 
BRANCH  19  22
ATOM     21  O   UNL     1     -36.971  24.436   4.643  0.00  0.00    -0.273 OA
ATOM     22  N   UNL     1     -34.651  24.389   4.661  0.00  0.00    -0.297 N 
ATOM     23  C   UNL     1     -35.914  23.812   4.592  0.00  0.00    +0.241 C 
ATOM     24  H   UNL     1     -33.861  23.803   4.610  0.00  0.00    +0.150 HD
BRANCH  23  25
ATOM     25  C   UNL     1     -35.847  22.303   4.394  0.00  0.00    +0.149 C 
ATOM     26  C   UNL     1     -35.132  21.632   5.556  0.00  0.00    +0.031 C 
BRANCH  25  28
ATOM     27  O   UNL     1     -36.267  20.067   2.591  0.00  0.00    -0.275 OA
ATOM     28  N   UNL     1     -35.176  22.047   3.147  0.00  0.00    -0.298 N 
ATOM     29  C   UNL     1     -35.445  20.946   2.347  0.00  0.00    +0.223 C 
ATOM     30  C   UNL     1     -34.620  20.935   1.088  0.00  0.00    +0.095 C 
ATOM     31  H   UNL     1     -34.491  22.688   2.846  0.00  0.00    +0.150 HD
ENDBRANCH  25  28
ENDBRANCH  23  25
ENDBRANCH  19  22
ENDBRANCH   5  19
TORSDOF 8
ENDMDL
MODEL 2
REMARK VINA RESULT:      -5.9      2.977      7.945
REMARK  Name = 5490177
REMARK  8 active torsions:
REMARK  status: ('A' for Active; 'I' for Inactive)
REMARK    1  A    between atoms: C_4  and  C_8
REMARK    2  A    between atoms: C_5  and  C_19
REMARK    3  A    between atoms: N_7  and  C_13
REMARK    4  A    between atoms: C_13  and  C_16
REMARK    5  A    between atoms: C_16  and  C_18
REMARK    6  A    between atoms: C_19  and  N_22
REMARK    7  A    between atoms: C_23  and  C_25
REMARK    8  A    between atoms: C_25  and  N_28
REMARK                            x       y       z     vdW  Elec       q    Type
REMARK                         _______ _______ _______ _____ _____    ______ ____
ROOT
ATOM      1  O   UNL     1     -34.132  24.405   0.980  0.00  0.00    -0.277 OA
ATOM      2  O   UNL     1     -32.535  25.574   2.979  0.00  0.00    -0.273 OA
ATOM      3  N   UNL     1     -34.850  25.299   3.016  0.00  0.00    -0.256 N 
ATOM      4  C   UNL     1     -35.022  24.680   1.781  0.00  0.00    +0.209 C 
ATOM      5  C   UNL     1     -33.621  25.708   3.541  0.00  0.00    +0.246 C 
ATOM      6  H   UNL     1     -35.653  25.460   3.562  0.00  0.00    +0.157 HD
ENDROOT
BRANCH   4   8
ATOM      7  N   UNL     1     -36.973  23.632   2.656  0.00  0.00    +0.400 N 
ATOM      8  C   UNL     1     -36.458  24.376   1.502  0.00  0.00    +0.022 C 
ATOM      9  C   UNL     1     -37.295  25.654   1.429  0.00  0.00    -0.014 C 
ATOM     10  C   UNL     1     -38.360  24.062   2.844  0.00  0.00    -0.076 C 
ATOM     11  C   UNL     1     -38.260  25.555   2.601  0.00  0.00    -0.024 C 
ATOM     12  H   UNL     1     -36.412  23.837   3.483  0.00  0.00    -0.078 HD
BRANCH   7  13
ATOM     13  C   UNL     1     -36.862  22.187   2.503  0.00  0.00    +0.003 C 
ATOM     14  C   UNL     1     -36.448  21.838   1.081  0.00  0.00    -0.015 C 
BRANCH  13  16
ATOM     15  O   UNL     1     -35.233  20.612   3.331  0.00  0.00    -0.297 OA
ATOM     16  C   UNL     1     -35.820  21.681   3.495  0.00  0.00    +0.148 C 
BRANCH  16  18
ATOM     17 CL   UNL     1     -35.374  21.579   6.164  0.00  0.00    -0.105 Cl
ATOM     18  C   UNL     1     -35.590  22.562   4.707  0.00  0.00    +0.157 C 
ENDBRANCH  16  18
ENDBRANCH  13  16
ENDBRANCH   7  13
ENDBRANCH   4   8
BRANCH   5  19
ATOM     19  C   UNL     1     -33.766  26.301   4.937  0.00  0.00    +0.149 C 
ATOM     20  C   UNL     1     -35.205  26.192   5.419  0.00  0.00    +0.031 C 
BRANCH  19  22
ATOM     21  O   UNL     1     -31.432  27.411   6.200  0.00  0.00    -0.273 OA
ATOM     22  N   UNL     1     -33.331  27.673   4.891  0.00  0.00    -0.297 N 
ATOM     23  C   UNL     1     -32.184  28.121   5.536  0.00  0.00    +0.241 C 
ATOM     24  H   UNL     1     -33.869  28.320   4.381  0.00  0.00    +0.150 HD
BRANCH  23  25
ATOM     25  C   UNL     1     -31.925  29.601   5.288  0.00  0.00    +0.149 C 
ATOM     26  C   UNL     1     -31.773  30.354   6.601  0.00  0.00    +0.031 C 
BRANCH  25  28
ATOM     27  O   UNL     1     -31.839  31.745   3.334  0.00  0.00    -0.275 OA
ATOM     28  N   UNL     1     -33.019  30.120   4.511  0.00  0.00    -0.298 N 
ATOM     29  C   UNL     1     -32.882  31.153   3.594  0.00  0.00    +0.223 C 
ATOM     30  C   UNL     1     -34.177  31.481   2.900  0.00  0.00    +0.095 C 
ATOM     31  H   UNL     1     -33.911  29.721   4.635  0.00  0.00    +0.150 HD
ENDBRANCH  25  28
ENDBRANCH  23  25
ENDBRANCH  19  22
ENDBRANCH   5  19
TORSDOF 8
ENDMDL
MODEL 3
REMARK VINA RESULT:      -5.9      1.887      2.988
REMARK  Name = 5490177
REMARK  8 active torsions:
REMARK  status: ('A' for Active; 'I' for Inactive)
REMARK    1  A    between atoms: C_4  and  C_8
REMARK    2  A    between atoms: C_5  and  C_19
REMARK    3  A    between atoms: N_7  and  C_13
REMARK    4  A    between atoms: C_13  and  C_16
REMARK    5  A    between atoms: C_16  and  C_18
REMARK    6  A    between atoms: C_19  and  N_22
REMARK    7  A    between atoms: C_23  and  C_25
REMARK    8  A    between atoms: C_25  and  N_28
REMARK                            x       y       z     vdW  Elec       q    Type
REMARK                         _______ _______ _______ _____ _____    ______ ____
ROOT
ATOM      1  O   UNL     1     -33.063  28.523   1.951  0.00  0.00    -0.277 OA
ATOM      2  O   UNL     1     -33.933  26.018   2.889  0.00  0.00    -0.273 OA
ATOM      3  N   UNL     1     -33.789  27.999   4.110  0.00  0.00    -0.256 N 
ATOM      4  C   UNL     1     -33.306  28.842   3.112  0.00  0.00    +0.209 C 
ATOM      5  C   UNL     1     -34.073  26.641   3.939  0.00  0.00    +0.246 C 
ATOM      6  H   UNL     1     -33.942  28.387   5.001  0.00  0.00    +0.157 HD
ENDROOT
BRANCH   4   8
ATOM      7  N   UNL     1     -31.661  30.525   3.479  0.00  0.00    +0.400 N 
ATOM      8  C   UNL     1     -33.093  30.234   3.611  0.00  0.00    +0.022 C 
ATOM      9  C   UNL     1     -33.805  31.259   2.728  0.00  0.00    -0.014 C 
ATOM     10  C   UNL     1     -31.555  31.939   3.114  0.00  0.00    -0.076 C 
ATOM     11  C   UNL     1     -32.687  32.090   2.117  0.00  0.00    -0.024 C 
ATOM     12  H   UNL     1     -31.249  29.931   2.760  0.00  0.00    -0.078 HD
BRANCH   7  13
ATOM     13  C   UNL     1     -30.899  30.209   4.679  0.00  0.00    +0.003 C 
ATOM     14  C   UNL     1     -31.764  30.390   5.918  0.00  0.00    -0.015 C 
BRANCH  13  16
ATOM     15  O   UNL     1     -30.771  27.905   5.387  0.00  0.00    -0.297 OA
ATOM     16  C   UNL     1     -30.424  28.763   4.575  0.00  0.00    +0.148 C 
BRANCH  16  18
ATOM     17 CL   UNL     1     -30.014  27.063   2.507  0.00  0.00    -0.105 Cl
ATOM     18  C   UNL     1     -29.469  28.470   3.435  0.00  0.00    +0.157 C 
ENDBRANCH  16  18
ENDBRANCH  13  16
ENDBRANCH   7  13
ENDBRANCH   4   8
BRANCH   5  19
ATOM     19  C   UNL     1     -34.638  26.014   5.208  0.00  0.00    +0.149 C 
ATOM     20  C   UNL     1     -33.733  26.300   6.397  0.00  0.00    +0.031 C 
BRANCH  19  22
ATOM     21  O   UNL     1     -37.080  24.591   4.675  0.00  0.00    -0.273 OA
ATOM     22  N   UNL     1     -34.780  24.598   4.986  0.00  0.00    -0.297 N 
ATOM     23  C   UNL     1     -36.007  23.995   4.735  0.00  0.00    +0.241 C 
ATOM     24  H   UNL     1     -33.974  24.034   5.014  0.00  0.00    +0.150 HD
BRANCH  23  25
ATOM     25  C   UNL     1     -35.873  22.498   4.489  0.00  0.00    +0.149 C 
ATOM     26  C   UNL     1     -35.105  21.827   5.617  0.00  0.00    +0.031 C 
BRANCH  25  28
ATOM     27  O   UNL     1     -36.063  20.205   2.720  0.00  0.00    -0.275 OA
ATOM     28  N   UNL     1     -35.213  22.313   3.224  0.00  0.00    -0.298 N 
ATOM     29  C   UNL     1     -35.366  21.176   2.442  0.00  0.00    +0.223 C 
ATOM     30  C   UNL     1     -34.585  21.253   1.157  0.00  0.00    +0.095 C 
ATOM     31  H   UNL     1     -34.623  23.030   2.895  0.00  0.00    +0.150 HD
ENDBRANCH  25  28
ENDBRANCH  23  25
ENDBRANCH  19  22
ENDBRANCH   5  19
TORSDOF 8
ENDMDL
MODEL 4
REMARK VINA RESULT:      -5.8      4.678      6.813
REMARK  Name = 5490177
REMARK  8 active torsions:
REMARK  status: ('A' for Active; 'I' for Inactive)
REMARK    1  A    between atoms: C_4  and  C_8
REMARK    2  A    between atoms: C_5  and  C_19
REMARK    3  A    between atoms: N_7  and  C_13
REMARK    4  A    between atoms: C_13  and  C_16
REMARK    5  A    between atoms: C_16  and  C_18
REMARK    6  A    between atoms: C_19  and  N_22
REMARK    7  A    between atoms: C_23  and  C_25
REMARK    8  A    between atoms: C_25  and  N_28
REMARK                            x       y       z     vdW  Elec       q    Type
REMARK                         _______ _______ _______ _____ _____    ______ ____
ROOT
ATOM      1  O   UNL     1     -39.180  24.417   3.620  0.00  0.00    -0.277 OA
ATOM      2  O   UNL     1     -39.375  22.035   2.136  0.00  0.00    -0.273 OA
ATOM      3  N   UNL     1     -37.808  23.738   1.854  0.00  0.00    -0.256 N 
ATOM      4  C   UNL     1     -38.234  24.603   2.860  0.00  0.00    +0.209 C 
ATOM      5  C   UNL     1     -38.402  22.509   1.553  0.00  0.00    +0.246 C 
ATOM      6  H   UNL     1     -37.031  24.011   1.316  0.00  0.00    +0.157 HD
ENDROOT
BRANCH   4   8
ATOM      7  N   UNL     1     -35.999  25.423   2.798  0.00  0.00    +0.400 N 
ATOM      8  C   UNL     1     -37.399  25.840   2.924  0.00  0.00    +0.022 C 
ATOM      9  C   UNL     1     -37.665  26.756   1.728  0.00  0.00    -0.014 C 
ATOM     10  C   UNL     1     -35.320  26.466   2.027  0.00  0.00    -0.076 C 
ATOM     11  C   UNL     1     -36.351  26.789   0.963  0.00  0.00    -0.024 C 
ATOM     12  H   UNL     1     -35.944  24.523   2.321  0.00  0.00    -0.078 HD
BRANCH   7  13
ATOM     13  C   UNL     1     -35.355  25.182   4.082  0.00  0.00    +0.003 C 
ATOM     14  C   UNL     1     -36.125  25.874   5.197  0.00  0.00    -0.015 C 
BRANCH  13  16
ATOM     15  O   UNL     1     -35.260  22.872   3.393  0.00  0.00    -0.297 OA
ATOM     16  C   UNL     1     -35.318  23.676   4.323  0.00  0.00    +0.148 C 
BRANCH  16  18
ATOM     17 CL   UNL     1     -35.056  21.515   5.933  0.00  0.00    -0.105 Cl
ATOM     18  C   UNL     1     -35.401  23.245   5.773  0.00  0.00    +0.157 C 
ENDBRANCH  16  18
ENDBRANCH  13  16
ENDBRANCH   7  13
ENDBRANCH   4   8
BRANCH   5  19
ATOM     19  C   UNL     1     -37.666  21.779   0.437  0.00  0.00    +0.149 C 
ATOM     20  C   UNL     1     -38.208  20.367   0.270  0.00  0.00    +0.031 C 
BRANCH  19  22
ATOM     21  O   UNL     1     -35.476  21.677  -1.425  0.00  0.00    -0.273 OA
ATOM     22  N   UNL     1     -36.262  21.766   0.757  0.00  0.00    -0.297 N 
ATOM     23  C   UNL     1     -35.268  21.714  -0.214  0.00  0.00    +0.241 C 
ATOM     24  H   UNL     1     -35.994  21.794   1.704  0.00  0.00    +0.150 HD
BRANCH  23  25
ATOM     25  C   UNL     1     -33.871  21.760   0.389  0.00  0.00    +0.149 C 
ATOM     26  C   UNL     1     -32.956  22.662  -0.425  0.00  0.00    +0.031 C 
BRANCH  25  28
ATOM     27  O   UNL     1     -34.484  19.724   2.364  0.00  0.00    -0.275 OA
ATOM     28  N   UNL     1     -33.365  20.414   0.443  0.00  0.00    -0.298 N 
ATOM     29  C   UNL     1     -33.718  19.506   1.430  0.00  0.00    +0.223 C 
ATOM     30  C   UNL     1     -33.066  18.162   1.235  0.00  0.00    +0.095 C 
ATOM     31  H   UNL     1     -32.738  20.122  -0.258  0.00  0.00    +0.150 HD
ENDBRANCH  25  28
ENDBRANCH  23  25
ENDBRANCH  19  22
ENDBRANCH   5  19
TORSDOF 8
ENDMDL
MODEL 5
REMARK VINA RESULT:      -5.7      2.427      3.440
REMARK  Name = 5490177
REMARK  8 active torsions:
REMARK  status: ('A' for Active; 'I' for Inactive)
REMARK    1  A    between atoms: C_4  and  C_8
REMARK    2  A    between atoms: C_5  and  C_19
REMARK    3  A    between atoms: N_7  and  C_13
REMARK    4  A    between atoms: C_13  and  C_16
REMARK    5  A    between atoms: C_16  and  C_18
REMARK    6  A    between atoms: C_19  and  N_22
REMARK    7  A    between atoms: C_23  and  C_25
REMARK    8  A    between atoms: C_25  and  N_28
REMARK                            x       y       z     vdW  Elec       q    Type
REMARK                         _______ _______ _______ _____ _____    ______ ____
ROOT
ATOM      1  O   UNL     1     -31.151  27.816   2.538  0.00  0.00    -0.277 OA
ATOM      2  O   UNL     1     -32.636  25.521   3.199  0.00  0.00    -0.273 OA
ATOM      3  N   UNL     1     -32.920  27.670   4.057  0.00  0.00    -0.256 N 
ATOM      4  C   UNL     1     -31.913  28.327   3.355  0.00  0.00    +0.209 C 
ATOM      5  C   UNL     1     -33.221  26.310   3.938  0.00  0.00    +0.246 C 
ATOM      6  H   UNL     1     -33.462  28.202   4.684  0.00  0.00    +0.157 HD
ENDROOT
BRANCH   4   8
ATOM      7  N   UNL     1     -30.501  30.010   4.274  0.00  0.00    +0.400 N 
ATOM      8  C   UNL     1     -31.835  29.776   3.712  0.00  0.00    +0.022 C 
ATOM      9  C   UNL     1     -31.921  30.662   2.469  0.00  0.00    -0.014 C 
ATOM     10  C   UNL     1     -30.093  31.345   3.833  0.00  0.00    -0.076 C 
ATOM     11  C   UNL     1     -30.572  31.360   2.395  0.00  0.00    -0.024 C 
ATOM     12  H   UNL     1     -29.851  29.300   3.937  0.00  0.00    -0.078 HD
BRANCH   7  13
ATOM     13  C   UNL     1     -30.457  29.873   5.723  0.00  0.00    +0.003 C 
ATOM     14  C   UNL     1     -31.834  30.123   6.319  0.00  0.00    -0.015 C 
BRANCH  13  16
ATOM     15  O   UNL     1     -30.783  27.559   6.326  0.00  0.00    -0.297 OA
ATOM     16  C   UNL     1     -29.988  28.459   6.054  0.00  0.00    +0.148 C 
BRANCH  16  18
ATOM     17 CL   UNL     1     -28.058  26.802   6.982  0.00  0.00    -0.105 Cl
ATOM     18  C   UNL     1     -28.487  28.255   6.064  0.00  0.00    +0.157 C 
ENDBRANCH  16  18
ENDBRANCH  13  16
ENDBRANCH   7  13
ENDBRANCH   4   8
BRANCH   5  19
ATOM     19  C   UNL     1     -34.414  25.913   4.799  0.00  0.00    +0.149 C 
ATOM     20  C   UNL     1     -34.171  26.282   6.255  0.00  0.00    +0.031 C 
BRANCH  19  22
ATOM     21  O   UNL     1     -36.948  24.555   4.713  0.00  0.00    -0.273 OA
ATOM     22  N   UNL     1     -34.629  24.498   4.646  0.00  0.00    -0.297 N 
ATOM     23  C   UNL     1     -35.896  23.927   4.616  0.00  0.00    +0.241 C 
ATOM     24  H   UNL     1     -33.845  23.909   4.560  0.00  0.00    +0.150 HD
BRANCH  23  25
ATOM     25  C   UNL     1     -35.845  22.421   4.397  0.00  0.00    +0.149 C 
ATOM     26  C   UNL     1     -35.145  21.726   5.554  0.00  0.00    +0.031 C 
BRANCH  25  28
ATOM     27  O   UNL     1     -36.174  20.142   2.629  0.00  0.00    -0.275 OA
ATOM     28  N   UNL     1     -35.167  22.176   3.152  0.00  0.00    -0.298 N 
ATOM     29  C   UNL     1     -35.391  21.052   2.369  0.00  0.00    +0.223 C 
ATOM     30  C   UNL     1     -34.571  21.058   1.107  0.00  0.00    +0.095 C 
ATOM     31  H   UNL     1     -34.511  22.841   2.838  0.00  0.00    +0.150 HD
ENDBRANCH  25  28
ENDBRANCH  23  25
ENDBRANCH  19  22
ENDBRANCH   5  19
TORSDOF 8
ENDMDL
MODEL 6
REMARK VINA RESULT:      -5.7      2.811      6.666
REMARK  Name = 5490177
REMARK  8 active torsions:
REMARK  status: ('A' for Active; 'I' for Inactive)
REMARK    1  A    between atoms: C_4  and  C_8
REMARK    2  A    between atoms: C_5  and  C_19
REMARK    3  A    between atoms: N_7  and  C_13
REMARK    4  A    between atoms: C_13  and  C_16
REMARK    5  A    between atoms: C_16  and  C_18
REMARK    6  A    between atoms: C_19  and  N_22
REMARK    7  A    between atoms: C_23  and  C_25
REMARK    8  A    between atoms: C_25  and  N_28
REMARK                            x       y       z     vdW  Elec       q    Type
REMARK                         _______ _______ _______ _____ _____    ______ ____
ROOT
ATOM      1  O   UNL     1     -36.729  27.490   1.851  0.00  0.00    -0.277 OA
ATOM      2  O   UNL     1     -35.493  30.011   2.014  0.00  0.00    -0.273 OA
ATOM      3  N   UNL     1     -34.931  28.095   3.216  0.00  0.00    -0.256 N 
ATOM      4  C   UNL     1     -35.883  27.219   2.698  0.00  0.00    +0.209 C 
ATOM      5  C   UNL     1     -34.793  29.435   2.844  0.00  0.00    +0.246 C 
ATOM      6  H   UNL     1     -34.309  27.744   3.893  0.00  0.00    +0.157 HD
ENDROOT
BRANCH   4   8
ATOM      7  N   UNL     1     -34.378  25.664   3.694  0.00  0.00    +0.400 N 
ATOM      8  C   UNL     1     -35.779  25.858   3.307  0.00  0.00    +0.022 C 
ATOM      9  C   UNL     1     -36.583  25.764   4.604  0.00  0.00    -0.014 C 
ATOM     10  C   UNL     1     -34.393  24.889   4.936  0.00  0.00    -0.076 C 
ATOM     11  C   UNL     1     -35.543  25.527   5.689  0.00  0.00    -0.024 C 
ATOM     12  H   UNL     1     -33.926  26.568   3.833  0.00  0.00    -0.078 HD
BRANCH   7  13
ATOM     13  C   UNL     1     -33.580  25.025   2.657  0.00  0.00    +0.003 C 
ATOM     14  C   UNL     1     -34.472  24.559   1.516  0.00  0.00    -0.015 C 
BRANCH  13  16
ATOM     15  O   UNL     1     -31.863  26.700   2.917  0.00  0.00    -0.297 OA
ATOM     16  C   UNL     1     -32.559  26.038   2.148  0.00  0.00    +0.148 C 
BRANCH  16  18
ATOM     17 CL   UNL     1     -32.906  27.856   0.171  0.00  0.00    -0.105 Cl
ATOM     18  C   UNL     1     -32.494  26.198   0.642  0.00  0.00    +0.157 C 
ENDBRANCH  16  18
ENDBRANCH  13  16
ENDBRANCH   7  13
ENDBRANCH   4   8
BRANCH   5  19
ATOM     19  C   UNL     1     -33.622  30.105   3.552  0.00  0.00    +0.149 C 
ATOM     20  C   UNL     1     -32.721  30.811   2.550  0.00  0.00    +0.031 C 
BRANCH  19  22
ATOM     21  O   UNL     1     -32.225  30.452   6.042  0.00  0.00    -0.273 OA
ATOM     22  N   UNL     1     -32.901  29.096   4.284  0.00  0.00    -0.297 N 
ATOM     23  C   UNL     1     -32.253  29.357   5.486  0.00  0.00    +0.241 C 
ATOM     24  H   UNL     1     -32.866  28.183   3.918  0.00  0.00    +0.150 HD
BRANCH  23  25
ATOM     25  C   UNL     1     -31.609  28.109   6.075  0.00  0.00    +0.149 C 
ATOM     26  C   UNL     1     -32.596  27.348   6.948  0.00  0.00    +0.031 C 
BRANCH  25  28
ATOM     27  O   UNL     1     -28.831  27.471   5.524  0.00  0.00    -0.275 OA
ATOM     28  N   UNL     1     -30.453  28.517   6.827  0.00  0.00    -0.298 N 
ATOM     29  C   UNL     1     -29.155  28.163   6.485  0.00  0.00    +0.223 C 
ATOM     30  C   UNL     1     -28.134  28.745   7.425  0.00  0.00    +0.095 C 
ATOM     31  H   UNL     1     -30.589  29.079   7.626  0.00  0.00    +0.150 HD
ENDBRANCH  25  28
ENDBRANCH  23  25
ENDBRANCH  19  22
ENDBRANCH   5  19
TORSDOF 8
ENDMDL
MODEL 7
REMARK VINA RESULT:      -5.7      3.356      7.504
REMARK  Name = 5490177
REMARK  8 active torsions:
REMARK  status: ('A' for Active; 'I' for Inactive)
REMARK    1  A    between atoms: C_4  and  C_8
REMARK    2  A    between atoms: C_5  and  C_19
REMARK    3  A    between atoms: N_7  and  C_13
REMARK    4  A    between atoms: C_13  and  C_16
REMARK    5  A    between atoms: C_16  and  C_18
REMARK    6  A    between atoms: C_19  and  N_22
REMARK    7  A    between atoms: C_23  and  C_25
REMARK    8  A    between atoms: C_25  and  N_28
REMARK                            x       y       z     vdW  Elec       q    Type
REMARK                         _______ _______ _______ _____ _____    ______ ____
ROOT
ATOM      1  O   UNL     1     -38.608  24.734   3.902  0.00  0.00    -0.277 OA
ATOM      2  O   UNL     1     -39.043  26.520   1.773  0.00  0.00    -0.273 OA
ATOM      3  N   UNL     1     -37.035  26.138   2.894  0.00  0.00    -0.256 N 
ATOM      4  C   UNL     1     -37.467  25.178   3.807  0.00  0.00    +0.209 C 
ATOM      5  C   UNL     1     -37.846  26.749   1.934  0.00  0.00    +0.246 C 
ATOM      6  H   UNL     1     -36.088  26.404   2.926  0.00  0.00    +0.157 HD
ENDROOT
BRANCH   4   8
ATOM      7  N   UNL     1     -35.200  24.451   3.860  0.00  0.00    +0.400 N 
ATOM      8  C   UNL     1     -36.364  24.727   4.708  0.00  0.00    +0.022 C 
ATOM      9  C   UNL     1     -35.928  25.842   5.658  0.00  0.00    -0.014 C 
ATOM     10  C   UNL     1     -34.021  24.857   4.626  0.00  0.00    -0.076 C 
ATOM     11  C   UNL     1     -34.491  26.150   5.263  0.00  0.00    -0.024 C 
ATOM     12  H   UNL     1     -35.269  24.980   2.990  0.00  0.00    -0.078 HD
BRANCH   7  13
ATOM     13  C   UNL     1     -35.122  23.063   3.425  0.00  0.00    +0.003 C 
ATOM     14  C   UNL     1     -35.614  22.137   4.528  0.00  0.00    -0.015 C 
BRANCH  13  16
ATOM     15  O   UNL     1     -35.872  23.653   1.209  0.00  0.00    -0.297 OA
ATOM     16  C   UNL     1     -35.987  22.904   2.179  0.00  0.00    +0.148 C 
BRANCH  16  18
ATOM     17 CL   UNL     1     -36.486  20.396   1.287  0.00  0.00    -0.105 Cl
ATOM     18  C   UNL     1     -37.017  21.794   2.237  0.00  0.00    +0.157 C 
ENDBRANCH  16  18
ENDBRANCH  13  16
ENDBRANCH   7  13
ENDBRANCH   4   8
BRANCH   5  19
ATOM     19  C   UNL     1     -37.059  27.712   1.054  0.00  0.00    +0.149 C 
ATOM     20  C   UNL     1     -36.452  26.980  -0.133  0.00  0.00    +0.031 C 
BRANCH  19  22
ATOM     21  O   UNL     1     -36.637  30.533   1.423  0.00  0.00    -0.273 OA
ATOM     22  N   UNL     1     -36.042  28.333   1.862  0.00  0.00    -0.297 N 
ATOM     23  C   UNL     1     -35.913  29.713   1.981  0.00  0.00    +0.241 C 
ATOM     24  H   UNL     1     -35.412  27.757   2.351  0.00  0.00    +0.150 HD
BRANCH  23  25
ATOM     25  C   UNL     1     -34.790  30.106   2.932  0.00  0.00    +0.149 C 
ATOM     26  C   UNL     1     -34.350  31.541   2.691  0.00  0.00    +0.031 C 
BRANCH  25  28
ATOM     27  O   UNL     1     -32.766  29.339   4.867  0.00  0.00    -0.275 OA
ATOM     28  N   UNL     1     -33.702  29.185   2.740  0.00  0.00    -0.298 N 
ATOM     29  C   UNL     1     -32.778  28.878   3.729  0.00  0.00    +0.223 C 
ATOM     30  C   UNL     1     -31.761  27.867   3.271  0.00  0.00    +0.095 C 
ATOM     31  H   UNL     1     -33.608  28.749   1.861  0.00  0.00    +0.150 HD
ENDBRANCH  25  28
ENDBRANCH  23  25
ENDBRANCH  19  22
ENDBRANCH   5  19
TORSDOF 8
ENDMDL
MODEL 8
REMARK VINA RESULT:      -5.6      3.555      7.052
REMARK  Name = 5490177
REMARK  8 active torsions:
REMARK  status: ('A' for Active; 'I' for Inactive)
REMARK    1  A    between atoms: C_4  and  C_8
REMARK    2  A    between atoms: C_5  and  C_19
REMARK    3  A    between atoms: N_7  and  C_13
REMARK    4  A    between atoms: C_13  and  C_16
REMARK    5  A    between atoms: C_16  and  C_18
REMARK    6  A    between atoms: C_19  and  N_22
REMARK    7  A    between atoms: C_23  and  C_25
REMARK    8  A    between atoms: C_25  and  N_28
REMARK                            x       y       z     vdW  Elec       q    Type
REMARK                         _______ _______ _______ _____ _____    ______ ____
ROOT
ATOM      1  O   UNL     1     -38.197  22.638   1.907  0.00  0.00    -0.277 OA
ATOM      2  O   UNL     1     -36.118  21.187   3.124  0.00  0.00    -0.273 OA
ATOM      3  N   UNL     1     -36.779  23.367   3.615  0.00  0.00    -0.256 N 
ATOM      4  C   UNL     1     -37.821  23.497   2.700  0.00  0.00    +0.209 C 
ATOM      5  C   UNL     1     -35.993  22.223   3.773  0.00  0.00    +0.246 C 
ATOM      6  H   UNL     1     -36.583  24.138   4.196  0.00  0.00    +0.157 HD
ENDROOT
BRANCH   4   8
ATOM      7  N   UNL     1     -38.570  25.342   1.393  0.00  0.00    +0.400 N 
ATOM      8  C   UNL     1     -38.461  24.846   2.769  0.00  0.00    +0.022 C 
ATOM      9  C   UNL     1     -39.896  24.757   3.290  0.00  0.00    -0.014 C 
ATOM     10  C   UNL     1     -39.826  26.091   1.319  0.00  0.00    -0.076 C 
ATOM     11  C   UNL     1     -40.762  25.213   2.126  0.00  0.00    -0.024 C 
ATOM     12  H   UNL     1     -38.573  24.560   0.739  0.00  0.00    -0.078 HD
BRANCH   7  13
ATOM     13  C   UNL     1     -37.427  26.145   0.981  0.00  0.00    +0.003 C 
ATOM     14  C   UNL     1     -36.733  26.740   2.197  0.00  0.00    -0.015 C 
BRANCH  13  16
ATOM     15  O   UNL     1     -36.857  24.466  -0.656  0.00  0.00    -0.297 OA
ATOM     16  C   UNL     1     -36.464  25.244   0.213  0.00  0.00    +0.148 C 
BRANCH  16  18
ATOM     17 CL   UNL     1     -34.361  23.750   1.036  0.00  0.00    -0.105 Cl
ATOM     18  C   UNL     1     -35.009  25.346   0.622  0.00  0.00    +0.157 C 
ENDBRANCH  16  18
ENDBRANCH  13  16
ENDBRANCH   7  13
ENDBRANCH   4   8
BRANCH   5  19
ATOM     19  C   UNL     1     -34.975  22.382   4.896  0.00  0.00    +0.149 C 
ATOM     20  C   UNL     1     -35.214  21.348   5.986  0.00  0.00    +0.031 C 
BRANCH  19  22
ATOM     21  O   UNL     1     -33.266  24.608   4.268  0.00  0.00    -0.273 OA
ATOM     22  N   UNL     1     -35.080  23.721   5.413  0.00  0.00    -0.297 N 
ATOM     23  C   UNL     1     -34.203  24.738   5.051  0.00  0.00    +0.241 C 
ATOM     24  H   UNL     1     -35.802  23.926   6.049  0.00  0.00    +0.150 HD
BRANCH  23  25
ATOM     25  C   UNL     1     -34.564  26.067   5.702  0.00  0.00    +0.149 C 
ATOM     26  C   UNL     1     -36.071  26.264   5.739  0.00  0.00    +0.031 C 
BRANCH  25  28
ATOM     27  O   UNL     1     -32.052  27.382   6.327  0.00  0.00    -0.275 OA
ATOM     28  N   UNL     1     -33.917  27.116   4.959  0.00  0.00    -0.298 N 
ATOM     29  C   UNL     1     -32.710  27.687   5.336  0.00  0.00    +0.223 C 
ATOM     30  C   UNL     1     -32.245  28.742   4.368  0.00  0.00    +0.095 C 
ATOM     31  H   UNL     1     -34.353  27.446   4.139  0.00  0.00    +0.150 HD
ENDBRANCH  25  28
ENDBRANCH  23  25
ENDBRANCH  19  22
ENDBRANCH   5  19
TORSDOF 8
ENDMDL
MODEL 9
REMARK VINA RESULT:      -5.6      3.910      6.660
REMARK  Name = 5490177
REMARK  8 active torsions:
REMARK  status: ('A' for Active; 'I' for Inactive)
REMARK    1  A    between atoms: C_4  and  C_8
REMARK    2  A    between atoms: C_5  and  C_19
REMARK    3  A    between atoms: N_7  and  C_13
REMARK    4  A    between atoms: C_13  and  C_16
REMARK    5  A    between atoms: C_16  and  C_18
REMARK    6  A    between atoms: C_19  and  N_22
REMARK    7  A    between atoms: C_23  and  C_25
REMARK    8  A    between atoms: C_25  and  N_28
REMARK                            x       y       z     vdW  Elec       q    Type
REMARK                         _______ _______ _______ _____ _____    ______ ____
ROOT
ATOM      1  O   UNL     1     -36.126  22.760   5.257  0.00  0.00    -0.277 OA
ATOM      2  O   UNL     1     -35.209  20.586   3.727  0.00  0.00    -0.273 OA
ATOM      3  N   UNL     1     -36.247  22.517   2.936  0.00  0.00    -0.256 N 
ATOM      4  C   UNL     1     -36.447  23.176   4.147  0.00  0.00    +0.209 C 
ATOM      5  C   UNL     1     -35.641  21.265   2.799  0.00  0.00    +0.246 C 
ATOM      6  H   UNL     1     -36.554  22.967   2.116  0.00  0.00    +0.157 HD
ENDROOT
BRANCH   4   8
ATOM      7  N   UNL     1     -36.244  25.327   3.146  0.00  0.00    +0.400 N 
ATOM      8  C   UNL     1     -37.131  24.492   3.962  0.00  0.00    +0.022 C 
ATOM      9  C   UNL     1     -38.419  24.342   3.151  0.00  0.00    -0.014 C 
ATOM     10  C   UNL     1     -37.108  26.130   2.280  0.00  0.00    -0.076 C 
ATOM     11  C   UNL     1     -38.164  25.122   1.870  0.00  0.00    -0.024 C 
ATOM     12  H   UNL     1     -35.620  24.738   2.593  0.00  0.00    -0.078 HD
BRANCH   7  13
ATOM     13  C   UNL     1     -35.342  26.151   3.939  0.00  0.00    +0.003 C 
ATOM     14  C   UNL     1     -35.746  26.115   5.406  0.00  0.00    -0.015 C 
BRANCH  13  16
ATOM     15  O   UNL     1     -33.367  24.965   4.655  0.00  0.00    -0.297 OA
ATOM     16  C   UNL     1     -33.926  25.610   3.768  0.00  0.00    +0.148 C 
BRANCH  16  18
ATOM     17 CL   UNL     1     -33.611  24.734   1.225  0.00  0.00    -0.105 Cl
ATOM     18  C   UNL     1     -33.249  25.955   2.457  0.00  0.00    +0.157 C 
ENDBRANCH  16  18
ENDBRANCH  13  16
ENDBRANCH   7  13
ENDBRANCH   4   8
BRANCH   5  19
ATOM     19  C   UNL     1     -35.523  20.847   1.338  0.00  0.00    +0.149 C 
ATOM     20  C   UNL     1     -36.712  19.993   0.925  0.00  0.00    +0.031 C 
BRANCH  19  22
ATOM     21  O   UNL     1     -33.231  21.704  -0.175  0.00  0.00    -0.273 OA
ATOM     22  N   UNL     1     -34.283  20.134   1.173  0.00  0.00    -0.297 N 
ATOM     23  C   UNL     1     -33.225  20.628   0.419  0.00  0.00    +0.241 C 
ATOM     24  H   UNL     1     -34.181  19.259   1.612  0.00  0.00    +0.150 HD
BRANCH  23  25
ATOM     25  C   UNL     1     -32.016  19.702   0.446  0.00  0.00    +0.149 C 
ATOM     26  C   UNL     1     -30.907  20.227  -0.452  0.00  0.00    +0.031 C 
BRANCH  25  28
ATOM     27  O   UNL     1     -30.862  17.145   1.192  0.00  0.00    -0.275 OA
ATOM     28  N   UNL     1     -32.449  18.393   0.032  0.00  0.00    -0.298 N 
ATOM     29  C   UNL     1     -31.833  17.220   0.443  0.00  0.00    +0.223 C 
ATOM     30  C   UNL     1     -32.502  15.993  -0.116  0.00  0.00    +0.095 C 
ATOM     31  H   UNL     1     -33.224  18.327  -0.573  0.00  0.00    +0.150 HD
ENDBRANCH  25  28
ENDBRANCH  23  25
ENDBRANCH  19  22
ENDBRANCH   5  19
TORSDOF 8
ENDMDL
