MODEL 1
REMARK VINA RESULT:      -5.9      0.000      0.000
REMARK  Name = 54270644
REMARK  12 active torsions:
REMARK  status: ('A' for Active; 'I' for Inactive)
REMARK    1  A    between atoms: CA_1  and  C_4
REMARK    2  A    between atoms: CA_1  and  N_16
REMARK    3  A    between atoms: CA_1  and  CB_24
REMARK    4  A    between atoms: N_3  and  CA_6
REMARK    5  A    between atoms: CA_6  and  C_8
REMARK    6  A    between atoms: CA_6  and  CB_11
REMARK    7  A    between atoms: C_8  and  O_9
REMARK    8  A    between atoms: CB_11  and  CG_12
REMARK    9  A    between atoms: CG_12  and  SD_13
REMARK   10  A    between atoms: C_17  and  CA_19
REMARK   11  A    between atoms: CA_19  and  N_20
REMARK   12  A    between atoms: CB_24  and  CG_26
REMARK                            x       y       z     vdW  Elec       q    Type
REMARK                         _______ _______ _______ _____ _____    ______ ____
ROOT
ATOM      1  CA  TRP A   2     -35.264  22.926   2.300  0.00  0.00    +0.153 C 
ENDROOT
BRANCH   1   4
ATOM      2  O   TRP A   2     -36.067  25.012   1.363  0.00  0.00    -0.273 OA
ATOM      3  N   MET A   3     -37.604  23.526   2.271  0.00  0.00    -0.295 N 
ATOM      4  C   TRP A   2     -36.328  23.954   1.932  0.00  0.00    +0.241 C 
ATOM      5  H   MET A   3     -37.700  22.659   2.727  0.00  0.00    +0.150 HD
BRANCH   3   6
ATOM      6  CA  MET A   3     -38.799  24.290   1.987  0.00  0.00    +0.172 C 
BRANCH   6   8
ATOM      7  OXT MET A   3     -40.115  24.805   3.953  0.00  0.00    -0.248 OA
ATOM      8  C   MET A   3     -39.233  25.143   3.171  0.00  0.00    +0.332 C 
BRANCH   8   9
ATOM      9  O   MET A   3     -38.605  26.340   3.260  0.00  0.00    -0.479 OA
ATOM     10  H   MET A   3     -38.127  26.675   2.527  0.00  0.00    +0.295 HD
ENDBRANCH   8   9
ENDBRANCH   6   8
BRANCH   6  11
ATOM     11  CB  MET A   3     -39.934  23.395   1.472  0.00  0.00    +0.043 C 
BRANCH  11  12
ATOM     12  CG  MET A   3     -39.618  21.899   1.544  0.00  0.00    +0.060 C 
BRANCH  12  13
ATOM     13  SD  MET A   3     -39.902  21.114  -0.070  0.00  0.00    -0.139 S 
ATOM     14  CE  MET A   3     -38.385  20.137  -0.156  0.00  0.00    +0.069 C 
ENDBRANCH  12  13
ENDBRANCH  11  12
ENDBRANCH   6  11
ENDBRANCH   3   6
ENDBRANCH   1   4
BRANCH   1  16
ATOM     15  O   GLY A   1     -34.265  24.215   4.689  0.00  0.00    -0.277 OA
ATOM     16  N   TRP A   2     -35.502  22.536   3.667  0.00  0.00    -0.300 N 
ATOM     17  C   GLY A   1     -34.980  23.217   4.760  0.00  0.00    +0.201 C 
ATOM     18  H   TRP A   2     -36.064  21.746   3.836  0.00  0.00    +0.150 HD
BRANCH  17  19
ATOM     19  CA  GLY A   1     -35.367  22.568   6.072  0.00  0.00    +0.001 C 
BRANCH  19  20
ATOM     20  N   GLY A   1     -35.340  21.122   5.904  0.00  0.00    +0.386 N 
ATOM     21  H1  GLY A   1     -34.800  20.702   6.660  0.00  0.00    -0.089 HD
ATOM     22  H2  GLY A   1     -34.908  20.891   5.010  0.00  0.00    -0.089 HD
ATOM     23  H3  GLY A   1     -36.294  20.760   5.924  0.00  0.00    -0.089 HD
ENDBRANCH  19  20
ENDBRANCH  17  19
ENDBRANCH   1  16
BRANCH   1  24
ATOM     24  CB  TRP A   2     -35.322  21.733   1.339  0.00  0.00    +0.057 C 
BRANCH  24  26
ATOM     25  NE1 TRP A   2     -32.140  21.674  -0.514  0.00  0.00    -0.312 N 
ATOM     26  CG  TRP A   2     -33.993  21.443   0.688  0.00  0.00    -0.004 C 
ATOM     27  CD2 TRP A   2     -33.240  20.240   0.795  0.00  0.00    +0.011 C 
ATOM     28  CE2 TRP A   2     -32.083  20.410   0.032  0.00  0.00    +0.048 C 
ATOM     29  CD1 TRP A   2     -33.290  22.305  -0.123  0.00  0.00    +0.058 C 
ATOM     30  CE3 TRP A   2     -33.433  19.019   1.470  0.00  0.00    +0.001 C 
ATOM     31  CZ2 TRP A   2     -31.105  19.417  -0.090  0.00  0.00    +0.015 C 
ATOM     32  CZ3 TRP A   2     -32.464  18.015   1.358  0.00  0.00    +0.000 C 
ATOM     33  CH2 TRP A   2     -31.318  18.214   0.590  0.00  0.00    +0.001 C 
ATOM     34  HE1 TRP A   2     -31.453  22.065  -1.100  0.00  0.00    +0.152 HD
ENDBRANCH  24  26
ENDBRANCH   1  24
TORSDOF 12
ENDMDL
MODEL 2
REMARK VINA RESULT:      -5.8      2.193      2.872
REMARK  Name = 54270644
REMARK  12 active torsions:
REMARK  status: ('A' for Active; 'I' for Inactive)
REMARK    1  A    between atoms: CA_1  and  C_4
REMARK    2  A    between atoms: CA_1  and  N_16
REMARK    3  A    between atoms: CA_1  and  CB_24
REMARK    4  A    between atoms: N_3  and  CA_6
REMARK    5  A    between atoms: CA_6  and  C_8
REMARK    6  A    between atoms: CA_6  and  CB_11
REMARK    7  A    between atoms: C_8  and  O_9
REMARK    8  A    between atoms: CB_11  and  CG_12
REMARK    9  A    between atoms: CG_12  and  SD_13
REMARK   10  A    between atoms: C_17  and  CA_19
REMARK   11  A    between atoms: CA_19  and  N_20
REMARK   12  A    between atoms: CB_24  and  CG_26
REMARK                            x       y       z     vdW  Elec       q    Type
REMARK                         _______ _______ _______ _____ _____    ______ ____
ROOT
ATOM      1  CA  TRP A   2     -36.315  22.344   2.490  0.00  0.00    +0.153 C 
ENDROOT
BRANCH   1   4
ATOM      2  O   TRP A   2     -38.511  23.199   3.059  0.00  0.00    -0.273 OA
ATOM      3  N   MET A   3     -38.212  22.157   1.006  0.00  0.00    -0.295 N 
ATOM      4  C   TRP A   2     -37.797  22.611   2.250  0.00  0.00    +0.241 C 
ATOM      5  H   MET A   3     -37.556  21.696   0.434  0.00  0.00    +0.150 HD
BRANCH   3   6
ATOM      6  CA  MET A   3     -39.558  22.328   0.506  0.00  0.00    +0.172 C 
BRANCH   6   8
ATOM      7  OXT MET A   3     -41.449  20.863   0.135  0.00  0.00    -0.248 OA
ATOM      8  C   MET A   3     -40.233  20.999   0.196  0.00  0.00    +0.332 C 
BRANCH   8   9
ATOM      9  O   MET A   3     -39.379  19.957   0.048  0.00  0.00    -0.479 OA
ATOM     10  H   MET A   3     -38.519  20.101  -0.295  0.00  0.00    +0.295 HD
ENDBRANCH   8   9
ENDBRANCH   6   8
BRANCH   6  11
ATOM     11  CB  MET A   3     -39.602  23.290  -0.688  0.00  0.00    +0.043 C 
BRANCH  11  12
ATOM     12  CG  MET A   3     -40.771  24.276  -0.639  0.00  0.00    +0.060 C 
BRANCH  12  13
ATOM     13  SD  MET A   3     -41.233  24.625   1.083  0.00  0.00    -0.139 S 
ATOM     14  CE  MET A   3     -40.603  26.316   1.184  0.00  0.00    +0.069 C 
ENDBRANCH  12  13
ENDBRANCH  11  12
ENDBRANCH   6  11
ENDBRANCH   3   6
ENDBRANCH   1   4
BRANCH   1  16
ATOM     15  O   GLY A   1     -34.503  24.022   3.997  0.00  0.00    -0.277 OA
ATOM     16  N   TRP A   2     -36.108  22.346   3.917  0.00  0.00    -0.300 N 
ATOM     17  C   GLY A   1     -35.212  23.190   4.560  0.00  0.00    +0.201 C 
ATOM     18  H   TRP A   2     -36.628  21.714   4.464  0.00  0.00    +0.150 HD
BRANCH  17  19
ATOM     19  CA  GLY A   1     -35.178  22.951   6.055  0.00  0.00    +0.001 C 
BRANCH  19  20
ATOM     20  N   GLY A   1     -36.016  21.801   6.363  0.00  0.00    +0.386 N 
ATOM     21  H1  GLY A   1     -36.543  21.984   7.218  0.00  0.00    -0.089 HD
ATOM     22  H2  GLY A   1     -35.429  20.978   6.496  0.00  0.00    -0.089 HD
ATOM     23  H3  GLY A   1     -36.664  21.637   5.593  0.00  0.00    -0.089 HD
ENDBRANCH  19  20
ENDBRANCH  17  19
ENDBRANCH   1  16
BRANCH   1  24
ATOM     24  CB  TRP A   2     -35.901  21.017   1.845  0.00  0.00    +0.057 C 
BRANCH  24  26
ATOM     25  NE1 TRP A   2     -32.957  21.898  -0.184  0.00  0.00    -0.312 N 
ATOM     26  CG  TRP A   2     -34.600  21.117   1.088  0.00  0.00    -0.004 C 
ATOM     27  CD2 TRP A   2     -33.585  20.123   1.012  0.00  0.00    +0.011 C 
ATOM     28  CE2 TRP A   2     -32.566  20.637   0.208  0.00  0.00    +0.048 C 
ATOM     29  CD1 TRP A   2     -34.185  22.197   0.343  0.00  0.00    +0.058 C 
ATOM     30  CE3 TRP A   2     -33.435  18.830   1.552  0.00  0.00    +0.001 C 
ATOM     31  CZ2 TRP A   2     -31.400  19.921  -0.084  0.00  0.00    +0.015 C 
ATOM     32  CZ3 TRP A   2     -32.274  18.102   1.269  0.00  0.00    +0.000 C 
ATOM     33  CH2 TRP A   2     -31.273  18.641   0.463  0.00  0.00    +0.001 C 
ATOM     34  HE1 TRP A   2     -32.430  22.497  -0.761  0.00  0.00    +0.152 HD
ENDBRANCH  24  26
ENDBRANCH   1  24
TORSDOF 12
ENDMDL
MODEL 3
REMARK VINA RESULT:      -5.8      2.741      4.876
REMARK  Name = 54270644
REMARK  12 active torsions:
REMARK  status: ('A' for Active; 'I' for Inactive)
REMARK    1  A    between atoms: CA_1  and  C_4
REMARK    2  A    between atoms: CA_1  and  N_16
REMARK    3  A    between atoms: CA_1  and  CB_24
REMARK    4  A    between atoms: N_3  and  CA_6
REMARK    5  A    between atoms: CA_6  and  C_8
REMARK    6  A    between atoms: CA_6  and  CB_11
REMARK    7  A    between atoms: C_8  and  O_9
REMARK    8  A    between atoms: CB_11  and  CG_12
REMARK    9  A    between atoms: CG_12  and  SD_13
REMARK   10  A    between atoms: C_17  and  CA_19
REMARK   11  A    between atoms: CA_19  and  N_20
REMARK   12  A    between atoms: CB_24  and  CG_26
REMARK                            x       y       z     vdW  Elec       q    Type
REMARK                         _______ _______ _______ _____ _____    ______ ____
ROOT
ATOM      1  CA  TRP A   2     -37.296  22.974   2.985  0.00  0.00    +0.153 C 
ENDROOT
BRANCH   1   4
ATOM      2  O   TRP A   2     -36.077  22.916   5.079  0.00  0.00    -0.273 OA
ATOM      3  N   MET A   3     -35.484  24.492   3.480  0.00  0.00    -0.295 N 
ATOM      4  C   TRP A   2     -36.244  23.445   3.983  0.00  0.00    +0.241 C 
ATOM      5  H   MET A   3     -35.704  24.843   2.587  0.00  0.00    +0.150 HD
BRANCH   3   6
ATOM      6  CA  MET A   3     -34.385  25.093   4.203  0.00  0.00    +0.172 C 
BRANCH   6   8
ATOM      7  OXT MET A   3     -34.222  26.390   6.241  0.00  0.00    -0.248 OA
ATOM      8  C   MET A   3     -34.858  26.112   5.230  0.00  0.00    +0.332 C 
BRANCH   8   9
ATOM      9  O   MET A   3     -36.073  26.652   4.968  0.00  0.00    -0.479 OA
ATOM     10  H   MET A   3     -36.722  26.149   4.516  0.00  0.00    +0.295 HD
ENDBRANCH   8   9
ENDBRANCH   6   8
BRANCH   6  11
ATOM     11  CB  MET A   3     -33.334  25.679   3.251  0.00  0.00    +0.043 C 
BRANCH  11  12
ATOM     12  CG  MET A   3     -33.888  26.038   1.870  0.00  0.00    +0.060 C 
BRANCH  12  13
ATOM     13  SD  MET A   3     -34.405  27.780   1.830  0.00  0.00    -0.139 S 
ATOM     14  CE  MET A   3     -36.169  27.520   1.532  0.00  0.00    +0.069 C 
ENDBRANCH  12  13
ENDBRANCH  11  12
ENDBRANCH   6  11
ENDBRANCH   3   6
ENDBRANCH   1   4
BRANCH   1  16
ATOM     15  O   GLY A   1     -40.062  22.607   2.218  0.00  0.00    -0.277 OA
ATOM     16  N   TRP A   2     -38.335  23.973   2.957  0.00  0.00    -0.300 N 
ATOM     17  C   GLY A   1     -39.644  23.707   2.574  0.00  0.00    +0.201 C 
ATOM     18  H   TRP A   2     -38.105  24.892   3.225  0.00  0.00    +0.150 HD
BRANCH  17  19
ATOM     19  CA  GLY A   1     -40.510  24.949   2.611  0.00  0.00    +0.001 C 
BRANCH  19  20
ATOM     20  N   GLY A   1     -40.086  25.782   3.727  0.00  0.00    +0.386 N 
ATOM     21  H1  GLY A   1     -40.856  26.388   4.010  0.00  0.00    -0.089 HD
ATOM     22  H2  GLY A   1     -39.291  26.353   3.443  0.00  0.00    -0.089 HD
ATOM     23  H3  GLY A   1     -39.816  25.188   4.511  0.00  0.00    -0.089 HD
ENDBRANCH  19  20
ENDBRANCH  17  19
ENDBRANCH   1  16
BRANCH   1  24
ATOM     24  CB  TRP A   2     -36.665  22.757   1.606  0.00  0.00    +0.057 C 
BRANCH  24  26
ATOM     25  NE1 TRP A   2     -34.954  19.508   1.888  0.00  0.00    -0.312 N 
ATOM     26  CG  TRP A   2     -35.760  21.550   1.561  0.00  0.00    -0.004 C 
ATOM     27  CD2 TRP A   2     -34.503  21.457   0.901  0.00  0.00    +0.011 C 
ATOM     28  CE2 TRP A   2     -34.018  20.167   1.121  0.00  0.00    +0.048 C 
ATOM     29  CD1 TRP A   2     -36.010  20.336   2.158  0.00  0.00    +0.058 C 
ATOM     30  CE3 TRP A   2     -33.729  22.351   0.135  0.00  0.00    +0.001 C 
ATOM     31  CZ2 TRP A   2     -32.793  19.723   0.611  0.00  0.00    +0.015 C 
ATOM     32  CZ3 TRP A   2     -32.501  21.922  -0.382  0.00  0.00    +0.000 C 
ATOM     33  CH2 TRP A   2     -32.042  20.626  -0.146  0.00  0.00    +0.001 C 
ATOM     34  HE1 TRP A   2     -34.874  18.576   2.196  0.00  0.00    +0.152 HD
ENDBRANCH  24  26
ENDBRANCH   1  24
TORSDOF 12
ENDMDL
MODEL 4
REMARK VINA RESULT:      -5.8      3.252      4.958
REMARK  Name = 54270644
REMARK  12 active torsions:
REMARK  status: ('A' for Active; 'I' for Inactive)
REMARK    1  A    between atoms: CA_1  and  C_4
REMARK    2  A    between atoms: CA_1  and  N_16
REMARK    3  A    between atoms: CA_1  and  CB_24
REMARK    4  A    between atoms: N_3  and  CA_6
REMARK    5  A    between atoms: CA_6  and  C_8
REMARK    6  A    between atoms: CA_6  and  CB_11
REMARK    7  A    between atoms: C_8  and  O_9
REMARK    8  A    between atoms: CB_11  and  CG_12
REMARK    9  A    between atoms: CG_12  and  SD_13
REMARK   10  A    between atoms: C_17  and  CA_19
REMARK   11  A    between atoms: CA_19  and  N_20
REMARK   12  A    between atoms: CB_24  and  CG_26
REMARK                            x       y       z     vdW  Elec       q    Type
REMARK                         _______ _______ _______ _____ _____    ______ ____
ROOT
ATOM      1  CA  TRP A   2     -35.392  20.014   1.616  0.00  0.00    +0.153 C 
ENDROOT
BRANCH   1   4
ATOM      2  O   TRP A   2     -35.193  20.572   3.966  0.00  0.00    -0.273 OA
ATOM      3  N   MET A   3     -36.079  22.150   2.512  0.00  0.00    -0.295 N 
ATOM      4  C   TRP A   2     -35.546  20.911   2.839  0.00  0.00    +0.241 C 
ATOM      5  H   MET A   3     -36.330  22.318   1.575  0.00  0.00    +0.150 HD
BRANCH   3   6
ATOM      6  CA  MET A   3     -36.283  23.207   3.477  0.00  0.00    +0.172 C 
BRANCH   6   8
ATOM      7  OXT MET A   3     -38.079  24.044   2.086  0.00  0.00    -0.248 OA
ATOM      8  C   MET A   3     -37.533  24.024   3.184  0.00  0.00    +0.332 C 
BRANCH   8   9
ATOM      9  O   MET A   3     -37.968  24.778   4.223  0.00  0.00    -0.479 OA
ATOM     10  H   MET A   3     -38.538  24.405   4.866  0.00  0.00    +0.295 HD
ENDBRANCH   8   9
ENDBRANCH   6   8
BRANCH   6  11
ATOM     11  CB  MET A   3     -35.037  24.090   3.622  0.00  0.00    +0.043 C 
BRANCH  11  12
ATOM     12  CG  MET A   3     -34.521  24.194   5.059  0.00  0.00    +0.060 C 
BRANCH  12  13
ATOM     13  SD  MET A   3     -34.379  25.936   5.557  0.00  0.00    -0.139 S 
ATOM     14  CE  MET A   3     -34.942  26.693   4.016  0.00  0.00    +0.069 C 
ENDBRANCH  12  13
ENDBRANCH  11  12
ENDBRANCH   6  11
ENDBRANCH   3   6
ENDBRANCH   1   4
BRANCH   1  16
ATOM     15  O   GLY A   1     -36.493  17.982  -0.124  0.00  0.00    -0.277 OA
ATOM     16  N   TRP A   2     -36.636  20.066   0.890  0.00  0.00    -0.300 N 
ATOM     17  C   GLY A   1     -37.090  19.039   0.073  0.00  0.00    +0.201 C 
ATOM     18  H   TRP A   2     -37.194  20.873   0.977  0.00  0.00    +0.150 HD
BRANCH  17  19
ATOM     19  CA  GLY A   1     -38.409  19.378  -0.589  0.00  0.00    +0.001 C 
BRANCH  19  20
ATOM     20  N   GLY A   1     -38.978  18.161  -1.149  0.00  0.00    +0.386 N 
ATOM     21  H1  GLY A   1     -39.942  18.336  -1.435  0.00  0.00    -0.089 HD
ATOM     22  H2  GLY A   1     -38.962  17.422  -0.446  0.00  0.00    -0.089 HD
ATOM     23  H3  GLY A   1     -38.430  17.871  -1.960  0.00  0.00    -0.089 HD
ENDBRANCH  19  20
ENDBRANCH  17  19
ENDBRANCH   1  16
BRANCH   1  24
ATOM     24  CB  TRP A   2     -34.204  20.474   0.764  0.00  0.00    +0.057 C 
BRANCH  24  26
ATOM     25  NE1 TRP A   2     -31.769  17.772   1.334  0.00  0.00    -0.312 N 
ATOM     26  CG  TRP A   2     -33.028  19.534   0.847  0.00  0.00    -0.004 C 
ATOM     27  CD2 TRP A   2     -31.736  19.741   0.286  0.00  0.00    +0.011 C 
ATOM     28  CE2 TRP A   2     -30.965  18.622   0.606  0.00  0.00    +0.048 C 
ATOM     29  CD1 TRP A   2     -33.016  18.315   1.484  0.00  0.00    +0.058 C 
ATOM     30  CE3 TRP A   2     -31.147  20.777  -0.466  0.00  0.00    +0.001 C 
ATOM     31  CZ2 TRP A   2     -29.630  18.485   0.210  0.00  0.00    +0.015 C 
ATOM     32  CZ3 TRP A   2     -29.813  20.655  -0.869  0.00  0.00    +0.000 C 
ATOM     33  CH2 TRP A   2     -29.067  19.525  -0.535  0.00  0.00    +0.001 C 
ATOM     34  HE1 TRP A   2     -31.485  16.900   1.694  0.00  0.00    +0.152 HD
ENDBRANCH  24  26
ENDBRANCH   1  24
TORSDOF 12
ENDMDL
MODEL 5
REMARK VINA RESULT:      -5.7      2.907      5.021
REMARK  Name = 54270644
REMARK  12 active torsions:
REMARK  status: ('A' for Active; 'I' for Inactive)
REMARK    1  A    between atoms: CA_1  and  C_4
REMARK    2  A    between atoms: CA_1  and  N_16
REMARK    3  A    between atoms: CA_1  and  CB_24
REMARK    4  A    between atoms: N_3  and  CA_6
REMARK    5  A    between atoms: CA_6  and  C_8
REMARK    6  A    between atoms: CA_6  and  CB_11
REMARK    7  A    between atoms: C_8  and  O_9
REMARK    8  A    between atoms: CB_11  and  CG_12
REMARK    9  A    between atoms: CG_12  and  SD_13
REMARK   10  A    between atoms: C_17  and  CA_19
REMARK   11  A    between atoms: CA_19  and  N_20
REMARK   12  A    between atoms: CB_24  and  CG_26
REMARK                            x       y       z     vdW  Elec       q    Type
REMARK                         _______ _______ _______ _____ _____    ______ ____
ROOT
ATOM      1  CA  TRP A   2     -36.974  21.833   1.031  0.00  0.00    +0.153 C 
ENDROOT
BRANCH   1   4
ATOM      2  O   TRP A   2     -34.993  23.089   1.641  0.00  0.00    -0.273 OA
ATOM      3  N   MET A   3     -36.369  22.280   3.327  0.00  0.00    -0.295 N 
ATOM      4  C   TRP A   2     -35.984  22.462   2.006  0.00  0.00    +0.241 C 
ATOM      5  H   MET A   3     -37.184  21.759   3.509  0.00  0.00    +0.150 HD
BRANCH   3   6
ATOM      6  CA  MET A   3     -35.633  22.819   4.449  0.00  0.00    +0.172 C 
BRANCH   6   8
ATOM      7  OXT MET A   3     -35.935  22.168   6.761  0.00  0.00    -0.248 OA
ATOM      8  C   MET A   3     -35.588  21.856   5.627  0.00  0.00    +0.332 C 
BRANCH   8   9
ATOM      9  O   MET A   3     -35.078  20.635   5.335  0.00  0.00    -0.479 OA
ATOM     10  H   MET A   3     -35.179  19.928   5.942  0.00  0.00    +0.295 HD
ENDBRANCH   8   9
ENDBRANCH   6   8
BRANCH   6  11
ATOM     11  CB  MET A   3     -36.154  24.205   4.855  0.00  0.00    +0.043 C 
BRANCH  11  12
ATOM     12  CG  MET A   3     -35.323  25.361   4.295  0.00  0.00    +0.060 C 
BRANCH  12  13
ATOM     13  SD  MET A   3     -34.189  25.998   5.565  0.00  0.00    -0.139 S 
ATOM     14  CE  MET A   3     -33.260  27.151   4.530  0.00  0.00    +0.069 C 
ENDBRANCH  12  13
ENDBRANCH  11  12
ENDBRANCH   6  11
ENDBRANCH   3   6
ENDBRANCH   1   4
BRANCH   1  16
ATOM     15  O   GLY A   1     -39.504  22.352   2.336  0.00  0.00    -0.277 OA
ATOM     16  N   TRP A   2     -37.941  22.847   0.692  0.00  0.00    -0.300 N 
ATOM     17  C   GLY A   1     -39.136  23.026   1.376  0.00  0.00    +0.201 C 
ATOM     18  H   TRP A   2     -37.742  23.445  -0.066  0.00  0.00    +0.150 HD
BRANCH  17  19
ATOM     19  CA  GLY A   1     -39.969  24.143   0.783  0.00  0.00    +0.001 C 
BRANCH  19  20
ATOM     20  N   GLY A   1     -41.375  23.864   1.038  0.00  0.00    +0.386 N 
ATOM     21  H1  GLY A   1     -41.739  23.255   0.305  0.00  0.00    -0.089 HD
ATOM     22  H2  GLY A   1     -41.900  24.738   1.045  0.00  0.00    -0.089 HD
ATOM     23  H3  GLY A   1     -41.471  23.402   1.943  0.00  0.00    -0.089 HD
ENDBRANCH  19  20
ENDBRANCH  17  19
ENDBRANCH   1  16
BRANCH   1  24
ATOM     24  CB  TRP A   2     -36.240  21.296  -0.202  0.00  0.00    +0.057 C 
BRANCH  24  26
ATOM     25  NE1 TRP A   2     -35.457  17.732   0.289  0.00  0.00    -0.312 N 
ATOM     26  CG  TRP A   2     -35.648  19.927   0.021  0.00  0.00    -0.004 C 
ATOM     27  CD2 TRP A   2     -34.272  19.621   0.221  0.00  0.00    +0.011 C 
ATOM     28  CE2 TRP A   2     -34.180  18.237   0.387  0.00  0.00    +0.048 C 
ATOM     29  CD1 TRP A   2     -36.350  18.745   0.068  0.00  0.00    +0.058 C 
ATOM     30  CE3 TRP A   2     -33.094  20.390   0.277  0.00  0.00    +0.001 C 
ATOM     31  CZ2 TRP A   2     -32.962  17.582   0.606  0.00  0.00    +0.015 C 
ATOM     32  CZ3 TRP A   2     -31.869  19.750   0.496  0.00  0.00    +0.000 C 
ATOM     33  CH2 TRP A   2     -31.806  18.366   0.657  0.00  0.00    +0.001 C 
ATOM     34  HE1 TRP A   2     -35.692  16.779   0.367  0.00  0.00    +0.152 HD
ENDBRANCH  24  26
ENDBRANCH   1  24
TORSDOF 12
ENDMDL
MODEL 6
REMARK VINA RESULT:      -5.7      3.802      7.245
REMARK  Name = 54270644
REMARK  12 active torsions:
REMARK  status: ('A' for Active; 'I' for Inactive)
REMARK    1  A    between atoms: CA_1  and  C_4
REMARK    2  A    between atoms: CA_1  and  N_16
REMARK    3  A    between atoms: CA_1  and  CB_24
REMARK    4  A    between atoms: N_3  and  CA_6
REMARK    5  A    between atoms: CA_6  and  C_8
REMARK    6  A    between atoms: CA_6  and  CB_11
REMARK    7  A    between atoms: C_8  and  O_9
REMARK    8  A    between atoms: CB_11  and  CG_12
REMARK    9  A    between atoms: CG_12  and  SD_13
REMARK   10  A    between atoms: C_17  and  CA_19
REMARK   11  A    between atoms: CA_19  and  N_20
REMARK   12  A    between atoms: CB_24  and  CG_26
REMARK                            x       y       z     vdW  Elec       q    Type
REMARK                         _______ _______ _______ _____ _____    ______ ____
ROOT
ATOM      1  CA  TRP A   2     -37.396  21.223   1.427  0.00  0.00    +0.153 C 
ENDROOT
BRANCH   1   4
ATOM      2  O   TRP A   2     -35.108  21.054   2.208  0.00  0.00    -0.273 OA
ATOM      3  N   MET A   3     -36.614  22.339   3.422  0.00  0.00    -0.295 N 
ATOM      4  C   TRP A   2     -36.240  21.499   2.382  0.00  0.00    +0.241 C 
ATOM      5  H   MET A   3     -37.550  22.638   3.467  0.00  0.00    +0.150 HD
BRANCH   3   6
ATOM      6  CA  MET A   3     -35.695  22.799   4.439  0.00  0.00    +0.172 C 
BRANCH   6   8
ATOM      7  OXT MET A   3     -35.965  22.125   6.749  0.00  0.00    -0.248 OA
ATOM      8  C   MET A   3     -35.604  21.835   5.614  0.00  0.00    +0.332 C 
BRANCH   8   9
ATOM      9  O   MET A   3     -35.037  20.641   5.317  0.00  0.00    -0.479 OA
ATOM     10  H   MET A   3     -34.295  20.340   5.804  0.00  0.00    +0.295 HD
ENDBRANCH   8   9
ENDBRANCH   6   8
BRANCH   6  11
ATOM     11  CB  MET A   3     -36.019  24.230   4.890  0.00  0.00    +0.043 C 
BRANCH  11  12
ATOM     12  CG  MET A   3     -34.856  25.208   4.713  0.00  0.00    +0.060 C 
BRANCH  12  13
ATOM     13  SD  MET A   3     -34.570  25.538   2.949  0.00  0.00    -0.139 S 
ATOM     14  CE  MET A   3     -36.205  26.189   2.538  0.00  0.00    +0.069 C 
ENDBRANCH  12  13
ENDBRANCH  11  12
ENDBRANCH   6  11
ENDBRANCH   3   6
ENDBRANCH   1   4
BRANCH   1  16
ATOM     15  O   GLY A   1     -37.790  20.385  -1.314  0.00  0.00    -0.277 OA
ATOM     16  N   TRP A   2     -37.191  19.906   0.878  0.00  0.00    -0.300 N 
ATOM     17  C   GLY A   1     -37.406  19.591  -0.457  0.00  0.00    +0.201 C 
ATOM     18  H   TRP A   2     -36.883  19.192   1.483  0.00  0.00    +0.150 HD
BRANCH  17  19
ATOM     19  CA  GLY A   1     -37.141  18.128  -0.746  0.00  0.00    +0.001 C 
BRANCH  19  20
ATOM     20  N   GLY A   1     -37.361  17.364   0.474  0.00  0.00    +0.386 N 
ATOM     21  H1  GLY A   1     -38.267  17.612   0.872  0.00  0.00    -0.089 HD
ATOM     22  H2  GLY A   1     -36.625  17.577   1.147  0.00  0.00    -0.089 HD
ATOM     23  H3  GLY A   1     -37.346  16.367   0.258  0.00  0.00    -0.089 HD
ENDBRANCH  19  20
ENDBRANCH  17  19
ENDBRANCH   1  16
BRANCH   1  24
ATOM     24  CB  TRP A   2     -38.735  21.342   2.163  0.00  0.00    +0.057 C 
BRANCH  24  26
ATOM     25  NE1 TRP A   2     -41.159  23.117   0.034  0.00  0.00    -0.312 N 
ATOM     26  CG  TRP A   2     -39.695  22.284   1.480  0.00  0.00    -0.004 C 
ATOM     27  CD2 TRP A   2     -40.032  23.602   1.898  0.00  0.00    +0.011 C 
ATOM     28  CE2 TRP A   2     -40.952  24.102   0.974  0.00  0.00    +0.048 C 
ATOM     29  CD1 TRP A   2     -40.405  22.015   0.332  0.00  0.00    +0.058 C 
ATOM     30  CE3 TRP A   2     -39.642  24.419   2.977  0.00  0.00    +0.001 C 
ATOM     31  CZ2 TRP A   2     -41.503  25.385   1.076  0.00  0.00    +0.015 C 
ATOM     32  CZ3 TRP A   2     -40.184  25.704   3.092  0.00  0.00    +0.000 C 
ATOM     33  CH2 TRP A   2     -41.101  26.177   2.155  0.00  0.00    +0.001 C 
ATOM     34  HE1 TRP A   2     -41.764  23.196  -0.739  0.00  0.00    +0.152 HD
ENDBRANCH  24  26
ENDBRANCH   1  24
TORSDOF 12
ENDMDL
MODEL 7
REMARK VINA RESULT:      -5.7      3.725      5.877
REMARK  Name = 54270644
REMARK  12 active torsions:
REMARK  status: ('A' for Active; 'I' for Inactive)
REMARK    1  A    between atoms: CA_1  and  C_4
REMARK    2  A    between atoms: CA_1  and  N_16
REMARK    3  A    between atoms: CA_1  and  CB_24
REMARK    4  A    between atoms: N_3  and  CA_6
REMARK    5  A    between atoms: CA_6  and  C_8
REMARK    6  A    between atoms: CA_6  and  CB_11
REMARK    7  A    between atoms: C_8  and  O_9
REMARK    8  A    between atoms: CB_11  and  CG_12
REMARK    9  A    between atoms: CG_12  and  SD_13
REMARK   10  A    between atoms: C_17  and  CA_19
REMARK   11  A    between atoms: CA_19  and  N_20
REMARK   12  A    between atoms: CB_24  and  CG_26
REMARK                            x       y       z     vdW  Elec       q    Type
REMARK                         _______ _______ _______ _____ _____    ______ ____
ROOT
ATOM      1  CA  TRP A   2     -37.410  20.865   1.731  0.00  0.00    +0.153 C 
ENDROOT
BRANCH   1   4
ATOM      2  O   TRP A   2     -35.258  20.225   2.644  0.00  0.00    -0.273 OA
ATOM      3  N   MET A   3     -36.311  22.118   3.480  0.00  0.00    -0.295 N 
ATOM      4  C   TRP A   2     -36.211  21.001   2.662  0.00  0.00    +0.241 C 
ATOM      5  H   MET A   3     -37.121  22.674   3.414  0.00  0.00    +0.150 HD
BRANCH   3   6
ATOM      6  CA  MET A   3     -35.286  22.507   4.422  0.00  0.00    +0.172 C 
BRANCH   6   8
ATOM      7  OXT MET A   3     -35.827  22.425   6.779  0.00  0.00    -0.248 OA
ATOM      8  C   MET A   3     -35.456  21.830   5.774  0.00  0.00    +0.332 C 
BRANCH   8   9
ATOM      9  O   MET A   3     -35.109  20.520   5.794  0.00  0.00    -0.479 OA
ATOM     10  H   MET A   3     -34.205  20.274   5.785  0.00  0.00    +0.295 HD
ENDBRANCH   8   9
ENDBRANCH   6   8
BRANCH   6  11
ATOM     11  CB  MET A   3     -35.182  24.033   4.549  0.00  0.00    +0.043 C 
BRANCH  11  12
ATOM     12  CG  MET A   3     -36.393  24.780   3.984  0.00  0.00    +0.060 C 
BRANCH  12  13
ATOM     13  SD  MET A   3     -35.863  26.305   3.150  0.00  0.00    -0.139 S 
ATOM     14  CE  MET A   3     -37.243  26.462   1.994  0.00  0.00    +0.069 C 
ENDBRANCH  12  13
ENDBRANCH  11  12
ENDBRANCH   6  11
ENDBRANCH   3   6
ENDBRANCH   1   4
BRANCH   1  16
ATOM     15  O   GLY A   1     -40.276  21.188   1.966  0.00  0.00    -0.277 OA
ATOM     16  N   TRP A   2     -38.147  22.102   1.802  0.00  0.00    -0.300 N 
ATOM     17  C   GLY A   1     -39.530  22.164   1.915  0.00  0.00    +0.201 C 
ATOM     18  H   TRP A   2     -37.644  22.948   1.769  0.00  0.00    +0.150 HD
BRANCH  17  19
ATOM     19  CA  GLY A   1     -40.036  23.592   1.937  0.00  0.00    +0.001 C 
BRANCH  19  20
ATOM     20  N   GLY A   1     -39.706  24.184   3.226  0.00  0.00    +0.386 N 
ATOM     21  H1  GLY A   1     -40.494  24.070   3.864  0.00  0.00    -0.089 HD
ATOM     22  H2  GLY A   1     -39.510  25.177   3.104  0.00  0.00    -0.089 HD
ATOM     23  H3  GLY A   1     -38.885  23.720   3.613  0.00  0.00    -0.089 HD
ENDBRANCH  19  20
ENDBRANCH  17  19
ENDBRANCH   1  16
BRANCH   1  24
ATOM     24  CB  TRP A   2     -36.945  20.550   0.305  0.00  0.00    +0.057 C 
BRANCH  24  26
ATOM     25  NE1 TRP A   2     -39.699  19.364  -1.832  0.00  0.00    -0.312 N 
ATOM     26  CG  TRP A   2     -37.981  19.802  -0.496  0.00  0.00    -0.004 C 
ATOM     27  CD2 TRP A   2     -38.125  18.389  -0.587  0.00  0.00    +0.011 C 
ATOM     28  CE2 TRP A   2     -39.209  18.141  -1.431  0.00  0.00    +0.048 C 
ATOM     29  CD1 TRP A   2     -38.963  20.373  -1.272  0.00  0.00    +0.058 C 
ATOM     30  CE3 TRP A   2     -37.434  17.295  -0.032  0.00  0.00    +0.001 C 
ATOM     31  CZ2 TRP A   2     -39.639  16.847  -1.749  0.00  0.00    +0.015 C 
ATOM     32  CZ3 TRP A   2     -37.851  15.995  -0.340  0.00  0.00    +0.000 C 
ATOM     33  CH2 TRP A   2     -38.937  15.777  -1.186  0.00  0.00    +0.001 C 
ATOM     34  HE1 TRP A   2     -40.467  19.492  -2.434  0.00  0.00    +0.152 HD
ENDBRANCH  24  26
ENDBRANCH   1  24
TORSDOF 12
ENDMDL
MODEL 8
REMARK VINA RESULT:      -5.7      2.870      4.695
REMARK  Name = 54270644
REMARK  12 active torsions:
REMARK  status: ('A' for Active; 'I' for Inactive)
REMARK    1  A    between atoms: CA_1  and  C_4
REMARK    2  A    between atoms: CA_1  and  N_16
REMARK    3  A    between atoms: CA_1  and  CB_24
REMARK    4  A    between atoms: N_3  and  CA_6
REMARK    5  A    between atoms: CA_6  and  C_8
REMARK    6  A    between atoms: CA_6  and  CB_11
REMARK    7  A    between atoms: C_8  and  O_9
REMARK    8  A    between atoms: CB_11  and  CG_12
REMARK    9  A    between atoms: CG_12  and  SD_13
REMARK   10  A    between atoms: C_17  and  CA_19
REMARK   11  A    between atoms: CA_19  and  N_20
REMARK   12  A    between atoms: CB_24  and  CG_26
REMARK                            x       y       z     vdW  Elec       q    Type
REMARK                         _______ _______ _______ _____ _____    ______ ____
ROOT
ATOM      1  CA  TRP A   2     -35.871  20.822   2.183  0.00  0.00    +0.153 C 
ENDROOT
BRANCH   1   4
ATOM      2  O   TRP A   2     -35.188  21.070   4.495  0.00  0.00    -0.273 OA
ATOM      3  N   MET A   3     -35.926  22.943   3.338  0.00  0.00    -0.295 N 
ATOM      4  C   TRP A   2     -35.631  21.594   3.476  0.00  0.00    +0.241 C 
ATOM      5  H   MET A   3     -36.278  23.259   2.475  0.00  0.00    +0.150 HD
BRANCH   3   6
ATOM      6  CA  MET A   3     -35.739  23.909   4.398  0.00  0.00    +0.172 C 
BRANCH   6   8
ATOM      7  OXT MET A   3     -37.994  24.687   3.982  0.00  0.00    -0.248 OA
ATOM      8  C   MET A   3     -36.900  24.889   4.498  0.00  0.00    +0.332 C 
BRANCH   8   9
ATOM      9  O   MET A   3     -36.611  26.037   5.157  0.00  0.00    -0.479 OA
ATOM     10  H   MET A   3     -36.094  26.011   5.938  0.00  0.00    +0.295 HD
ENDBRANCH   8   9
ENDBRANCH   6   8
BRANCH   6  11
ATOM     11  CB  MET A   3     -34.387  24.625   4.282  0.00  0.00    +0.043 C 
BRANCH  11  12
ATOM     12  CG  MET A   3     -34.054  25.080   2.859  0.00  0.00    +0.060 C 
BRANCH  12  13
ATOM     13  SD  MET A   3     -33.188  26.677   2.892  0.00  0.00    -0.139 S 
ATOM     14  CE  MET A   3     -33.346  27.023   4.659  0.00  0.00    +0.069 C 
ENDBRANCH  12  13
ENDBRANCH  11  12
ENDBRANCH   6  11
ENDBRANCH   3   6
ENDBRANCH   1   4
BRANCH   1  16
ATOM     15  O   GLY A   1     -37.296  19.632  -0.036  0.00  0.00    -0.277 OA
ATOM     16  N   TRP A   2     -37.229  21.083   1.776  0.00  0.00    -0.300 N 
ATOM     17  C   GLY A   1     -37.837  20.462   0.692  0.00  0.00    +0.201 C 
ATOM     18  H   TRP A   2     -37.754  21.735   2.295  0.00  0.00    +0.150 HD
BRANCH  17  19
ATOM     19  CA  GLY A   1     -39.254  20.950   0.479  0.00  0.00    +0.001 C 
BRANCH  19  20
ATOM     20  N   GLY A   1     -39.842  21.261   1.775  0.00  0.00    +0.386 N 
ATOM     21  H1  GLY A   1     -40.551  20.564   2.002  0.00  0.00    -0.089 HD
ATOM     22  H2  GLY A   1     -40.272  22.185   1.740  0.00  0.00    -0.089 HD
ATOM     23  H3  GLY A   1     -39.114  21.251   2.489  0.00  0.00    -0.089 HD
ENDBRANCH  19  20
ENDBRANCH  17  19
ENDBRANCH   1  16
BRANCH   1  24
ATOM     24  CB  TRP A   2     -34.855  21.243   1.115  0.00  0.00    +0.057 C 
BRANCH  24  26
ATOM     25  NE1 TRP A   2     -32.442  18.464   1.210  0.00  0.00    -0.312 N 
ATOM     26  CG  TRP A   2     -33.704  20.277   0.990  0.00  0.00    -0.004 C 
ATOM     27  CD2 TRP A   2     -32.491  20.490   0.277  0.00  0.00    +0.011 C 
ATOM     28  CE2 TRP A   2     -31.717  19.339   0.431  0.00  0.00    +0.048 C 
ATOM     29  CD1 TRP A   2     -33.644  19.022   1.552  0.00  0.00    +0.058 C 
ATOM     30  CE3 TRP A   2     -31.977  21.556  -0.486  0.00  0.00    +0.001 C 
ATOM     31  CZ2 TRP A   2     -30.448  19.199  -0.143  0.00  0.00    +0.015 C 
ATOM     32  CZ3 TRP A   2     -30.709  21.432  -1.067  0.00  0.00    +0.000 C 
ATOM     33  CH2 TRP A   2     -29.958  20.270  -0.897  0.00  0.00    +0.001 C 
ATOM     34  HE1 TRP A   2     -32.138  17.568   1.481  0.00  0.00    +0.152 HD
ENDBRANCH  24  26
ENDBRANCH   1  24
TORSDOF 12
ENDMDL
MODEL 9
REMARK VINA RESULT:      -5.6      2.217      3.029
REMARK  Name = 54270644
REMARK  12 active torsions:
REMARK  status: ('A' for Active; 'I' for Inactive)
REMARK    1  A    between atoms: CA_1  and  C_4
REMARK    2  A    between atoms: CA_1  and  N_16
REMARK    3  A    between atoms: CA_1  and  CB_24
REMARK    4  A    between atoms: N_3  and  CA_6
REMARK    5  A    between atoms: CA_6  and  C_8
REMARK    6  A    between atoms: CA_6  and  CB_11
REMARK    7  A    between atoms: C_8  and  O_9
REMARK    8  A    between atoms: CB_11  and  CG_12
REMARK    9  A    between atoms: CG_12  and  SD_13
REMARK   10  A    between atoms: C_17  and  CA_19
REMARK   11  A    between atoms: CA_19  and  N_20
REMARK   12  A    between atoms: CB_24  and  CG_26
REMARK                            x       y       z     vdW  Elec       q    Type
REMARK                         _______ _______ _______ _____ _____    ______ ____
ROOT
ATOM      1  CA  TRP A   2     -36.391  22.118   2.392  0.00  0.00    +0.153 C 
ENDROOT
BRANCH   1   4
ATOM      2  O   TRP A   2     -38.714  21.446   2.231  0.00  0.00    -0.273 OA
ATOM      3  N   MET A   3     -38.204  23.711   2.286  0.00  0.00    -0.295 N 
ATOM      4  C   TRP A   2     -37.892  22.358   2.278  0.00  0.00    +0.241 C 
ATOM      5  H   MET A   3     -37.466  24.361   2.327  0.00  0.00    +0.150 HD
BRANCH   3   6
ATOM      6  CA  MET A   3     -39.560  24.212   2.240  0.00  0.00    +0.172 C 
BRANCH   6   8
ATOM      7  OXT MET A   3     -40.058  24.770  -0.062  0.00  0.00    -0.248 OA
ATOM      8  C   MET A   3     -40.208  23.999   0.879  0.00  0.00    +0.332 C 
BRANCH   8   9
ATOM      9  O   MET A   3     -41.015  22.914   0.805  0.00  0.00    -0.479 OA
ATOM     10  H   MET A   3     -40.744  22.101   1.185  0.00  0.00    +0.295 HD
ENDBRANCH   8   9
ENDBRANCH   6   8
BRANCH   6  11
ATOM     11  CB  MET A   3     -39.638  25.676   2.695  0.00  0.00    +0.043 C 
BRANCH  11  12
ATOM     12  CG  MET A   3     -40.918  26.012   3.463  0.00  0.00    +0.060 C 
BRANCH  12  13
ATOM     13  SD  MET A   3     -42.066  26.942   2.404  0.00  0.00    -0.139 S 
ATOM     14  CE  MET A   3     -43.361  27.245   3.627  0.00  0.00    +0.069 C 
ENDBRANCH  12  13
ENDBRANCH  11  12
ENDBRANCH   6  11
ENDBRANCH   3   6
ENDBRANCH   1   4
BRANCH   1  16
ATOM     15  O   GLY A   1     -35.731  24.225   4.263  0.00  0.00    -0.277 OA
ATOM     16  N   TRP A   2     -36.086  21.978   3.794  0.00  0.00    -0.300 N 
ATOM     17  C   GLY A   1     -35.779  23.050   4.623  0.00  0.00    +0.201 C 
ATOM     18  H   TRP A   2     -36.097  21.074   4.185  0.00  0.00    +0.150 HD
BRANCH  17  19
ATOM     19  CA  GLY A   1     -35.473  22.606   6.038  0.00  0.00    +0.001 C 
BRANCH  19  20
ATOM     20  N   GLY A   1     -35.300  21.160   6.046  0.00  0.00    +0.386 N 
ATOM     21  H1  GLY A   1     -34.619  20.903   6.761  0.00  0.00    -0.089 HD
ATOM     22  H2  GLY A   1     -34.966  20.851   5.133  0.00  0.00    -0.089 HD
ATOM     23  H3  GLY A   1     -36.194  20.712   6.251  0.00  0.00    -0.089 HD
ENDBRANCH  19  20
ENDBRANCH  17  19
ENDBRANCH   1  16
BRANCH   1  24
ATOM     24  CB  TRP A   2     -35.985  20.881   1.585  0.00  0.00    +0.057 C 
BRANCH  24  26
ATOM     25  NE1 TRP A   2     -32.955  21.885  -0.250  0.00  0.00    -0.312 N 
ATOM     26  CG  TRP A   2     -34.644  21.035   0.913  0.00  0.00    -0.004 C 
ATOM     27  CD2 TRP A   2     -33.587  20.081   0.902  0.00  0.00    +0.011 C 
ATOM     28  CE2 TRP A   2     -32.540  20.639   0.166  0.00  0.00    +0.048 C 
ATOM     29  CD1 TRP A   2     -34.225  22.132   0.197  0.00  0.00    +0.058 C 
ATOM     30  CE3 TRP A   2     -33.421  18.794   1.449  0.00  0.00    +0.001 C 
ATOM     31  CZ2 TRP A   2     -31.329  19.971  -0.051  0.00  0.00    +0.015 C 
ATOM     32  CZ3 TRP A   2     -32.216  18.113   1.241  0.00  0.00    +0.000 C 
ATOM     33  CH2 TRP A   2     -31.187  18.695   0.502  0.00  0.00    +0.001 C 
ATOM     34  HE1 TRP A   2     -32.415  22.506  -0.790  0.00  0.00    +0.152 HD
ENDBRANCH  24  26
ENDBRANCH   1  24
TORSDOF 12
ENDMDL
