MODEL 1
REMARK VINA RESULT:      -6.1      0.000      0.000
REMARK  Name = 50986189
REMARK  9 active torsions:
REMARK  status: ('A' for Active; 'I' for Inactive)
REMARK    1  A    between atoms: C_1  and  C_3
REMARK    2  A    between atoms: C_2  and  C_14
REMARK    3  A    between atoms: C_6  and  O_9
REMARK    4  A    between atoms: C_7  and  O_11
REMARK    5  A    between atoms: C_14  and  O_15
REMARK    6  A    between atoms: O_15  and  C_16
REMARK    7  A    between atoms: C_16  and  C_19
REMARK    8  A    between atoms: C_16  and  C_20
REMARK    9  A    between atoms: C_20  and  C_23
REMARK                            x       y       z     vdW  Elec       q    Type
REMARK                         _______ _______ _______ _____ _____    ______ ____
ROOT
ATOM      1  C   UNL     1     -35.338  21.393   1.518  0.00  0.00    +0.007 C 
ATOM      2  C   UNL     1     -35.394  22.574   2.150  0.00  0.00    +0.082 C 
ENDROOT
BRANCH   1   3
ATOM      3  C   UNL     1     -34.095  20.747   1.062  0.00  0.00    +0.003 C 
ATOM      4  C   UNL     1     -33.767  19.469   1.515  0.00  0.00    +0.040 C 
ATOM      5  C   UNL     1     -33.246  21.411   0.177  0.00  0.00    +0.003 C 
ATOM      6  C   UNL     1     -32.590  18.856   1.084  0.00  0.00    +0.167 C 
ATOM      7  C   UNL     1     -31.742  19.521   0.199  0.00  0.00    +0.167 C 
ATOM      8  C   UNL     1     -32.069  20.798  -0.254  0.00  0.00    +0.040 C 
BRANCH   6   9
ATOM      9  O   UNL     1     -32.280  17.608   1.533  0.00  0.00    -0.503 OA
ATOM     10  H   UNL     1     -31.886  16.986   0.953  0.00  0.00    +0.292 HD
ENDBRANCH   6   9
BRANCH   7  11
ATOM     11  O   UNL     1     -30.590  18.934  -0.230  0.00  0.00    -0.503 OA
ATOM     12  H   UNL     1     -29.761  19.302   0.007  0.00  0.00    +0.292 HD
ENDBRANCH   7  11
ENDBRANCH   1   3
BRANCH   2  14
ATOM     13  O   UNL     1     -37.527  23.635   1.830  0.00  0.00    -0.245 OA
ATOM     14  C   UNL     1     -36.706  23.116   2.570  0.00  0.00    +0.342 C 
BRANCH  14  15
ATOM     15  O   UNL     1     -36.822  22.930   3.914  0.00  0.00    -0.437 OA
BRANCH  15  16
ATOM     16  C   UNL     1     -35.620  23.095   4.666  0.00  0.00    +0.282 C 
BRANCH  16  19
ATOM     17  O   UNL     1     -34.991  20.840   5.115  0.00  0.00    -0.242 OA
ATOM     18  O   UNL     1     -35.980  22.076   6.761  0.00  0.00    -0.242 OA
ATOM     19  C   UNL     1     -35.518  21.879   5.599  0.00  0.00    +0.405 C 
ENDBRANCH  16  19
BRANCH  16  20
ATOM     20  C   UNL     1     -35.676  24.440   5.380  0.00  0.00    +0.169 C 
BRANCH  20  23
ATOM     21  O   UNL     1     -34.568  26.538   5.630  0.00  0.00    -0.246 OA
ATOM     22  O   UNL     1     -33.513  24.832   4.539  0.00  0.00    -0.246 OA
ATOM     23  C   UNL     1     -34.472  25.368   5.168  0.00  0.00    +0.369 C 
ENDBRANCH  20  23
ENDBRANCH  16  20
ENDBRANCH  15  16
ENDBRANCH  14  15
ENDBRANCH   2  14
TORSDOF 9
ENDMDL
MODEL 2
REMARK VINA RESULT:      -6.1      3.643      6.801
REMARK  Name = 50986189
REMARK  9 active torsions:
REMARK  status: ('A' for Active; 'I' for Inactive)
REMARK    1  A    between atoms: C_1  and  C_3
REMARK    2  A    between atoms: C_2  and  C_14
REMARK    3  A    between atoms: C_6  and  O_9
REMARK    4  A    between atoms: C_7  and  O_11
REMARK    5  A    between atoms: C_14  and  O_15
REMARK    6  A    between atoms: O_15  and  C_16
REMARK    7  A    between atoms: C_16  and  C_19
REMARK    8  A    between atoms: C_16  and  C_20
REMARK    9  A    between atoms: C_20  and  C_23
REMARK                            x       y       z     vdW  Elec       q    Type
REMARK                         _______ _______ _______ _____ _____    ______ ____
ROOT
ATOM      1  C   UNL     1     -34.369  25.289   5.694  0.00  0.00    +0.007 C 
ATOM      2  C   UNL     1     -33.380  26.080   5.255  0.00  0.00    +0.082 C 
ENDROOT
BRANCH   1   3
ATOM      3  C   UNL     1     -34.808  24.050   5.029  0.00  0.00    +0.003 C 
ATOM      4  C   UNL     1     -34.931  22.870   5.763  0.00  0.00    +0.040 C 
ATOM      5  C   UNL     1     -35.101  24.055   3.665  0.00  0.00    +0.003 C 
ATOM      6  C   UNL     1     -35.346  21.696   5.133  0.00  0.00    +0.167 C 
ATOM      7  C   UNL     1     -35.639  21.703   3.770  0.00  0.00    +0.167 C 
ATOM      8  C   UNL     1     -35.516  22.882   3.036  0.00  0.00    +0.040 C 
BRANCH   6   9
ATOM      9  O   UNL     1     -35.462  20.551   5.861  0.00  0.00    -0.503 OA
ATOM     10  H   UNL     1     -34.954  19.796   5.632  0.00  0.00    +0.292 HD
ENDBRANCH   6   9
BRANCH   7  11
ATOM     11  O   UNL     1     -36.045  20.564   3.143  0.00  0.00    -0.503 OA
ATOM     12  H   UNL     1     -36.553  20.618   2.357  0.00  0.00    +0.292 HD
ENDBRANCH   7  11
ENDBRANCH   1   3
BRANCH   2  14
ATOM     13  O   UNL     1     -32.967  27.377   7.236  0.00  0.00    -0.245 OA
ATOM     14  C   UNL     1     -33.023  27.296   6.019  0.00  0.00    +0.342 C 
BRANCH  14  15
ATOM     15  O   UNL     1     -32.775  28.292   5.124  0.00  0.00    -0.437 OA
BRANCH  15  16
ATOM     16  C   UNL     1     -31.831  29.278   5.543  0.00  0.00    +0.282 C 
BRANCH  16  19
ATOM     17  O   UNL     1     -31.362  31.503   4.829  0.00  0.00    -0.242 OA
ATOM     18  O   UNL     1     -33.405  30.589   4.377  0.00  0.00    -0.242 OA
ATOM     19  C   UNL     1     -32.232  30.589   4.851  0.00  0.00    +0.405 C 
ENDBRANCH  16  19
BRANCH  16  20
ATOM     20  C   UNL     1     -30.431  28.782   5.203  0.00  0.00    +0.169 C 
BRANCH  20  23
ATOM     21  O   UNL     1     -29.199  29.535   7.102  0.00  0.00    -0.246 OA
ATOM     22  O   UNL     1     -29.124  27.330   6.515  0.00  0.00    -0.246 OA
ATOM     23  C   UNL     1     -29.494  28.535   6.393  0.00  0.00    +0.369 C 
ENDBRANCH  20  23
ENDBRANCH  16  20
ENDBRANCH  15  16
ENDBRANCH  14  15
ENDBRANCH   2  14
TORSDOF 9
ENDMDL
MODEL 3
REMARK VINA RESULT:      -5.9      1.193      1.962
REMARK  Name = 50986189
REMARK  9 active torsions:
REMARK  status: ('A' for Active; 'I' for Inactive)
REMARK    1  A    between atoms: C_1  and  C_3
REMARK    2  A    between atoms: C_2  and  C_14
REMARK    3  A    between atoms: C_6  and  O_9
REMARK    4  A    between atoms: C_7  and  O_11
REMARK    5  A    between atoms: C_14  and  O_15
REMARK    6  A    between atoms: O_15  and  C_16
REMARK    7  A    between atoms: C_16  and  C_19
REMARK    8  A    between atoms: C_16  and  C_20
REMARK    9  A    between atoms: C_20  and  C_23
REMARK                            x       y       z     vdW  Elec       q    Type
REMARK                         _______ _______ _______ _____ _____    ______ ____
ROOT
ATOM      1  C   UNL     1     -35.208  21.096   1.455  0.00  0.00    +0.007 C 
ATOM      2  C   UNL     1     -36.321  21.306   2.172  0.00  0.00    +0.082 C 
ENDROOT
BRANCH   1   3
ATOM      3  C   UNL     1     -34.717  19.769   1.042  0.00  0.00    +0.003 C 
ATOM      4  C   UNL     1     -33.498  19.295   1.526  0.00  0.00    +0.040 C 
ATOM      5  C   UNL     1     -35.471  18.986   0.168  0.00  0.00    +0.003 C 
ATOM      6  C   UNL     1     -33.032  18.040   1.135  0.00  0.00    +0.167 C 
ATOM      7  C   UNL     1     -33.786  17.258   0.262  0.00  0.00    +0.167 C 
ATOM      8  C   UNL     1     -35.005  17.731  -0.223  0.00  0.00    +0.040 C 
BRANCH   6   9
ATOM      9  O   UNL     1     -31.840  17.588   1.615  0.00  0.00    -0.503 OA
ATOM     10  H   UNL     1     -31.057  17.705   1.111  0.00  0.00    +0.292 HD
ENDBRANCH   6   9
BRANCH   7  11
ATOM     11  O   UNL     1     -33.343  16.030  -0.128  0.00  0.00    -0.503 OA
ATOM     12  H   UNL     1     -33.927  15.437  -0.560  0.00  0.00    +0.292 HD
ENDBRANCH   7  11
ENDBRANCH   1   3
BRANCH   2  14
ATOM     13  O   UNL     1     -36.876  23.601   1.719  0.00  0.00    -0.245 OA
ATOM     14  C   UNL     1     -36.716  22.690   2.516  0.00  0.00    +0.342 C 
BRANCH  14  15
ATOM     15  O   UNL     1     -36.865  22.756   3.869  0.00  0.00    -0.437 OA
BRANCH  15  16
ATOM     16  C   UNL     1     -35.677  23.041   4.607  0.00  0.00    +0.282 C 
BRANCH  16  19
ATOM     17  O   UNL     1     -35.969  22.137   6.794  0.00  0.00    -0.242 OA
ATOM     18  O   UNL     1     -34.953  20.873   5.187  0.00  0.00    -0.242 OA
ATOM     19  C   UNL     1     -35.520  21.911   5.636  0.00  0.00    +0.405 C 
ENDBRANCH  16  19
BRANCH  16  20
ATOM     20  C   UNL     1     -35.805  24.435   5.209  0.00  0.00    +0.169 C 
BRANCH  20  23
ATOM     21  O   UNL     1     -33.522  24.807   4.625  0.00  0.00    -0.246 OA
ATOM     22  O   UNL     1     -34.741  26.508   5.536  0.00  0.00    -0.246 OA
ATOM     23  C   UNL     1     -34.562  25.330   5.108  0.00  0.00    +0.369 C 
ENDBRANCH  20  23
ENDBRANCH  16  20
ENDBRANCH  15  16
ENDBRANCH  14  15
ENDBRANCH   2  14
TORSDOF 9
ENDMDL
MODEL 4
REMARK VINA RESULT:      -5.9      3.512      6.024
REMARK  Name = 50986189
REMARK  9 active torsions:
REMARK  status: ('A' for Active; 'I' for Inactive)
REMARK    1  A    between atoms: C_1  and  C_3
REMARK    2  A    between atoms: C_2  and  C_14
REMARK    3  A    between atoms: C_6  and  O_9
REMARK    4  A    between atoms: C_7  and  O_11
REMARK    5  A    between atoms: C_14  and  O_15
REMARK    6  A    between atoms: O_15  and  C_16
REMARK    7  A    between atoms: C_16  and  C_19
REMARK    8  A    between atoms: C_16  and  C_20
REMARK    9  A    between atoms: C_20  and  C_23
REMARK                            x       y       z     vdW  Elec       q    Type
REMARK                         _______ _______ _______ _____ _____    ______ ____
ROOT
ATOM      1  C   UNL     1     -35.065  25.454   3.364  0.00  0.00    +0.007 C 
ATOM      2  C   UNL     1     -34.901  26.632   3.981  0.00  0.00    +0.082 C 
ENDROOT
BRANCH   1   3
ATOM      3  C   UNL     1     -35.167  24.155   4.053  0.00  0.00    +0.003 C 
ATOM      4  C   UNL     1     -35.429  22.997   3.322  0.00  0.00    +0.040 C 
ATOM      5  C   UNL     1     -34.999  24.083   5.436  0.00  0.00    +0.003 C 
ATOM      6  C   UNL     1     -35.526  21.767   3.974  0.00  0.00    +0.167 C 
ATOM      7  C   UNL     1     -35.359  21.696   5.356  0.00  0.00    +0.167 C 
ATOM      8  C   UNL     1     -35.096  22.854   6.088  0.00  0.00    +0.040 C 
BRANCH   6   9
ATOM      9  O   UNL     1     -35.783  20.643   3.249  0.00  0.00    -0.503 OA
ATOM     10  H   UNL     1     -35.436  20.555   2.382  0.00  0.00    +0.292 HD
ENDBRANCH   6   9
BRANCH   7  11
ATOM     11  O   UNL     1     -35.450  20.502   6.005  0.00  0.00    -0.503 OA
ATOM     12  H   UNL     1     -34.678  20.094   6.345  0.00  0.00    +0.292 HD
ENDBRANCH   7  11
ENDBRANCH   1   3
BRANCH   2  14
ATOM     13  O   UNL     1     -35.529  28.140   2.218  0.00  0.00    -0.245 OA
ATOM     14  C   UNL     1     -34.824  27.872   3.178  0.00  0.00    +0.342 C 
BRANCH  14  15
ATOM     15  O   UNL     1     -33.833  28.647   3.702  0.00  0.00    -0.437 OA
BRANCH  15  16
ATOM     16  C   UNL     1     -32.593  27.982   3.944  0.00  0.00    +0.282 C 
BRANCH  16  19
ATOM     17  O   UNL     1     -32.447  29.764   5.521  0.00  0.00    -0.242 OA
ATOM     18  O   UNL     1     -31.069  27.957   5.742  0.00  0.00    -0.242 OA
ATOM     19  C   UNL     1     -31.980  28.639   5.190  0.00  0.00    +0.405 C 
ENDBRANCH  16  19
BRANCH  16  20
ATOM     20  C   UNL     1     -31.738  28.083   2.687  0.00  0.00    +0.169 C 
BRANCH  20  23
ATOM     21  O   UNL     1     -31.962  26.550   0.873  0.00  0.00    -0.246 OA
ATOM     22  O   UNL     1     -30.605  26.021   2.631  0.00  0.00    -0.246 OA
ATOM     23  C   UNL     1     -31.408  26.757   1.986  0.00  0.00    +0.369 C 
ENDBRANCH  20  23
ENDBRANCH  16  20
ENDBRANCH  15  16
ENDBRANCH  14  15
ENDBRANCH   2  14
TORSDOF 9
ENDMDL
MODEL 5
REMARK VINA RESULT:      -5.8      4.658      8.089
REMARK  Name = 50986189
REMARK  9 active torsions:
REMARK  status: ('A' for Active; 'I' for Inactive)
REMARK    1  A    between atoms: C_1  and  C_3
REMARK    2  A    between atoms: C_2  and  C_14
REMARK    3  A    between atoms: C_6  and  O_9
REMARK    4  A    between atoms: C_7  and  O_11
REMARK    5  A    between atoms: C_14  and  O_15
REMARK    6  A    between atoms: O_15  and  C_16
REMARK    7  A    between atoms: C_16  and  C_19
REMARK    8  A    between atoms: C_16  and  C_20
REMARK    9  A    between atoms: C_20  and  C_23
REMARK                            x       y       z     vdW  Elec       q    Type
REMARK                         _______ _______ _______ _____ _____    ______ ____
ROOT
ATOM      1  C   UNL     1     -33.609  26.549   6.014  0.00  0.00    +0.007 C 
ATOM      2  C   UNL     1     -32.745  27.286   5.302  0.00  0.00    +0.082 C 
ENDROOT
BRANCH   1   3
ATOM      3  C   UNL     1     -34.522  25.545   5.440  0.00  0.00    +0.003 C 
ATOM      4  C   UNL     1     -35.848  25.884   5.170  0.00  0.00    +0.040 C 
ATOM      5  C   UNL     1     -34.062  24.257   5.166  0.00  0.00    +0.003 C 
ATOM      6  C   UNL     1     -36.714  24.934   4.628  0.00  0.00    +0.167 C 
ATOM      7  C   UNL     1     -36.254  23.647   4.354  0.00  0.00    +0.167 C 
ATOM      8  C   UNL     1     -34.928  23.308   4.624  0.00  0.00    +0.040 C 
BRANCH   6   9
ATOM      9  O   UNL     1     -38.007  25.276   4.368  0.00  0.00    -0.503 OA
ATOM     10  H   UNL     1     -38.707  24.828   4.803  0.00  0.00    +0.292 HD
ENDBRANCH   6   9
BRANCH   7  11
ATOM     11  O   UNL     1     -37.089  22.710   3.824  0.00  0.00    -0.503 OA
ATOM     12  H   UNL     1     -37.740  22.963   3.199  0.00  0.00    +0.292 HD
ENDBRANCH   7  11
ENDBRANCH   1   3
BRANCH   2  14
ATOM     13  O   UNL     1     -32.193  29.382   6.342  0.00  0.00    -0.245 OA
ATOM     14  C   UNL     1     -31.869  28.257   5.996  0.00  0.00    +0.342 C 
BRANCH  14  15
ATOM     15  O   UNL     1     -30.653  27.668   6.173  0.00  0.00    -0.437 OA
BRANCH  15  16
ATOM     16  C   UNL     1     -29.522  28.508   5.943  0.00  0.00    +0.282 C 
BRANCH  16  19
ATOM     17  O   UNL     1     -29.611  27.412   3.827  0.00  0.00    -0.242 OA
ATOM     18  O   UNL     1     -27.624  28.261   4.566  0.00  0.00    -0.242 OA
ATOM     19  C   UNL     1     -28.861  28.007   4.650  0.00  0.00    +0.405 C 
ENDBRANCH  16  19
BRANCH  16  20
ATOM     20  C   UNL     1     -28.626  28.458   7.174  0.00  0.00    +0.169 C 
BRANCH  20  23
ATOM     21  O   UNL     1     -27.986  29.918   8.949  0.00  0.00    -0.246 OA
ATOM     22  O   UNL     1     -27.917  30.670   6.795  0.00  0.00    -0.246 OA
ATOM     23  C   UNL     1     -28.127  29.811   7.701  0.00  0.00    +0.369 C 
ENDBRANCH  20  23
ENDBRANCH  16  20
ENDBRANCH  15  16
ENDBRANCH  14  15
ENDBRANCH   2  14
TORSDOF 9
ENDMDL
MODEL 6
REMARK VINA RESULT:      -5.8      2.963      7.069
REMARK  Name = 50986189
REMARK  9 active torsions:
REMARK  status: ('A' for Active; 'I' for Inactive)
REMARK    1  A    between atoms: C_1  and  C_3
REMARK    2  A    between atoms: C_2  and  C_14
REMARK    3  A    between atoms: C_6  and  O_9
REMARK    4  A    between atoms: C_7  and  O_11
REMARK    5  A    between atoms: C_14  and  O_15
REMARK    6  A    between atoms: O_15  and  C_16
REMARK    7  A    between atoms: C_16  and  C_19
REMARK    8  A    between atoms: C_16  and  C_20
REMARK    9  A    between atoms: C_20  and  C_23
REMARK                            x       y       z     vdW  Elec       q    Type
REMARK                         _______ _______ _______ _____ _____    ______ ____
ROOT
ATOM      1  C   UNL     1     -34.443  25.326   5.891  0.00  0.00    +0.007 C 
ATOM      2  C   UNL     1     -34.392  24.164   5.226  0.00  0.00    +0.082 C 
ENDROOT
BRANCH   1   3
ATOM      3  C   UNL     1     -33.600  26.498   5.592  0.00  0.00    +0.003 C 
ATOM      4  C   UNL     1     -32.869  27.109   6.611  0.00  0.00    +0.040 C 
ATOM      5  C   UNL     1     -33.532  26.996   4.292  0.00  0.00    +0.003 C 
ATOM      6  C   UNL     1     -32.072  28.219   6.330  0.00  0.00    +0.167 C 
ATOM      7  C   UNL     1     -32.005  28.716   5.029  0.00  0.00    +0.167 C 
ATOM      8  C   UNL     1     -32.735  28.106   4.010  0.00  0.00    +0.040 C 
BRANCH   6   9
ATOM      9  O   UNL     1     -31.363  28.807   7.333  0.00  0.00    -0.503 OA
ATOM     10  H   UNL     1     -31.501  29.712   7.537  0.00  0.00    +0.292 HD
ENDBRANCH   6   9
BRANCH   7  11
ATOM     11  O   UNL     1     -31.230  29.799   4.740  0.00  0.00    -0.503 OA
ATOM     12  H   UNL     1     -30.303  29.759   4.871  0.00  0.00    +0.292 HD
ENDBRANCH   7  11
ENDBRANCH   1   3
BRANCH   2  14
ATOM     13  O   UNL     1     -34.991  22.096   6.296  0.00  0.00    -0.245 OA
ATOM     14  C   UNL     1     -35.299  23.061   5.614  0.00  0.00    +0.342 C 
BRANCH  14  15
ATOM     15  O   UNL     1     -36.523  23.320   5.075  0.00  0.00    -0.437 OA
BRANCH  15  16
ATOM     16  C   UNL     1     -36.526  23.676   3.692  0.00  0.00    +0.282 C 
BRANCH  16  19
ATOM     17  O   UNL     1     -37.061  25.964   3.293  0.00  0.00    -0.242 OA
ATOM     18  O   UNL     1     -38.745  24.470   3.673  0.00  0.00    -0.242 OA
ATOM     19  C   UNL     1     -37.537  24.822   3.538  0.00  0.00    +0.405 C 
ENDBRANCH  16  19
BRANCH  16  20
ATOM     20  C   UNL     1     -36.847  22.431   2.874  0.00  0.00    +0.169 C 
BRANCH  20  23
ATOM     21  O   UNL     1     -35.581  20.413   2.999  0.00  0.00    -0.246 OA
ATOM     22  O   UNL     1     -34.861  22.110   1.653  0.00  0.00    -0.246 OA
ATOM     23  C   UNL     1     -35.649  21.558   2.475  0.00  0.00    +0.369 C 
ENDBRANCH  20  23
ENDBRANCH  16  20
ENDBRANCH  15  16
ENDBRANCH  14  15
ENDBRANCH   2  14
TORSDOF 9
ENDMDL
MODEL 7
REMARK VINA RESULT:      -5.8      3.516      5.965
REMARK  Name = 50986189
REMARK  9 active torsions:
REMARK  status: ('A' for Active; 'I' for Inactive)
REMARK    1  A    between atoms: C_1  and  C_3
REMARK    2  A    between atoms: C_2  and  C_14
REMARK    3  A    between atoms: C_6  and  O_9
REMARK    4  A    between atoms: C_7  and  O_11
REMARK    5  A    between atoms: C_14  and  O_15
REMARK    6  A    between atoms: O_15  and  C_16
REMARK    7  A    between atoms: C_16  and  C_19
REMARK    8  A    between atoms: C_16  and  C_20
REMARK    9  A    between atoms: C_20  and  C_23
REMARK                            x       y       z     vdW  Elec       q    Type
REMARK                         _______ _______ _______ _____ _____    ______ ____
ROOT
ATOM      1  C   UNL     1     -36.297  25.523   3.555  0.00  0.00    +0.007 C 
ATOM      2  C   UNL     1     -35.948  25.901   2.317  0.00  0.00    +0.082 C 
ENDROOT
BRANCH   1   3
ATOM      3  C   UNL     1     -35.987  24.210   4.147  0.00  0.00    +0.003 C 
ATOM      4  C   UNL     1     -36.108  23.052   3.378  0.00  0.00    +0.040 C 
ATOM      5  C   UNL     1     -35.571  24.124   5.476  0.00  0.00    +0.003 C 
ATOM      6  C   UNL     1     -35.814  21.809   3.939  0.00  0.00    +0.167 C 
ATOM      7  C   UNL     1     -35.399  21.724   5.267  0.00  0.00    +0.167 C 
ATOM      8  C   UNL     1     -35.278  22.881   6.036  0.00  0.00    +0.040 C 
BRANCH   6   9
ATOM      9  O   UNL     1     -35.936  20.686   3.178  0.00  0.00    -0.503 OA
ATOM     10  H   UNL     1     -36.753  20.227   3.146  0.00  0.00    +0.292 HD
ENDBRANCH   6   9
BRANCH   7  11
ATOM     11  O   UNL     1     -35.109  20.516   5.826  0.00  0.00    -0.503 OA
ATOM     12  H   UNL     1     -34.406  19.999   5.485  0.00  0.00    +0.292 HD
ENDBRANCH   7  11
ENDBRANCH   1   3
BRANCH   2  14
ATOM     13  O   UNL     1     -37.442  27.641   1.596  0.00  0.00    -0.245 OA
ATOM     14  C   UNL     1     -36.309  27.254   1.838  0.00  0.00    +0.342 C 
BRANCH  14  15
ATOM     15  O   UNL     1     -35.159  27.975   1.719  0.00  0.00    -0.437 OA
BRANCH  15  16
ATOM     16  C   UNL     1     -34.749  28.680   2.890  0.00  0.00    +0.282 C 
BRANCH  16  19
ATOM     17  O   UNL     1     -35.070  30.543   1.438  0.00  0.00    -0.242 OA
ATOM     18  O   UNL     1     -35.290  30.830   3.693  0.00  0.00    -0.242 OA
ATOM     19  C   UNL     1     -35.065  30.162   2.641  0.00  0.00    +0.405 C 
ENDBRANCH  16  19
BRANCH  16  20
ATOM     20  C   UNL     1     -33.277  28.380   3.144  0.00  0.00    +0.169 C 
BRANCH  20  23
ATOM     21  O   UNL     1     -32.848  28.029   5.465  0.00  0.00    -0.246 OA
ATOM     22  O   UNL     1     -32.874  26.243   4.044  0.00  0.00    -0.246 OA
ATOM     23  C   UNL     1     -32.970  27.469   4.342  0.00  0.00    +0.369 C 
ENDBRANCH  20  23
ENDBRANCH  16  20
ENDBRANCH  15  16
ENDBRANCH  14  15
ENDBRANCH   2  14
TORSDOF 9
ENDMDL
MODEL 8
REMARK VINA RESULT:      -5.7      3.424      6.266
REMARK  Name = 50986189
REMARK  9 active torsions:
REMARK  status: ('A' for Active; 'I' for Inactive)
REMARK    1  A    between atoms: C_1  and  C_3
REMARK    2  A    between atoms: C_2  and  C_14
REMARK    3  A    between atoms: C_6  and  O_9
REMARK    4  A    between atoms: C_7  and  O_11
REMARK    5  A    between atoms: C_14  and  O_15
REMARK    6  A    between atoms: O_15  and  C_16
REMARK    7  A    between atoms: C_16  and  C_19
REMARK    8  A    between atoms: C_16  and  C_20
REMARK    9  A    between atoms: C_20  and  C_23
REMARK                            x       y       z     vdW  Elec       q    Type
REMARK                         _______ _______ _______ _____ _____    ______ ____
ROOT
ATOM      1  C   UNL     1     -34.425  25.361   5.558  0.00  0.00    +0.007 C 
ATOM      2  C   UNL     1     -33.378  26.092   5.150  0.00  0.00    +0.082 C 
ENDROOT
BRANCH   1   3
ATOM      3  C   UNL     1     -34.852  24.094   4.938  0.00  0.00    +0.003 C 
ATOM      4  C   UNL     1     -34.954  22.939   5.713  0.00  0.00    +0.040 C 
ATOM      5  C   UNL     1     -35.156  24.049   3.578  0.00  0.00    +0.003 C 
ATOM      6  C   UNL     1     -35.358  21.739   5.127  0.00  0.00    +0.167 C 
ATOM      7  C   UNL     1     -35.662  21.695   3.767  0.00  0.00    +0.167 C 
ATOM      8  C   UNL     1     -35.560  22.850   2.992  0.00  0.00    +0.040 C 
BRANCH   6   9
ATOM      9  O   UNL     1     -35.454  20.617   5.894  0.00  0.00    -0.503 OA
ATOM     10  H   UNL     1     -35.382  20.680   6.827  0.00  0.00    +0.292 HD
ENDBRANCH   6   9
BRANCH   7  11
ATOM     11  O   UNL     1     -36.058  20.530   3.182  0.00  0.00    -0.503 OA
ATOM     12  H   UNL     1     -36.489  20.547   2.350  0.00  0.00    +0.292 HD
ENDBRANCH   7  11
ENDBRANCH   1   3
BRANCH   2  14
ATOM     13  O   UNL     1     -32.830  27.443   7.061  0.00  0.00    -0.245 OA
ATOM     14  C   UNL     1     -33.042  27.345   5.862  0.00  0.00    +0.342 C 
BRANCH  14  15
ATOM     15  O   UNL     1     -33.013  28.351   4.944  0.00  0.00    -0.437 OA
BRANCH  15  16
ATOM     16  C   UNL     1     -32.378  28.038   3.705  0.00  0.00    +0.282 C 
BRANCH  16  19
ATOM     17  O   UNL     1     -30.760  29.788   3.659  0.00  0.00    -0.242 OA
ATOM     18  O   UNL     1     -30.080  27.644   4.052  0.00  0.00    -0.242 OA
ATOM     19  C   UNL     1     -30.933  28.548   3.813  0.00  0.00    +0.405 C 
ENDBRANCH  16  19
BRANCH  16  20
ATOM     20  C   UNL     1     -33.188  28.663   2.576  0.00  0.00    +0.169 C 
BRANCH  20  23
ATOM     21  O   UNL     1     -35.083  29.988   3.168  0.00  0.00    -0.246 OA
ATOM     22  O   UNL     1     -35.364  27.773   2.691  0.00  0.00    -0.246 OA
ATOM     23  C   UNL     1     -34.691  28.835   2.838  0.00  0.00    +0.369 C 
ENDBRANCH  20  23
ENDBRANCH  16  20
ENDBRANCH  15  16
ENDBRANCH  14  15
ENDBRANCH   2  14
TORSDOF 9
ENDMDL
MODEL 9
REMARK VINA RESULT:      -5.6      2.099      6.879
REMARK  Name = 50986189
REMARK  9 active torsions:
REMARK  status: ('A' for Active; 'I' for Inactive)
REMARK    1  A    between atoms: C_1  and  C_3
REMARK    2  A    between atoms: C_2  and  C_14
REMARK    3  A    between atoms: C_6  and  O_9
REMARK    4  A    between atoms: C_7  and  O_11
REMARK    5  A    between atoms: C_14  and  O_15
REMARK    6  A    between atoms: O_15  and  C_16
REMARK    7  A    between atoms: C_16  and  C_19
REMARK    8  A    between atoms: C_16  and  C_20
REMARK    9  A    between atoms: C_20  and  C_23
REMARK                            x       y       z     vdW  Elec       q    Type
REMARK                         _______ _______ _______ _____ _____    ______ ____
ROOT
ATOM      1  C   UNL     1     -35.712  21.620   3.252  0.00  0.00    +0.007 C 
ATOM      2  C   UNL     1     -35.298  21.435   1.991  0.00  0.00    +0.082 C 
ENDROOT
BRANCH   1   3
ATOM      3  C   UNL     1     -35.900  22.938   3.886  0.00  0.00    +0.003 C 
ATOM      4  C   UNL     1     -36.917  23.785   3.443  0.00  0.00    +0.040 C 
ATOM      5  C   UNL     1     -35.065  23.337   4.928  0.00  0.00    +0.003 C 
ATOM      6  C   UNL     1     -37.095  25.032   4.042  0.00  0.00    +0.167 C 
ATOM      7  C   UNL     1     -36.259  25.431   5.084  0.00  0.00    +0.167 C 
ATOM      8  C   UNL     1     -35.243  24.585   5.527  0.00  0.00    +0.040 C 
BRANCH   6   9
ATOM      9  O   UNL     1     -38.091  25.850   3.601  0.00  0.00    -0.503 OA
ATOM     10  H   UNL     1     -38.827  26.032   4.153  0.00  0.00    +0.292 HD
ENDBRANCH   6   9
BRANCH   7  11
ATOM     11  O   UNL     1     -36.423  26.646   5.678  0.00  0.00    -0.503 OA
ATOM     12  H   UNL     1     -35.897  27.374   5.408  0.00  0.00    +0.292 HD
ENDBRANCH   7  11
ENDBRANCH   1   3
BRANCH   2  14
ATOM     13  O   UNL     1     -36.035  19.422   0.904  0.00  0.00    -0.245 OA
ATOM     14  C   UNL     1     -35.157  20.059   1.464  0.00  0.00    +0.342 C 
BRANCH  14  15
ATOM     15  O   UNL     1     -33.885  19.644   1.719  0.00  0.00    -0.437 OA
BRANCH  15  16
ATOM     16  C   UNL     1     -33.157  19.157   0.591  0.00  0.00    +0.282 C 
BRANCH  16  19
ATOM     17  O   UNL     1     -33.371  16.793   0.378  0.00  0.00    -0.242 OA
ATOM     18  O   UNL     1     -31.758  17.652   1.746  0.00  0.00    -0.242 OA
ATOM     19  C   UNL     1     -32.727  17.723   0.935  0.00  0.00    +0.405 C 
ENDBRANCH  16  19
BRANCH  16  20
ATOM     20  C   UNL     1     -32.006  20.115   0.309  0.00  0.00    +0.169 C 
BRANCH  20  23
ATOM     21  O   UNL     1     -31.596  22.322  -0.499  0.00  0.00    -0.246 OA
ATOM     22  O   UNL     1     -33.303  21.097  -1.392  0.00  0.00    -0.246 OA
ATOM     23  C   UNL     1     -32.325  21.300  -0.615  0.00  0.00    +0.369 C 
ENDBRANCH  20  23
ENDBRANCH  16  20
ENDBRANCH  15  16
ENDBRANCH  14  15
ENDBRANCH   2  14
TORSDOF 9
ENDMDL
