MODEL 1
REMARK VINA RESULT:      -6.9      0.000      0.000
REMARK  Name = 500189
REMARK  8 active torsions:
REMARK  status: ('A' for Active; 'I' for Inactive)
REMARK    1  A    between atoms: C_3  and  C_7
REMARK    2  A    between atoms: C_4  and  C_18
REMARK    3  A    between atoms: C_7  and  C_8
REMARK    4  A    between atoms: C_11  and  O_14
REMARK    5  A    between atoms: C_13  and  O_16
REMARK    6  A    between atoms: C_18  and  C_19
REMARK    7  A    between atoms: C_22  and  O_25
REMARK    8  A    between atoms: C_24  and  O_27
REMARK                            x       y       z     vdW  Elec       q    Type
REMARK                         _______ _______ _______ _____ _____    ______ ____
ROOT
ATOM      1  O   UNL     1     -36.208  27.327   0.798  0.00  0.00    -0.448 OA
ATOM      2  O   UNL     1     -36.260  29.406   1.761  0.00  0.00    -0.250 OA
ATOM      3  C   UNL     1     -35.225  26.112   2.546  0.00  0.00    +0.059 C 
ATOM      4  C   UNL     1     -35.029  27.599   2.822  0.00  0.00    +0.107 C 
ATOM      5  C   UNL     1     -35.535  26.092   1.062  0.00  0.00    +0.209 C 
ATOM      6  C   UNL     1     -35.900  28.239   1.770  0.00  0.00    +0.317 C 
ENDROOT
BRANCH   3   7
ATOM      7  C   UNL     1     -36.394  25.547   3.358  0.00  0.00    +0.031 C 
BRANCH   7   8
ATOM      8  C   UNL     1     -36.039  24.239   4.018  0.00  0.00    -0.019 C 
ATOM      9  C   UNL     1     -36.160  23.058   3.301  0.00  0.00    +0.036 C 
ATOM     10  C   UNL     1     -35.599  24.237   5.333  0.00  0.00    -0.001 C 
ATOM     11  C   UNL     1     -35.832  21.848   3.912  0.00  0.00    +0.167 C 
ATOM     12  C   UNL     1     -35.271  23.027   5.945  0.00  0.00    +0.039 C 
ATOM     13  C   UNL     1     -35.388  21.832   5.234  0.00  0.00    +0.167 C 
BRANCH  11  14
ATOM     14  O   UNL     1     -35.949  20.689   3.208  0.00  0.00    -0.503 OA
ATOM     15  H   UNL     1     -35.691  20.659   2.307  0.00  0.00    +0.292 HD
ENDBRANCH  11  14
BRANCH  13  16
ATOM     16  O   UNL     1     -35.064  20.657   5.841  0.00  0.00    -0.503 OA
ATOM     17  H   UNL     1     -35.730  20.144   6.255  0.00  0.00    +0.292 HD
ENDBRANCH  13  16
ENDBRANCH   7   8
ENDBRANCH   3   7
BRANCH   4  18
ATOM     18  C   UNL     1     -33.587  28.054   2.641  0.00  0.00    +0.038 C 
BRANCH  18  19
ATOM     19  C   UNL     1     -32.954  28.450   3.950  0.00  0.00    -0.018 C 
ATOM     20  C   UNL     1     -32.817  27.503   4.955  0.00  0.00    +0.036 C 
ATOM     21  C   UNL     1     -32.519  29.754   4.129  0.00  0.00    -0.001 C 
ATOM     22  C   UNL     1     -32.233  27.870   6.167  0.00  0.00    +0.167 C 
ATOM     23  C   UNL     1     -31.933  30.121   5.341  0.00  0.00    +0.039 C 
ATOM     24  C   UNL     1     -31.790  29.179   6.360  0.00  0.00    +0.167 C 
BRANCH  22  25
ATOM     25  O   UNL     1     -32.097  26.941   7.154  0.00  0.00    -0.503 OA
ATOM     26  H   UNL     1     -32.288  27.170   8.042  0.00  0.00    +0.292 HD
ENDBRANCH  22  25
BRANCH  24  27
ATOM     27  O   UNL     1     -31.216  29.549   7.539  0.00  0.00    -0.503 OA
ATOM     28  H   UNL     1     -31.710  30.035   8.168  0.00  0.00    +0.292 HD
ENDBRANCH  24  27
ENDBRANCH  18  19
ENDBRANCH   4  18
TORSDOF 8
ENDMDL
MODEL 2
REMARK VINA RESULT:      -6.8      0.661      6.367
REMARK  Name = 500189
REMARK  8 active torsions:
REMARK  status: ('A' for Active; 'I' for Inactive)
REMARK    1  A    between atoms: C_3  and  C_7
REMARK    2  A    between atoms: C_4  and  C_18
REMARK    3  A    between atoms: C_7  and  C_8
REMARK    4  A    between atoms: C_11  and  O_14
REMARK    5  A    between atoms: C_13  and  O_16
REMARK    6  A    between atoms: C_18  and  C_19
REMARK    7  A    between atoms: C_22  and  O_25
REMARK    8  A    between atoms: C_24  and  O_27
REMARK                            x       y       z     vdW  Elec       q    Type
REMARK                         _______ _______ _______ _____ _____    ______ ____
ROOT
ATOM      1  O   UNL     1     -35.287  27.161   0.540  0.00  0.00    -0.448 OA
ATOM      2  O   UNL     1     -34.885  24.907   0.450  0.00  0.00    -0.250 OA
ATOM      3  C   UNL     1     -34.715  27.570   2.777  0.00  0.00    +0.059 C 
ATOM      4  C   UNL     1     -34.872  26.065   2.586  0.00  0.00    +0.107 C 
ATOM      5  C   UNL     1     -35.455  28.131   1.580  0.00  0.00    +0.209 C 
ATOM      6  C   UNL     1     -34.996  25.942   1.089  0.00  0.00    +0.317 C 
ENDROOT
BRANCH   3   7
ATOM      7  C   UNL     1     -33.241  27.982   2.753  0.00  0.00    +0.031 C 
BRANCH   7   8
ATOM      8  C   UNL     1     -32.745  28.379   4.120  0.00  0.00    -0.019 C 
ATOM      9  C   UNL     1     -32.722  27.436   5.137  0.00  0.00    +0.036 C 
ATOM     10  C   UNL     1     -32.322  29.681   4.339  0.00  0.00    -0.001 C 
ATOM     11  C   UNL     1     -32.263  27.805   6.402  0.00  0.00    +0.167 C 
ATOM     12  C   UNL     1     -31.863  30.049   5.604  0.00  0.00    +0.039 C 
ATOM     13  C   UNL     1     -31.834  29.111   6.636  0.00  0.00    +0.167 C 
BRANCH  11  14
ATOM     14  O   UNL     1     -32.238  26.879   7.401  0.00  0.00    -0.503 OA
ATOM     15  H   UNL     1     -31.846  26.041   7.253  0.00  0.00    +0.292 HD
ENDBRANCH  11  14
BRANCH  13  16
ATOM     16  O   UNL     1     -31.383  29.482   7.866  0.00  0.00    -0.503 OA
ATOM     17  H   UNL     1     -31.526  28.924   8.605  0.00  0.00    +0.292 HD
ENDBRANCH  13  16
ENDBRANCH   7   8
ENDBRANCH   3   7
BRANCH   4  18
ATOM     18  C   UNL     1     -36.121  25.506   3.254  0.00  0.00    +0.038 C 
BRANCH  18  19
ATOM     19  C   UNL     1     -35.847  24.202   3.957  0.00  0.00    -0.018 C 
ATOM     20  C   UNL     1     -35.972  23.010   3.258  0.00  0.00    +0.036 C 
ATOM     21  C   UNL     1     -35.473  24.213   5.292  0.00  0.00    -0.001 C 
ATOM     22  C   UNL     1     -35.720  21.804   3.909  0.00  0.00    +0.167 C 
ATOM     23  C   UNL     1     -35.219  23.006   5.944  0.00  0.00    +0.039 C 
ATOM     24  C   UNL     1     -35.343  21.801   5.252  0.00  0.00    +0.167 C 
BRANCH  22  25
ATOM     25  O   UNL     1     -35.842  20.633   3.223  0.00  0.00    -0.503 OA
ATOM     26  H   UNL     1     -36.593  20.089   3.354  0.00  0.00    +0.292 HD
ENDBRANCH  22  25
BRANCH  24  27
ATOM     27  O   UNL     1     -35.092  20.629   5.898  0.00  0.00    -0.503 OA
ATOM     28  H   UNL     1     -35.794  20.042   6.096  0.00  0.00    +0.292 HD
ENDBRANCH  24  27
ENDBRANCH  18  19
ENDBRANCH   4  18
TORSDOF 8
ENDMDL
MODEL 3
REMARK VINA RESULT:      -6.6      2.850      5.482
REMARK  Name = 500189
REMARK  8 active torsions:
REMARK  status: ('A' for Active; 'I' for Inactive)
REMARK    1  A    between atoms: C_3  and  C_7
REMARK    2  A    between atoms: C_4  and  C_18
REMARK    3  A    between atoms: C_7  and  C_8
REMARK    4  A    between atoms: C_11  and  O_14
REMARK    5  A    between atoms: C_13  and  O_16
REMARK    6  A    between atoms: C_18  and  C_19
REMARK    7  A    between atoms: C_22  and  O_25
REMARK    8  A    between atoms: C_24  and  O_27
REMARK                            x       y       z     vdW  Elec       q    Type
REMARK                         _______ _______ _______ _____ _____    ______ ____
ROOT
ATOM      1  O   UNL     1     -35.545  27.713   1.141  0.00  0.00    -0.448 OA
ATOM      2  O   UNL     1     -35.177  28.337   3.315  0.00  0.00    -0.250 OA
ATOM      3  C   UNL     1     -36.474  25.589   1.497  0.00  0.00    +0.059 C 
ATOM      4  C   UNL     1     -35.815  26.051   2.793  0.00  0.00    +0.107 C 
ATOM      5  C   UNL     1     -35.824  26.484   0.461  0.00  0.00    +0.209 C 
ATOM      6  C   UNL     1     -35.484  27.491   2.490  0.00  0.00    +0.317 C 
ENDROOT
BRANCH   3   7
ATOM      7  C   UNL     1     -37.989  25.809   1.538  0.00  0.00    +0.031 C 
BRANCH   7   8
ATOM      8  C   UNL     1     -38.750  24.522   1.340  0.00  0.00    -0.019 C 
ATOM      9  C   UNL     1     -38.297  23.362   1.952  0.00  0.00    +0.036 C 
ATOM     10  C   UNL     1     -39.888  24.518   0.549  0.00  0.00    -0.001 C 
ATOM     11  C   UNL     1     -39.001  22.172   1.769  0.00  0.00    +0.167 C 
ATOM     12  C   UNL     1     -40.592  23.328   0.366  0.00  0.00    +0.039 C 
ATOM     13  C   UNL     1     -40.147  22.154   0.976  0.00  0.00    +0.167 C 
BRANCH  11  14
ATOM     14  O   UNL     1     -38.558  21.033   2.370  0.00  0.00    -0.503 OA
ATOM     15  H   UNL     1     -37.654  20.946   2.602  0.00  0.00    +0.292 HD
ENDBRANCH  11  14
BRANCH  13  16
ATOM     16  O   UNL     1     -40.844  20.998   0.791  0.00  0.00    -0.503 OA
ATOM     17  H   UNL     1     -41.082  20.728  -0.074  0.00  0.00    +0.292 HD
ENDBRANCH  13  16
ENDBRANCH   7   8
ENDBRANCH   3   7
BRANCH   4  18
ATOM     18  C   UNL     1     -34.538  25.287   3.116  0.00  0.00    +0.038 C 
BRANCH  18  19
ATOM     19  C   UNL     1     -34.820  24.024   3.888  0.00  0.00    -0.018 C 
ATOM     20  C   UNL     1     -35.154  22.865   3.201  0.00  0.00    +0.036 C 
ATOM     21  C   UNL     1     -34.740  24.038   5.272  0.00  0.00    -0.001 C 
ATOM     22  C   UNL     1     -35.415  21.697   3.915  0.00  0.00    +0.167 C 
ATOM     23  C   UNL     1     -35.000  22.869   5.987  0.00  0.00    +0.039 C 
ATOM     24  C   UNL     1     -35.338  21.698   5.308  0.00  0.00    +0.167 C 
BRANCH  22  25
ATOM     25  O   UNL     1     -35.743  20.559   3.241  0.00  0.00    -0.503 OA
ATOM     26  H   UNL     1     -35.360  19.741   3.489  0.00  0.00    +0.292 HD
ENDBRANCH  22  25
BRANCH  24  27
ATOM     27  O   UNL     1     -35.589  20.562   6.016  0.00  0.00    -0.503 OA
ATOM     28  H   UNL     1     -35.482  20.556   6.946  0.00  0.00    +0.292 HD
ENDBRANCH  24  27
ENDBRANCH  18  19
ENDBRANCH   4  18
TORSDOF 8
ENDMDL
MODEL 4
REMARK VINA RESULT:      -6.5      3.854      5.563
REMARK  Name = 500189
REMARK  8 active torsions:
REMARK  status: ('A' for Active; 'I' for Inactive)
REMARK    1  A    between atoms: C_3  and  C_7
REMARK    2  A    between atoms: C_4  and  C_18
REMARK    3  A    between atoms: C_7  and  C_8
REMARK    4  A    between atoms: C_11  and  O_14
REMARK    5  A    between atoms: C_13  and  O_16
REMARK    6  A    between atoms: C_18  and  C_19
REMARK    7  A    between atoms: C_22  and  O_25
REMARK    8  A    between atoms: C_24  and  O_27
REMARK                            x       y       z     vdW  Elec       q    Type
REMARK                         _______ _______ _______ _____ _____    ______ ____
ROOT
ATOM      1  O   UNL     1     -38.018  27.292   1.241  0.00  0.00    -0.448 OA
ATOM      2  O   UNL     1     -39.034  26.329   3.055  0.00  0.00    -0.250 OA
ATOM      3  C   UNL     1     -36.598  25.536   0.610  0.00  0.00    +0.059 C 
ATOM      4  C   UNL     1     -37.115  25.257   2.018  0.00  0.00    +0.107 C 
ATOM      5  C   UNL     1     -36.852  27.022   0.456  0.00  0.00    +0.209 C 
ATOM      6  C   UNL     1     -38.174  26.317   2.187  0.00  0.00    +0.317 C 
ENDROOT
BRANCH   3   7
ATOM      7  C   UNL     1     -37.379  24.735  -0.435  0.00  0.00    +0.031 C 
BRANCH   7   8
ATOM      8  C   UNL     1     -37.385  23.260  -0.125  0.00  0.00    -0.019 C 
ATOM      9  C   UNL     1     -38.524  22.681   0.415  0.00  0.00    +0.036 C 
ATOM     10  C   UNL     1     -36.250  22.506  -0.382  0.00  0.00    -0.001 C 
ATOM     11  C   UNL     1     -38.528  21.316   0.702  0.00  0.00    +0.167 C 
ATOM     12  C   UNL     1     -36.255  21.141  -0.094  0.00  0.00    +0.039 C 
ATOM     13  C   UNL     1     -37.394  20.546   0.448  0.00  0.00    +0.167 C 
BRANCH  11  14
ATOM     14  O   UNL     1     -39.647  20.747   1.230  0.00  0.00    -0.503 OA
ATOM     15  H   UNL     1     -39.654  19.833   1.441  0.00  0.00    +0.292 HD
ENDBRANCH  11  14
BRANCH  13  16
ATOM     16  O   UNL     1     -37.387  19.212   0.723  0.00  0.00    -0.503 OA
ATOM     17  H   UNL     1     -37.728  18.603   0.097  0.00  0.00    +0.292 HD
ENDBRANCH  13  16
ENDBRANCH   7   8
ENDBRANCH   3   7
BRANCH   4  18
ATOM     18  C   UNL     1     -36.045  25.424   3.089  0.00  0.00    +0.038 C 
BRANCH  18  19
ATOM     19  C   UNL     1     -35.809  24.146   3.851  0.00  0.00    -0.018 C 
ATOM     20  C   UNL     1     -35.995  22.927   3.213  0.00  0.00    +0.036 C 
ATOM     21  C   UNL     1     -35.407  24.207   5.176  0.00  0.00    -0.001 C 
ATOM     22  C   UNL     1     -35.777  21.745   3.918  0.00  0.00    +0.167 C 
ATOM     23  C   UNL     1     -35.188  23.023   5.882  0.00  0.00    +0.039 C 
ATOM     24  C   UNL     1     -35.373  21.792   5.253  0.00  0.00    +0.167 C 
BRANCH  22  25
ATOM     25  O   UNL     1     -35.959  20.549   3.293  0.00  0.00    -0.503 OA
ATOM     26  H   UNL     1     -36.770  20.089   3.387  0.00  0.00    +0.292 HD
ENDBRANCH  22  25
BRANCH  24  27
ATOM     27  O   UNL     1     -35.155  20.643   5.951  0.00  0.00    -0.503 OA
ATOM     28  H   UNL     1     -34.740  20.676   6.790  0.00  0.00    +0.292 HD
ENDBRANCH  24  27
ENDBRANCH  18  19
ENDBRANCH   4  18
TORSDOF 8
ENDMDL
MODEL 5
REMARK VINA RESULT:      -6.5      3.913      6.847
REMARK  Name = 500189
REMARK  8 active torsions:
REMARK  status: ('A' for Active; 'I' for Inactive)
REMARK    1  A    between atoms: C_3  and  C_7
REMARK    2  A    between atoms: C_4  and  C_18
REMARK    3  A    between atoms: C_7  and  C_8
REMARK    4  A    between atoms: C_11  and  O_14
REMARK    5  A    between atoms: C_13  and  O_16
REMARK    6  A    between atoms: C_18  and  C_19
REMARK    7  A    between atoms: C_22  and  O_25
REMARK    8  A    between atoms: C_24  and  O_27
REMARK                            x       y       z     vdW  Elec       q    Type
REMARK                         _______ _______ _______ _____ _____    ______ ____
ROOT
ATOM      1  O   UNL     1     -33.150  25.627  -0.719  0.00  0.00    -0.448 OA
ATOM      2  O   UNL     1     -31.229  24.383  -0.606  0.00  0.00    -0.250 OA
ATOM      3  C   UNL     1     -34.495  24.404   0.763  0.00  0.00    +0.059 C 
ATOM      4  C   UNL     1     -33.281  23.555   0.400  0.00  0.00    +0.107 C 
ATOM      5  C   UNL     1     -34.520  25.434  -0.349  0.00  0.00    +0.209 C 
ATOM      6  C   UNL     1     -32.413  24.537  -0.345  0.00  0.00    +0.317 C 
ENDROOT
BRANCH   3   7
ATOM      7  C   UNL     1     -34.314  25.076   2.127  0.00  0.00    +0.031 C 
BRANCH   7   8
ATOM      8  C   UNL     1     -34.767  24.186   3.257  0.00  0.00    -0.019 C 
ATOM      9  C   UNL     1     -35.167  22.887   2.982  0.00  0.00    +0.036 C 
ATOM     10  C   UNL     1     -34.779  24.682   4.551  0.00  0.00    -0.001 C 
ATOM     11  C   UNL     1     -35.586  22.064   4.028  0.00  0.00    +0.167 C 
ATOM     12  C   UNL     1     -35.198  23.860   5.597  0.00  0.00    +0.039 C 
ATOM     13  C   UNL     1     -35.603  22.550   5.335  0.00  0.00    +0.167 C 
BRANCH  11  14
ATOM     14  O   UNL     1     -35.978  20.788   3.760  0.00  0.00    -0.503 OA
ATOM     15  H   UNL     1     -36.869  20.532   3.894  0.00  0.00    +0.292 HD
ENDBRANCH  11  14
BRANCH  13  16
ATOM     16  O   UNL     1     -36.008  21.756   6.364  0.00  0.00    -0.503 OA
ATOM     17  H   UNL     1     -35.772  21.973   7.244  0.00  0.00    +0.292 HD
ENDBRANCH  13  16
ENDBRANCH   7   8
ENDBRANCH   3   7
BRANCH   4  18
ATOM     18  C   UNL     1     -33.625  22.382  -0.508  0.00  0.00    +0.038 C 
BRANCH  18  19
ATOM     19  C   UNL     1     -33.122  21.075   0.047  0.00  0.00    -0.018 C 
ATOM     20  C   UNL     1     -31.838  20.650  -0.265  0.00  0.00    +0.036 C 
ATOM     21  C   UNL     1     -33.949  20.318   0.863  0.00  0.00    -0.001 C 
ATOM     22  C   UNL     1     -31.373  19.440   0.248  0.00  0.00    +0.167 C 
ATOM     23  C   UNL     1     -33.483  19.107   1.377  0.00  0.00    +0.039 C 
ATOM     24  C   UNL     1     -32.195  18.668   1.069  0.00  0.00    +0.167 C 
BRANCH  22  25
ATOM     25  O   UNL     1     -30.114  19.022  -0.058  0.00  0.00    -0.503 OA
ATOM     26  H   UNL     1     -29.373  19.442   0.331  0.00  0.00    +0.292 HD
ENDBRANCH  22  25
BRANCH  24  27
ATOM     27  O   UNL     1     -31.751  17.485   1.578  0.00  0.00    -0.503 OA
ATOM     28  H   UNL     1     -31.203  17.478   2.338  0.00  0.00    +0.292 HD
ENDBRANCH  24  27
ENDBRANCH  18  19
ENDBRANCH   4  18
TORSDOF 8
ENDMDL
MODEL 6
REMARK VINA RESULT:      -6.5      4.601      8.160
REMARK  Name = 500189
REMARK  8 active torsions:
REMARK  status: ('A' for Active; 'I' for Inactive)
REMARK    1  A    between atoms: C_3  and  C_7
REMARK    2  A    between atoms: C_4  and  C_18
REMARK    3  A    between atoms: C_7  and  C_8
REMARK    4  A    between atoms: C_11  and  O_14
REMARK    5  A    between atoms: C_13  and  O_16
REMARK    6  A    between atoms: C_18  and  C_19
REMARK    7  A    between atoms: C_22  and  O_25
REMARK    8  A    between atoms: C_24  and  O_27
REMARK                            x       y       z     vdW  Elec       q    Type
REMARK                         _______ _______ _______ _____ _____    ______ ____
ROOT
ATOM      1  O   UNL     1     -36.994  20.344   0.975  0.00  0.00    -0.448 OA
ATOM      2  O   UNL     1     -35.892  19.542  -0.868  0.00  0.00    -0.250 OA
ATOM      3  C   UNL     1     -35.228  21.479   2.021  0.00  0.00    +0.059 C 
ATOM      4  C   UNL     1     -34.646  20.559   0.954  0.00  0.00    +0.107 C 
ATOM      5  C   UNL     1     -36.610  20.894   2.240  0.00  0.00    +0.209 C 
ATOM      6  C   UNL     1     -35.879  20.092   0.223  0.00  0.00    +0.317 C 
ENDROOT
BRANCH   3   7
ATOM      7  C   UNL     1     -35.317  22.923   1.520  0.00  0.00    +0.031 C 
BRANCH   7   8
ATOM      8  C   UNL     1     -35.655  23.884   2.631  0.00  0.00    -0.019 C 
ATOM      9  C   UNL     1     -36.762  24.710   2.505  0.00  0.00    +0.036 C 
ATOM     10  C   UNL     1     -34.851  23.929   3.759  0.00  0.00    -0.001 C 
ATOM     11  C   UNL     1     -37.074  25.600   3.533  0.00  0.00    +0.167 C 
ATOM     12  C   UNL     1     -35.163  24.819   4.788  0.00  0.00    +0.039 C 
ATOM     13  C   UNL     1     -36.274  25.655   4.674  0.00  0.00    +0.167 C 
BRANCH  11  14
ATOM     14  O   UNL     1     -38.162  26.409   3.411  0.00  0.00    -0.503 OA
ATOM     15  H   UNL     1     -38.262  26.949   2.652  0.00  0.00    +0.292 HD
ENDBRANCH  11  14
BRANCH  13  16
ATOM     16  O   UNL     1     -36.569  26.518   5.685  0.00  0.00    -0.503 OA
ATOM     17  H   UNL     1     -37.090  26.231   6.409  0.00  0.00    +0.292 HD
ENDBRANCH  13  16
ENDBRANCH   7   8
ENDBRANCH   3   7
BRANCH   4  18
ATOM     18  C   UNL     1     -33.909  19.360   1.538  0.00  0.00    +0.038 C 
BRANCH  18  19
ATOM     19  C   UNL     1     -32.534  19.201   0.943  0.00  0.00    -0.018 C 
ATOM     20  C   UNL     1     -31.809  18.047   1.201  0.00  0.00    +0.036 C 
ATOM     21  C   UNL     1     -32.015  20.211   0.147  0.00  0.00    -0.001 C 
ATOM     22  C   UNL     1     -30.536  17.900   0.651  0.00  0.00    +0.167 C 
ATOM     23  C   UNL     1     -30.741  20.064  -0.404  0.00  0.00    +0.039 C 
ATOM     24  C   UNL     1     -30.002  18.908  -0.151  0.00  0.00    +0.167 C 
BRANCH  22  25
ATOM     25  O   UNL     1     -29.824  16.767   0.904  0.00  0.00    -0.503 OA
ATOM     26  H   UNL     1     -30.269  15.969   1.107  0.00  0.00    +0.292 HD
ENDBRANCH  22  25
BRANCH  24  27
ATOM     27  O   UNL     1     -28.760  18.776  -0.695  0.00  0.00    -0.503 OA
ATOM     28  H   UNL     1     -28.046  19.282  -0.363  0.00  0.00    +0.292 HD
ENDBRANCH  24  27
ENDBRANCH  18  19
ENDBRANCH   4  18
TORSDOF 8
ENDMDL
MODEL 7
REMARK VINA RESULT:      -6.4      3.177      6.111
REMARK  Name = 500189
REMARK  8 active torsions:
REMARK  status: ('A' for Active; 'I' for Inactive)
REMARK    1  A    between atoms: C_3  and  C_7
REMARK    2  A    between atoms: C_4  and  C_18
REMARK    3  A    between atoms: C_7  and  C_8
REMARK    4  A    between atoms: C_11  and  O_14
REMARK    5  A    between atoms: C_13  and  O_16
REMARK    6  A    between atoms: C_18  and  C_19
REMARK    7  A    between atoms: C_22  and  O_25
REMARK    8  A    between atoms: C_24  and  O_27
REMARK                            x       y       z     vdW  Elec       q    Type
REMARK                         _______ _______ _______ _____ _____    ______ ____
ROOT
ATOM      1  O   UNL     1     -34.993  27.777   1.215  0.00  0.00    -0.448 OA
ATOM      2  O   UNL     1     -34.953  26.828  -0.870  0.00  0.00    -0.250 OA
ATOM      3  C   UNL     1     -35.737  25.938   2.467  0.00  0.00    +0.059 C 
ATOM      4  C   UNL     1     -35.981  25.648   0.990  0.00  0.00    +0.107 C 
ATOM      5  C   UNL     1     -35.572  27.445   2.482  0.00  0.00    +0.209 C 
ATOM      6  C   UNL     1     -35.251  26.781   0.314  0.00  0.00    +0.317 C 
ENDROOT
BRANCH   3   7
ATOM      7  C   UNL     1     -34.467  25.243   2.966  0.00  0.00    +0.031 C 
BRANCH   7   8
ATOM      8  C   UNL     1     -34.782  24.008   3.770  0.00  0.00    -0.019 C 
ATOM      9  C   UNL     1     -35.178  22.851   3.116  0.00  0.00    +0.036 C 
ATOM     10  C   UNL     1     -34.671  24.048   5.152  0.00  0.00    -0.001 C 
ATOM     11  C   UNL     1     -35.470  21.708   3.861  0.00  0.00    +0.167 C 
ATOM     12  C   UNL     1     -34.963  22.905   5.897  0.00  0.00    +0.039 C 
ATOM     13  C   UNL     1     -35.362  21.735   5.251  0.00  0.00    +0.167 C 
BRANCH  11  14
ATOM     14  O   UNL     1     -35.857  20.571   3.219  0.00  0.00    -0.503 OA
ATOM     15  H   UNL     1     -36.699  20.198   3.394  0.00  0.00    +0.292 HD
ENDBRANCH  11  14
BRANCH  13  16
ATOM     16  O   UNL     1     -35.642  20.625   5.989  0.00  0.00    -0.503 OA
ATOM     17  H   UNL     1     -36.271  20.670   6.682  0.00  0.00    +0.292 HD
ENDBRANCH  13  16
ENDBRANCH   7   8
ENDBRANCH   3   7
BRANCH   4  18
ATOM     18  C   UNL     1     -37.455  25.687   0.610  0.00  0.00    +0.038 C 
BRANCH  18  19
ATOM     19  C   UNL     1     -38.181  24.441   1.045  0.00  0.00    -0.018 C 
ATOM     20  C   UNL     1     -37.649  23.198   0.732  0.00  0.00    +0.036 C 
ATOM     21  C   UNL     1     -39.369  24.555   1.751  0.00  0.00    -0.001 C 
ATOM     22  C   UNL     1     -38.322  22.044   1.134  0.00  0.00    +0.167 C 
ATOM     23  C   UNL     1     -40.042  23.400   2.153  0.00  0.00    +0.039 C 
ATOM     24  C   UNL     1     -39.518  22.145   1.844  0.00  0.00    +0.167 C 
BRANCH  22  25
ATOM     25  O   UNL     1     -37.800  20.824   0.828  0.00  0.00    -0.503 OA
ATOM     26  H   UNL     1     -38.272  20.044   1.044  0.00  0.00    +0.292 HD
ENDBRANCH  22  25
BRANCH  24  27
ATOM     27  O   UNL     1     -40.182  21.025   2.244  0.00  0.00    -0.503 OA
ATOM     28  H   UNL     1     -41.101  21.063   2.419  0.00  0.00    +0.292 HD
ENDBRANCH  24  27
ENDBRANCH  18  19
ENDBRANCH   4  18
TORSDOF 8
ENDMDL
MODEL 8
REMARK VINA RESULT:      -6.3      4.002      7.587
REMARK  Name = 500189
REMARK  8 active torsions:
REMARK  status: ('A' for Active; 'I' for Inactive)
REMARK    1  A    between atoms: C_3  and  C_7
REMARK    2  A    between atoms: C_4  and  C_18
REMARK    3  A    between atoms: C_7  and  C_8
REMARK    4  A    between atoms: C_11  and  O_14
REMARK    5  A    between atoms: C_13  and  O_16
REMARK    6  A    between atoms: C_18  and  C_19
REMARK    7  A    between atoms: C_22  and  O_25
REMARK    8  A    between atoms: C_24  and  O_27
REMARK                            x       y       z     vdW  Elec       q    Type
REMARK                         _______ _______ _______ _____ _____    ______ ____
ROOT
ATOM      1  O   UNL     1     -38.112  21.097   1.376  0.00  0.00    -0.448 OA
ATOM      2  O   UNL     1     -40.309  21.208   2.016  0.00  0.00    -0.250 OA
ATOM      3  C   UNL     1     -37.361  23.161   2.198  0.00  0.00    +0.059 C 
ATOM      4  C   UNL     1     -38.886  23.171   2.189  0.00  0.00    +0.107 C 
ATOM      5  C   UNL     1     -37.034  22.031   1.242  0.00  0.00    +0.209 C 
ATOM      6  C   UNL     1     -39.215  21.733   1.876  0.00  0.00    +0.317 C 
ENDROOT
BRANCH   3   7
ATOM      7  C   UNL     1     -36.816  22.869   3.599  0.00  0.00    +0.031 C 
BRANCH   7   8
ATOM      8  C   UNL     1     -35.980  24.007   4.126  0.00  0.00    -0.019 C 
ATOM      9  C   UNL     1     -36.201  25.292   3.652  0.00  0.00    +0.036 C 
ATOM     10  C   UNL     1     -35.002  23.752   5.074  0.00  0.00    -0.001 C 
ATOM     11  C   UNL     1     -35.426  26.345   4.139  0.00  0.00    +0.167 C 
ATOM     12  C   UNL     1     -34.228  24.804   5.562  0.00  0.00    +0.039 C 
ATOM     13  C   UNL     1     -34.440  26.101   5.094  0.00  0.00    +0.167 C 
BRANCH  11  14
ATOM     14  O   UNL     1     -35.644  27.607   3.676  0.00  0.00    -0.503 OA
ATOM     15  H   UNL     1     -36.172  28.203   4.169  0.00  0.00    +0.292 HD
ENDBRANCH  11  14
BRANCH  13  16
ATOM     16  O   UNL     1     -33.679  27.121   5.579  0.00  0.00    -0.503 OA
ATOM     17  H   UNL     1     -33.068  26.962   6.272  0.00  0.00    +0.292 HD
ENDBRANCH  13  16
ENDBRANCH   7   8
ENDBRANCH   3   7
BRANCH   4  18
ATOM     18  C   UNL     1     -39.470  24.078   1.114  0.00  0.00    +0.038 C 
BRANCH  18  19
ATOM     19  C   UNL     1     -40.616  24.904   1.637  0.00  0.00    -0.018 C 
ATOM     20  C   UNL     1     -40.406  25.759   2.710  0.00  0.00    +0.036 C 
ATOM     21  C   UNL     1     -41.862  24.798   1.038  0.00  0.00    -0.001 C 
ATOM     22  C   UNL     1     -41.467  26.523   3.194  0.00  0.00    +0.167 C 
ATOM     23  C   UNL     1     -42.923  25.563   1.523  0.00  0.00    +0.039 C 
ATOM     24  C   UNL     1     -42.726  26.425   2.601  0.00  0.00    +0.167 C 
BRANCH  22  25
ATOM     25  O   UNL     1     -41.262  27.362   4.247  0.00  0.00    -0.503 OA
ATOM     26  H   UNL     1     -41.550  28.252   4.200  0.00  0.00    +0.292 HD
ENDBRANCH  22  25
BRANCH  24  27
ATOM     27  O   UNL     1     -43.769  27.168   3.065  0.00  0.00    -0.503 OA
ATOM     28  H   UNL     1     -43.886  27.288   3.986  0.00  0.00    +0.292 HD
ENDBRANCH  24  27
ENDBRANCH  18  19
ENDBRANCH   4  18
TORSDOF 8
ENDMDL
MODEL 9
REMARK VINA RESULT:      -6.3      3.797      5.890
REMARK  Name = 500189
REMARK  8 active torsions:
REMARK  status: ('A' for Active; 'I' for Inactive)
REMARK    1  A    between atoms: C_3  and  C_7
REMARK    2  A    between atoms: C_4  and  C_18
REMARK    3  A    between atoms: C_7  and  C_8
REMARK    4  A    between atoms: C_11  and  O_14
REMARK    5  A    between atoms: C_13  and  O_16
REMARK    6  A    between atoms: C_18  and  C_19
REMARK    7  A    between atoms: C_22  and  O_25
REMARK    8  A    between atoms: C_24  and  O_27
REMARK                            x       y       z     vdW  Elec       q    Type
REMARK                         _______ _______ _______ _____ _____    ______ ____
ROOT
ATOM      1  O   UNL     1     -33.708  25.645  -1.028  0.00  0.00    -0.448 OA
ATOM      2  O   UNL     1     -35.883  26.011  -0.405  0.00  0.00    -0.250 OA
ATOM      3  C   UNL     1     -33.251  23.734   0.251  0.00  0.00    +0.059 C 
ATOM      4  C   UNL     1     -34.532  24.373   0.778  0.00  0.00    +0.107 C 
ATOM      5  C   UNL     1     -32.615  24.868  -0.527  0.00  0.00    +0.209 C 
ATOM      6  C   UNL     1     -34.822  25.421  -0.267  0.00  0.00    +0.317 C 
ENDROOT
BRANCH   3   7
ATOM      7  C   UNL     1     -33.560  22.546  -0.664  0.00  0.00    +0.031 C 
BRANCH   7   8
ATOM      8  C   UNL     1     -33.095  21.242  -0.069  0.00  0.00    -0.019 C 
ATOM      9  C   UNL     1     -31.808  20.794  -0.330  0.00  0.00    +0.036 C 
ATOM     10  C   UNL     1     -33.961  20.509   0.727  0.00  0.00    -0.001 C 
ATOM     11  C   UNL     1     -31.378  19.587   0.221  0.00  0.00    +0.167 C 
ATOM     12  C   UNL     1     -33.532  19.301   1.277  0.00  0.00    +0.039 C 
ATOM     13  C   UNL     1     -32.240  18.840   1.024  0.00  0.00    +0.167 C 
BRANCH  11  14
ATOM     14  O   UNL     1     -30.114  19.148  -0.033  0.00  0.00    -0.503 OA
ATOM     15  H   UNL     1     -29.414  19.373   0.548  0.00  0.00    +0.292 HD
ENDBRANCH  11  14
BRANCH  13  16
ATOM     16  O   UNL     1     -31.831  17.661   1.568  0.00  0.00    -0.503 OA
ATOM     17  H   UNL     1     -32.288  16.868   1.367  0.00  0.00    +0.292 HD
ENDBRANCH  13  16
ENDBRANCH   7   8
ENDBRANCH   3   7
BRANCH   4  18
ATOM     18  C   UNL     1     -34.351  25.038   2.136  0.00  0.00    +0.038 C 
BRANCH  18  19
ATOM     19  C   UNL     1     -34.782  24.137   3.264  0.00  0.00    -0.018 C 
ATOM     20  C   UNL     1     -35.178  22.836   2.986  0.00  0.00    +0.036 C 
ATOM     21  C   UNL     1     -34.777  24.622   4.563  0.00  0.00    -0.001 C 
ATOM     22  C   UNL     1     -35.578  22.003   4.030  0.00  0.00    +0.167 C 
ATOM     23  C   UNL     1     -35.177  23.788   5.609  0.00  0.00    +0.039 C 
ATOM     24  C   UNL     1     -35.578  22.479   5.341  0.00  0.00    +0.167 C 
BRANCH  22  25
ATOM     25  O   UNL     1     -35.965  20.726   3.757  0.00  0.00    -0.503 OA
ATOM     26  H   UNL     1     -35.714  20.028   4.329  0.00  0.00    +0.292 HD
ENDBRANCH  22  25
BRANCH  24  27
ATOM     27  O   UNL     1     -35.964  21.674   6.370  0.00  0.00    -0.503 OA
ATOM     28  H   UNL     1     -36.145  22.043   7.211  0.00  0.00    +0.292 HD
ENDBRANCH  24  27
ENDBRANCH  18  19
ENDBRANCH   4  18
TORSDOF 8
ENDMDL
