MODEL 1
REMARK VINA RESULT:      -6.2      0.000      0.000
REMARK  Name = 21151017
REMARK  5 active torsions:
REMARK  status: ('A' for Active; 'I' for Inactive)
REMARK    1  A    between atoms: C_4  and  O_22
REMARK    2  A    between atoms: C_9  and  O_24
REMARK    3  A    between atoms: C_10  and  O_26
REMARK    4  A    between atoms: C_12  and  O_28
REMARK    5  A    between atoms: C_15  and  O_30
REMARK                            x       y       z     vdW  Elec       q    Type
REMARK                         _______ _______ _______ _____ _____    ______ ____
ROOT
ATOM      1  O   UNL     1     -37.160  20.395   0.731  0.00  0.00    -0.354 OA
ATOM      2  C   UNL     1     -36.902  22.655   1.798  0.00  0.00    +0.081 C 
ATOM      3  C   UNL     1     -34.947  24.932   2.799  0.00  0.00    +0.032 C 
ATOM      4  C   UNL     1     -36.216  22.990   0.442  0.00  0.00    +0.119 C 
ATOM      5  C   UNL     1     -37.775  21.448   1.487  0.00  0.00    +0.147 C 
ATOM      6  C   UNL     1     -34.903  23.479   3.414  0.00  0.00    +0.027 C 
ATOM      7  C   UNL     1     -37.254  22.476  -0.664  0.00  0.00    +0.052 C 
ATOM      8  C   UNL     1     -37.974  21.334   0.025  0.00  0.00    +0.144 C 
ATOM      9  C   UNL     1     -36.059  22.440   3.084  0.00  0.00    +0.093 C 
ATOM     10  C   UNL     1     -35.895  24.490   0.358  0.00  0.00    +0.135 C 
ATOM     11  C   UNL     1     -34.772  24.970   1.269  0.00  0.00    +0.034 C 
ATOM     12  C   UNL     1     -36.160  25.670   3.393  0.00  0.00    +0.113 C 
ATOM     13  C   UNL     1     -35.650  25.982   4.818  0.00  0.00    +0.052 C 
ATOM     14  C   UNL     1     -33.721  25.782   3.366  0.00  0.00    +0.029 C 
ATOM     15  C   UNL     1     -34.262  26.599   4.554  0.00  0.00    +0.091 C 
ATOM     16  C   UNL     1     -34.710  23.587   4.964  0.00  0.00    +0.003 C 
ATOM     17  C   UNL     1     -35.580  24.673   5.624  0.00  0.00    +0.005 C 
ATOM     18  C   UNL     1     -36.595  21.957  -1.952  0.00  0.00    +0.005 C 
ATOM     19  C   UNL     1     -38.324  23.527  -1.036  0.00  0.00    +0.005 C 
ATOM     20  C   UNL     1     -35.448  21.016   3.167  0.00  0.00    +0.029 C 
ATOM     21  C   UNL     1     -33.313  26.669   5.746  0.00  0.00    +0.029 C 
ENDROOT
BRANCH   4  22
ATOM     22  O   UNL     1     -35.001  22.248   0.338  0.00  0.00    -0.384 OA
ATOM     23  H   UNL     1     -35.068  21.618  -0.396  0.00  0.00    +0.210 HD
ENDBRANCH   4  22
BRANCH   9  24
ATOM     24  O   UNL     1     -37.063  22.500   4.125  0.00  0.00    -0.387 OA
ATOM     25  H   UNL     1     -37.212  21.610   4.481  0.00  0.00    +0.210 HD
ENDBRANCH   9  24
BRANCH  10  26
ATOM     26  O   UNL     1     -35.470  24.777  -0.982  0.00  0.00    -0.382 OA
ATOM     27  H   UNL     1     -36.138  24.460  -1.609  0.00  0.00    +0.210 HD
ENDBRANCH  10  26
BRANCH  12  28
ATOM     28  O   UNL     1     -36.501  26.848   2.678  0.00  0.00    -0.384 OA
ATOM     29  H   UNL     1     -35.697  27.357   2.487  0.00  0.00    +0.210 HD
ENDBRANCH  12  28
BRANCH  15  30
ATOM     30  O   UNL     1     -34.464  27.954   4.125  0.00  0.00    -0.387 OA
ATOM     31  H   UNL     1     -33.668  28.476   4.312  0.00  0.00    +0.210 HD
ENDBRANCH  15  30
TORSDOF 5
ENDMDL
MODEL 2
REMARK VINA RESULT:      -6.2      1.912      6.138
REMARK  Name = 21151017
REMARK  5 active torsions:
REMARK  status: ('A' for Active; 'I' for Inactive)
REMARK    1  A    between atoms: C_4  and  O_22
REMARK    2  A    between atoms: C_9  and  O_24
REMARK    3  A    between atoms: C_10  and  O_26
REMARK    4  A    between atoms: C_12  and  O_28
REMARK    5  A    between atoms: C_15  and  O_30
REMARK                            x       y       z     vdW  Elec       q    Type
REMARK                         _______ _______ _______ _____ _____    ______ ____
ROOT
ATOM      1  O   UNL     1     -34.781  26.629   2.395  0.00  0.00    -0.354 OA
ATOM      2  C   UNL     1     -35.745  24.418   1.688  0.00  0.00    +0.081 C 
ATOM      3  C   UNL     1     -35.433  21.272   1.598  0.00  0.00    +0.032 C 
ATOM      4  C   UNL     1     -35.701  24.142   3.218  0.00  0.00    +0.119 C 
ATOM      5  C   UNL     1     -35.740  25.937   1.582  0.00  0.00    +0.147 C 
ATOM      6  C   UNL     1     -34.387  22.223   0.897  0.00  0.00    +0.027 C 
ATOM      7  C   UNL     1     -36.408  25.422   3.872  0.00  0.00    +0.052 C 
ATOM      8  C   UNL     1     -36.122  26.533   2.882  0.00  0.00    +0.144 C 
ATOM      9  C   UNL     1     -34.706  23.771   0.733  0.00  0.00    +0.093 C 
ATOM     10  C   UNL     1     -36.388  22.806   3.543  0.00  0.00    +0.135 C 
ATOM     11  C   UNL     1     -35.635  21.560   3.098  0.00  0.00    +0.034 C 
ATOM     12  C   UNL     1     -36.690  21.203   0.713  0.00  0.00    +0.113 C 
ATOM     13  C   UNL     1     -36.199  20.288  -0.432  0.00  0.00    +0.052 C 
ATOM     14  C   UNL     1     -34.897  19.770   1.544  0.00  0.00    +0.029 C 
ATOM     15  C   UNL     1     -35.567  19.105   0.327  0.00  0.00    +0.091 C 
ATOM     16  C   UNL     1     -33.989  21.611  -0.488  0.00  0.00    +0.003 C 
ATOM     17  C   UNL     1     -35.183  21.061  -1.290  0.00  0.00    +0.005 C 
ATOM     18  C   UNL     1     -35.850  25.814   5.249  0.00  0.00    +0.005 C 
ATOM     19  C   UNL     1     -37.944  25.289   3.972  0.00  0.00    +0.005 C 
ATOM     20  C   UNL     1     -33.352  24.530   0.720  0.00  0.00    +0.029 C 
ATOM     21  C   UNL     1     -34.640  18.200  -0.478  0.00  0.00    +0.029 C 
ENDROOT
BRANCH   4  22
ATOM     22  O   UNL     1     -34.339  24.080   3.643  0.00  0.00    -0.384 OA
ATOM     23  H   UNL     1     -33.818  24.737   3.156  0.00  0.00    +0.210 HD
ENDBRANCH   4  22
BRANCH   9  24
ATOM     24  O   UNL     1     -35.298  23.999  -0.568  0.00  0.00    -0.387 OA
ATOM     25  H   UNL     1     -36.200  23.642  -0.579  0.00  0.00    +0.210 HD
ENDBRANCH   9  24
BRANCH  10  26
ATOM     26  O   UNL     1     -36.511  22.708   4.970  0.00  0.00    -0.382 OA
ATOM     27  H   UNL     1     -36.784  23.565   5.330  0.00  0.00    +0.210 HD
ENDBRANCH  10  26
BRANCH  12  28
ATOM     28  O   UNL     1     -37.817  20.659   1.385  0.00  0.00    -0.384 OA
ATOM     29  H   UNL     1     -38.143  21.297   2.041  0.00  0.00    +0.210 HD
ENDBRANCH  12  28
BRANCH  15  30
ATOM     30  O   UNL     1     -36.637  18.267   0.792  0.00  0.00    -0.387 OA
ATOM     31  H   UNL     1     -36.694  17.475   0.235  0.00  0.00    +0.210 HD
ENDBRANCH  15  30
TORSDOF 5
ENDMDL
MODEL 3
REMARK VINA RESULT:      -6.1      1.901      3.175
REMARK  Name = 21151017
REMARK  5 active torsions:
REMARK  status: ('A' for Active; 'I' for Inactive)
REMARK    1  A    between atoms: C_4  and  O_22
REMARK    2  A    between atoms: C_9  and  O_24
REMARK    3  A    between atoms: C_10  and  O_26
REMARK    4  A    between atoms: C_12  and  O_28
REMARK    5  A    between atoms: C_15  and  O_30
REMARK                            x       y       z     vdW  Elec       q    Type
REMARK                         _______ _______ _______ _____ _____    ______ ____
ROOT
ATOM      1  O   UNL     1     -39.224  20.269  -0.044  0.00  0.00    -0.354 OA
ATOM      2  C   UNL     1     -37.491  21.912   0.739  0.00  0.00    +0.081 C 
ATOM      3  C   UNL     1     -35.787  23.057   3.146  0.00  0.00    +0.032 C 
ATOM      4  C   UNL     1     -36.731  20.612   1.129  0.00  0.00    +0.119 C 
ATOM      5  C   UNL     1     -38.479  21.462  -0.329  0.00  0.00    +0.147 C 
ATOM      6  C   UNL     1     -37.364  23.127   3.146  0.00  0.00    +0.027 C 
ATOM      7  C   UNL     1     -36.785  19.710  -0.194  0.00  0.00    +0.052 C 
ATOM      8  C   UNL     1     -38.066  20.149  -0.874  0.00  0.00    +0.144 C 
ATOM      9  C   UNL     1     -38.176  22.789   1.822  0.00  0.00    +0.093 C 
ATOM     10  C   UNL     1     -35.310  20.944   1.610  0.00  0.00    +0.135 C 
ATOM     11  C   UNL     1     -35.224  21.634   2.964  0.00  0.00    +0.034 C 
ATOM     12  C   UNL     1     -35.257  24.155   2.207  0.00  0.00    +0.113 C 
ATOM     13  C   UNL     1     -35.483  25.418   3.069  0.00  0.00    +0.052 C 
ATOM     14  C   UNL     1     -35.239  23.530   4.567  0.00  0.00    +0.029 C 
ATOM     15  C   UNL     1     -34.868  25.018   4.425  0.00  0.00    +0.091 C 
ATOM     16  C   UNL     1     -37.812  24.519   3.705  0.00  0.00    +0.003 C 
ATOM     17  C   UNL     1     -36.992  25.702   3.157  0.00  0.00    +0.005 C 
ATOM     18  C   UNL     1     -36.846  18.199   0.077  0.00  0.00    +0.005 C 
ATOM     19  C   UNL     1     -35.629  19.997  -1.178  0.00  0.00    +0.005 C 
ATOM     20  C   UNL     1     -39.562  22.237   2.250  0.00  0.00    +0.029 C 
ATOM     21  C   UNL     1     -35.256  25.875   5.625  0.00  0.00    +0.029 C 
ENDROOT
BRANCH   4  22
ATOM     22  O   UNL     1     -37.438  19.956   2.182  0.00  0.00    -0.384 OA
ATOM     23  H   UNL     1     -38.254  19.568   1.832  0.00  0.00    +0.210 HD
ENDBRANCH   4  22
BRANCH   9  24
ATOM     24  O   UNL     1     -38.444  24.016   1.104  0.00  0.00    -0.387 OA
ATOM     25  H   UNL     1     -37.686  24.615   1.192  0.00  0.00    +0.210 HD
ENDBRANCH   9  24
BRANCH  10  26
ATOM     26  O   UNL     1     -34.589  19.710   1.746  0.00  0.00    -0.382 OA
ATOM     27  H   UNL     1     -35.214  18.988   1.915  0.00  0.00    +0.210 HD
ENDBRANCH  10  26
BRANCH  12  28
ATOM     28  O   UNL     1     -33.890  23.982   1.862  0.00  0.00    -0.384 OA
ATOM     29  H   UNL     1     -33.799  23.218   1.269  0.00  0.00    +0.210 HD
ENDBRANCH  12  28
BRANCH  15  30
ATOM     30  O   UNL     1     -33.441  25.126   4.302  0.00  0.00    -0.387 OA
ATOM     31  H   UNL     1     -33.032  25.024   5.176  0.00  0.00    +0.210 HD
ENDBRANCH  15  30
TORSDOF 5
ENDMDL
MODEL 4
REMARK VINA RESULT:      -6.0      2.914      7.444
REMARK  Name = 21151017
REMARK  5 active torsions:
REMARK  status: ('A' for Active; 'I' for Inactive)
REMARK    1  A    between atoms: C_4  and  O_22
REMARK    2  A    between atoms: C_9  and  O_24
REMARK    3  A    between atoms: C_10  and  O_26
REMARK    4  A    between atoms: C_12  and  O_28
REMARK    5  A    between atoms: C_15  and  O_30
REMARK                            x       y       z     vdW  Elec       q    Type
REMARK                         _______ _______ _______ _____ _____    ______ ____
ROOT
ATOM      1  O   UNL     1     -30.078  29.720   2.724  0.00  0.00    -0.354 OA
ATOM      2  C   UNL     1     -32.277  28.603   3.208  0.00  0.00    +0.081 C 
ATOM      3  C   UNL     1     -33.801  25.994   4.144  0.00  0.00    +0.032 C 
ATOM      4  C   UNL     1     -31.662  28.468   4.631  0.00  0.00    +0.119 C 
ATOM      5  C   UNL     1     -31.505  29.752   2.575  0.00  0.00    +0.147 C 
ATOM      6  C   UNL     1     -32.900  26.001   2.848  0.00  0.00    +0.027 C 
ATOM      7  C   UNL     1     -31.147  29.943   4.982  0.00  0.00    +0.052 C 
ATOM      8  C   UNL     1     -30.824  30.541   3.627  0.00  0.00    +0.144 C 
ATOM      9  C   UNL     1     -32.365  27.377   2.260  0.00  0.00    +0.093 C 
ATOM     10  C   UNL     1     -32.702  27.910   5.615  0.00  0.00    +0.135 C 
ATOM     11  C   UNL     1     -33.067  26.445   5.420  0.00  0.00    +0.034 C 
ATOM     12  C   UNL     1     -35.133  26.689   3.808  0.00  0.00    +0.113 C 
ATOM     13  C   UNL     1     -35.836  25.597   2.969  0.00  0.00    +0.052 C 
ATOM     14  C   UNL     1     -34.267  24.499   4.453  0.00  0.00    +0.029 C 
ATOM     15  C   UNL     1     -35.673  24.339   3.845  0.00  0.00    +0.091 C 
ATOM     16  C   UNL     1     -33.619  25.184   1.722  0.00  0.00    +0.003 C 
ATOM     17  C   UNL     1     -35.127  25.476   1.609  0.00  0.00    +0.005 C 
ATOM     18  C   UNL     1     -29.889  29.978   5.864  0.00  0.00    +0.005 C 
ATOM     19  C   UNL     1     -32.234  30.835   5.622  0.00  0.00    +0.005 C 
ATOM     20  C   UNL     1     -31.024  27.086   1.533  0.00  0.00    +0.029 C 
ATOM     21  C   UNL     1     -35.905  22.998   3.156  0.00  0.00    +0.029 C 
ENDROOT
BRANCH   4  22
ATOM     22  O   UNL     1     -30.549  27.575   4.575  0.00  0.00    -0.384 OA
ATOM     23  H   UNL     1     -30.315  27.406   3.650  0.00  0.00    +0.210 HD
ENDBRANCH   4  22
BRANCH   9  24
ATOM     24  O   UNL     1     -33.275  27.842   1.236  0.00  0.00    -0.387 OA
ATOM     25  H   UNL     1     -33.173  27.296   0.440  0.00  0.00    +0.210 HD
ENDBRANCH   9  24
BRANCH  10  26
ATOM     26  O   UNL     1     -32.156  28.011   6.939  0.00  0.00    -0.382 OA
ATOM     27  H   UNL     1     -32.439  28.846   7.343  0.00  0.00    +0.210 HD
ENDBRANCH  10  26
BRANCH  12  28
ATOM     28  O   UNL     1     -35.884  27.043   4.961  0.00  0.00    -0.384 OA
ATOM     29  H   UNL     1     -36.757  27.370   4.691  0.00  0.00    +0.210 HD
ENDBRANCH  12  28
BRANCH  15  30
ATOM     30  O   UNL     1     -36.642  24.418   4.902  0.00  0.00    -0.387 OA
ATOM     31  H   UNL     1     -36.746  23.545   5.312  0.00  0.00    +0.210 HD
ENDBRANCH  15  30
TORSDOF 5
ENDMDL
MODEL 5
REMARK VINA RESULT:      -5.8      1.918      2.429
REMARK  Name = 21151017
REMARK  5 active torsions:
REMARK  status: ('A' for Active; 'I' for Inactive)
REMARK    1  A    between atoms: C_4  and  O_22
REMARK    2  A    between atoms: C_9  and  O_24
REMARK    3  A    between atoms: C_10  and  O_26
REMARK    4  A    between atoms: C_12  and  O_28
REMARK    5  A    between atoms: C_15  and  O_30
REMARK                            x       y       z     vdW  Elec       q    Type
REMARK                         _______ _______ _______ _____ _____    ______ ____
ROOT
ATOM      1  O   UNL     1     -39.216  21.120  -0.665  0.00  0.00    -0.354 OA
ATOM      2  C   UNL     1     -38.648  22.697   1.208  0.00  0.00    +0.081 C 
ATOM      3  C   UNL     1     -36.684  24.902   2.343  0.00  0.00    +0.032 C 
ATOM      4  C   UNL     1     -38.817  23.763   0.088  0.00  0.00    +0.119 C 
ATOM      5  C   UNL     1     -39.435  21.496   0.703  0.00  0.00    +0.147 C 
ATOM      6  C   UNL     1     -36.185  23.438   2.027  0.00  0.00    +0.027 C 
ATOM      7  C   UNL     1     -40.229  23.413  -0.584  0.00  0.00    +0.052 C 
ATOM      8  C   UNL     1     -40.365  21.919  -0.369  0.00  0.00    +0.144 C 
ATOM      9  C   UNL     1     -37.237  22.290   1.712  0.00  0.00    +0.093 C 
ATOM     10  C   UNL     1     -38.732  25.180   0.677  0.00  0.00    +0.135 C 
ATOM     11  C   UNL     1     -37.349  25.609   1.147  0.00  0.00    +0.034 C 
ATOM     12  C   UNL     1     -37.464  24.868   3.670  0.00  0.00    +0.113 C 
ATOM     13  C   UNL     1     -36.310  24.737   4.691  0.00  0.00    +0.052 C 
ATOM     14  C   UNL     1     -35.430  25.818   2.709  0.00  0.00    +0.029 C 
ATOM     15  C   UNL     1     -35.337  25.846   4.246  0.00  0.00    +0.091 C 
ATOM     16  C   UNL     1     -35.214  22.974   3.164  0.00  0.00    +0.003 C 
ATOM     17  C   UNL     1     -35.702  23.328   4.581  0.00  0.00    +0.005 C 
ATOM     18  C   UNL     1     -40.305  23.719  -2.087  0.00  0.00    +0.005 C 
ATOM     19  C   UNL     1     -41.427  24.083   0.126  0.00  0.00    +0.005 C 
ATOM     20  C   UNL     1     -36.543  21.261   0.779  0.00  0.00    +0.029 C 
ATOM     21  C   UNL     1     -33.913  25.755   4.785  0.00  0.00    +0.029 C 
ENDROOT
BRANCH   4  22
ATOM     22  O   UNL     1     -37.777  23.597  -0.876  0.00  0.00    -0.384 OA
ATOM     23  H   UNL     1     -38.081  23.006  -1.582  0.00  0.00    +0.210 HD
ENDBRANCH   4  22
BRANCH   9  24
ATOM     24  O   UNL     1     -37.540  21.575   2.933  0.00  0.00    -0.387 OA
ATOM     25  H   UNL     1     -37.518  20.620   2.761  0.00  0.00    +0.210 HD
ENDBRANCH   9  24
BRANCH  10  26
ATOM     26  O   UNL     1     -39.108  26.109  -0.351  0.00  0.00    -0.382 OA
ATOM     27  H   UNL     1     -39.156  25.648  -1.202  0.00  0.00    +0.210 HD
ENDBRANCH  10  26
BRANCH  12  28
ATOM     28  O   UNL     1     -38.241  26.036   3.891  0.00  0.00    -0.384 OA
ATOM     29  H   UNL     1     -37.783  26.617   4.519  0.00  0.00    +0.210 HD
ENDBRANCH  12  28
BRANCH  15  30
ATOM     30  O   UNL     1     -35.862  27.098   4.716  0.00  0.00    -0.387 OA
ATOM     31  H   UNL     1     -36.749  26.960   5.081  0.00  0.00    +0.210 HD
ENDBRANCH  15  30
TORSDOF 5
ENDMDL
MODEL 6
REMARK VINA RESULT:      -5.8      2.873      6.700
REMARK  Name = 21151017
REMARK  5 active torsions:
REMARK  status: ('A' for Active; 'I' for Inactive)
REMARK    1  A    between atoms: C_4  and  O_22
REMARK    2  A    between atoms: C_9  and  O_24
REMARK    3  A    between atoms: C_10  and  O_26
REMARK    4  A    between atoms: C_12  and  O_28
REMARK    5  A    between atoms: C_15  and  O_30
REMARK                            x       y       z     vdW  Elec       q    Type
REMARK                         _______ _______ _______ _____ _____    ______ ____
ROOT
ATOM      1  O   UNL     1     -33.500  30.646   1.124  0.00  0.00    -0.354 OA
ATOM      2  C   UNL     1     -34.511  28.921   2.646  0.00  0.00    +0.081 C 
ATOM      3  C   UNL     1     -34.773  25.866   3.423  0.00  0.00    +0.032 C 
ATOM      4  C   UNL     1     -33.018  28.632   2.974  0.00  0.00    +0.119 C 
ATOM      5  C   UNL     1     -34.506  30.343   2.102  0.00  0.00    +0.147 C 
ATOM      6  C   UNL     1     -35.224  26.397   2.006  0.00  0.00    +0.027 C 
ATOM      7  C   UNL     1     -32.399  30.072   3.303  0.00  0.00    +0.052 C 
ATOM      8  C   UNL     1     -33.247  31.022   2.481  0.00  0.00    +0.144 C 
ATOM      9  C   UNL     1     -35.327  27.960   1.739  0.00  0.00    +0.093 C 
ATOM     10  C   UNL     1     -32.907  27.619   4.124  0.00  0.00    +0.135 C 
ATOM     11  C   UNL     1     -33.310  26.192   3.778  0.00  0.00    +0.034 C 
ATOM     12  C   UNL     1     -35.855  26.251   4.448  0.00  0.00    +0.113 C 
ATOM     13  C   UNL     1     -36.967  25.233   4.105  0.00  0.00    +0.052 C 
ATOM     14  C   UNL     1     -34.846  24.272   3.435  0.00  0.00    +0.029 C 
ATOM     15  C   UNL     1     -36.201  23.896   4.063  0.00  0.00    +0.091 C 
ATOM     16  C   UNL     1     -36.565  25.698   1.602  0.00  0.00    +0.003 C 
ATOM     17  C   UNL     1     -37.589  25.608   2.748  0.00  0.00    +0.005 C 
ATOM     18  C   UNL     1     -30.925  30.231   2.900  0.00  0.00    +0.005 C 
ATOM     19  C   UNL     1     -32.563  30.485   4.783  0.00  0.00    +0.005 C 
ATOM     20  C   UNL     1     -35.063  28.196   0.228  0.00  0.00    +0.029 C 
ATOM     21  C   UNL     1     -36.906  22.732   3.375  0.00  0.00    +0.029 C 
ENDROOT
BRANCH   4  22
ATOM     22  O   UNL     1     -32.382  28.093   1.815  0.00  0.00    -0.384 OA
ATOM     23  H   UNL     1     -31.778  28.752   1.441  0.00  0.00    +0.210 HD
ENDBRANCH   4  22
BRANCH   9  24
ATOM     24  O   UNL     1     -36.687  28.393   1.975  0.00  0.00    -0.387 OA
ATOM     25  H   UNL     1     -36.788  28.653   2.904  0.00  0.00    +0.210 HD
ENDBRANCH   9  24
BRANCH  10  26
ATOM     26  O   UNL     1     -31.530  27.556   4.526  0.00  0.00    -0.382 OA
ATOM     27  H   UNL     1     -31.475  27.580   5.494  0.00  0.00    +0.210 HD
ENDBRANCH  10  26
BRANCH  12  28
ATOM     28  O   UNL     1     -35.417  26.130   5.793  0.00  0.00    -0.384 OA
ATOM     29  H   UNL     1     -35.412  27.005   6.213  0.00  0.00    +0.210 HD
ENDBRANCH  12  28
BRANCH  15  30
ATOM     30  O   UNL     1     -35.979  23.482   5.420  0.00  0.00    -0.387 OA
ATOM     31  H   UNL     1     -35.068  23.163   5.517  0.00  0.00    +0.210 HD
ENDBRANCH  15  30
TORSDOF 5
ENDMDL
MODEL 7
REMARK VINA RESULT:      -5.6      3.738      6.786
REMARK  Name = 21151017
REMARK  5 active torsions:
REMARK  status: ('A' for Active; 'I' for Inactive)
REMARK    1  A    between atoms: C_4  and  O_22
REMARK    2  A    between atoms: C_9  and  O_24
REMARK    3  A    between atoms: C_10  and  O_26
REMARK    4  A    between atoms: C_12  and  O_28
REMARK    5  A    between atoms: C_15  and  O_30
REMARK                            x       y       z     vdW  Elec       q    Type
REMARK                         _______ _______ _______ _____ _____    ______ ____
ROOT
ATOM      1  O   UNL     1     -35.964  24.104   0.108  0.00  0.00    -0.354 OA
ATOM      2  C   UNL     1     -35.178  21.746  -0.263  0.00  0.00    +0.081 C 
ATOM      3  C   UNL     1     -33.355  19.352   0.711  0.00  0.00    +0.032 C 
ATOM      4  C   UNL     1     -35.801  21.534   1.146  0.00  0.00    +0.119 C 
ATOM      5  C   UNL     1     -35.872  22.992  -0.795  0.00  0.00    +0.147 C 
ATOM      6  C   UNL     1     -32.733  20.737   0.279  0.00  0.00    +0.027 C 
ATOM      7  C   UNL     1     -37.266  22.170   1.032  0.00  0.00    +0.052 C 
ATOM      8  C   UNL     1     -37.105  23.251  -0.018  0.00  0.00    +0.144 C 
ATOM      9  C   UNL     1     -33.638  21.821  -0.449  0.00  0.00    +0.093 C 
ATOM     10  C   UNL     1     -35.786  20.044   1.522  0.00  0.00    +0.135 C 
ATOM     11  C   UNL     1     -34.413  19.460   1.825  0.00  0.00    +0.034 C 
ATOM     12  C   UNL     1     -33.743  18.579  -0.562  0.00  0.00    +0.113 C 
ATOM     13  C   UNL     1     -32.355  18.121  -1.067  0.00  0.00    +0.052 C 
ATOM     14  C   UNL     1     -32.209  18.431   1.331  0.00  0.00    +0.029 C 
ATOM     15  C   UNL     1     -31.719  17.511   0.198  0.00  0.00    +0.091 C 
ATOM     16  C   UNL     1     -31.437  20.475  -0.559  0.00  0.00    +0.003 C 
ATOM     17  C   UNL     1     -31.584  19.344  -1.594  0.00  0.00    +0.005 C 
ATOM     18  C   UNL     1     -37.782  22.802   2.335  0.00  0.00    +0.005 C 
ATOM     19  C   UNL     1     -38.325  21.178   0.501  0.00  0.00    +0.005 C 
ATOM     20  C   UNL     1     -33.062  23.220  -0.104  0.00  0.00    +0.029 C 
ATOM     21  C   UNL     1     -30.208  17.309   0.168  0.00  0.00    +0.029 C 
ENDROOT
BRANCH   4  22
ATOM     22  O   UNL     1     -35.038  22.263   2.109  0.00  0.00    -0.384 OA
ATOM     23  H   UNL     1     -34.674  23.061   1.696  0.00  0.00    +0.210 HD
ENDBRANCH   4  22
BRANCH   9  24
ATOM     24  O   UNL     1     -33.493  21.677  -1.882  0.00  0.00    -0.387 OA
ATOM     25  H   UNL     1     -34.325  21.920  -2.317  0.00  0.00    +0.210 HD
ENDBRANCH   9  24
BRANCH  10  26
ATOM     26  O   UNL     1     -36.561  19.882   2.720  0.00  0.00    -0.382 OA
ATOM     27  H   UNL     1     -36.600  20.726   3.196  0.00  0.00    +0.210 HD
ENDBRANCH  10  26
BRANCH  12  28
ATOM     28  O   UNL     1     -34.607  17.482  -0.308  0.00  0.00    -0.384 OA
ATOM     29  H   UNL     1     -34.109  16.769   0.123  0.00  0.00    +0.210 HD
ENDBRANCH  12  28
BRANCH  15  30
ATOM     30  O   UNL     1     -32.292  16.207   0.385  0.00  0.00    -0.387 OA
ATOM     31  H   UNL     1     -32.015  15.625  -0.340  0.00  0.00    +0.210 HD
ENDBRANCH  15  30
TORSDOF 5
ENDMDL
MODEL 8
REMARK VINA RESULT:      -5.6      2.115      5.999
REMARK  Name = 21151017
REMARK  5 active torsions:
REMARK  status: ('A' for Active; 'I' for Inactive)
REMARK    1  A    between atoms: C_4  and  O_22
REMARK    2  A    between atoms: C_9  and  O_24
REMARK    3  A    between atoms: C_10  and  O_26
REMARK    4  A    between atoms: C_12  and  O_28
REMARK    5  A    between atoms: C_15  and  O_30
REMARK                            x       y       z     vdW  Elec       q    Type
REMARK                         _______ _______ _______ _____ _____    ______ ____
ROOT
ATOM      1  O   UNL     1     -32.873  28.422   5.075  0.00  0.00    -0.354 OA
ATOM      2  C   UNL     1     -33.646  26.633   3.489  0.00  0.00    +0.081 C 
ATOM      3  C   UNL     1     -36.076  25.063   2.208  0.00  0.00    +0.032 C 
ATOM      4  C   UNL     1     -34.371  27.832   2.813  0.00  0.00    +0.119 C 
ATOM      5  C   UNL     1     -32.520  27.278   4.284  0.00  0.00    +0.147 C 
ATOM      6  C   UNL     1     -35.800  25.029   3.762  0.00  0.00    +0.027 C 
ATOM      7  C   UNL     1     -33.230  28.944   2.648  0.00  0.00    +0.052 C 
ATOM      8  C   UNL     1     -32.281  28.654   3.794  0.00  0.00    +0.144 C 
ATOM      9  C   UNL     1     -34.436  25.603   4.340  0.00  0.00    +0.093 C 
ATOM     10  C   UNL     1     -35.020  27.392   1.491  0.00  0.00    +0.135 C 
ATOM     11  C   UNL     1     -36.234  26.483   1.631  0.00  0.00    +0.034 C 
ATOM     12  C   UNL     1     -35.067  24.126   1.520  0.00  0.00    +0.113 C 
ATOM     13  C   UNL     1     -35.653  22.742   1.880  0.00  0.00    +0.052 C 
ATOM     14  C   UNL     1     -37.468  24.346   1.904  0.00  0.00    +0.029 C 
ATOM     15  C   UNL     1     -37.140  22.895   1.505  0.00  0.00    +0.091 C 
ATOM     16  C   UNL     1     -36.033  23.574   4.289  0.00  0.00    +0.003 C 
ATOM     17  C   UNL     1     -35.438  22.481   3.381  0.00  0.00    +0.005 C 
ATOM     18  C   UNL     1     -33.738  30.389   2.764  0.00  0.00    +0.005 C 
ATOM     19  C   UNL     1     -32.419  28.799   1.341  0.00  0.00    +0.005 C 
ATOM     20  C   UNL     1     -34.713  26.106   5.782  0.00  0.00    +0.029 C 
ATOM     21  C   UNL     1     -38.096  21.858   2.085  0.00  0.00    +0.029 C 
ENDROOT
BRANCH   4  22
ATOM     22  O   UNL     1     -35.387  28.318   3.691  0.00  0.00    -0.384 OA
ATOM     23  H   UNL     1     -35.953  28.945   3.215  0.00  0.00    +0.210 HD
ENDBRANCH   4  22
BRANCH   9  24
ATOM     24  O   UNL     1     -33.485  24.520   4.476  0.00  0.00    -0.387 OA
ATOM     25  H   UNL     1     -33.867  23.707   4.109  0.00  0.00    +0.210 HD
ENDBRANCH   9  24
BRANCH  10  26
ATOM     26  O   UNL     1     -35.481  28.569   0.812  0.00  0.00    -0.382 OA
ATOM     27  H   UNL     1     -36.224  28.955   1.301  0.00  0.00    +0.210 HD
ENDBRANCH  10  26
BRANCH  12  28
ATOM     28  O   UNL     1     -34.989  24.324   0.116  0.00  0.00    -0.384 OA
ATOM     29  H   UNL     1     -35.008  25.274  -0.080  0.00  0.00    +0.210 HD
ENDBRANCH  12  28
BRANCH  15  30
ATOM     30  O   UNL     1     -37.242  22.777   0.077  0.00  0.00    -0.387 OA
ATOM     31  H   UNL     1     -36.429  23.110  -0.334  0.00  0.00    +0.210 HD
ENDBRANCH  15  30
TORSDOF 5
ENDMDL
MODEL 9
REMARK VINA RESULT:      -5.6      2.971      5.631
REMARK  Name = 21151017
REMARK  5 active torsions:
REMARK  status: ('A' for Active; 'I' for Inactive)
REMARK    1  A    between atoms: C_4  and  O_22
REMARK    2  A    between atoms: C_9  and  O_24
REMARK    3  A    between atoms: C_10  and  O_26
REMARK    4  A    between atoms: C_12  and  O_28
REMARK    5  A    between atoms: C_15  and  O_30
REMARK                            x       y       z     vdW  Elec       q    Type
REMARK                         _______ _______ _______ _____ _____    ______ ____
ROOT
ATOM      1  O   UNL     1     -35.647  21.830   2.549  0.00  0.00    -0.354 OA
ATOM      2  C   UNL     1     -37.033  23.765   1.743  0.00  0.00    +0.081 C 
ATOM      3  C   UNL     1     -39.631  25.532   2.115  0.00  0.00    +0.032 C 
ATOM      4  C   UNL     1     -36.751  24.299   3.176  0.00  0.00    +0.119 C 
ATOM      5  C   UNL     1     -35.916  22.762   1.491  0.00  0.00    +0.147 C 
ATOM      6  C   UNL     1     -39.723  23.986   1.809  0.00  0.00    +0.027 C 
ATOM      7  C   UNL     1     -35.165  24.157   3.347  0.00  0.00    +0.052 C 
ATOM      8  C   UNL     1     -34.813  22.987   2.451  0.00  0.00    +0.144 C 
ATOM      9  C   UNL     1     -38.424  23.184   1.369  0.00  0.00    +0.093 C 
ATOM     10  C   UNL     1     -37.278  25.735   3.328  0.00  0.00    +0.135 C 
ATOM     11  C   UNL     1     -38.793  25.875   3.362  0.00  0.00    +0.034 C 
ATOM     12  C   UNL     1     -39.284  26.262   0.805  0.00  0.00    +0.113 C 
ATOM     13  C   UNL     1     -40.639  26.201   0.063  0.00  0.00    +0.052 C 
ATOM     14  C   UNL     1     -41.089  26.092   2.441  0.00  0.00    +0.029 C 
ATOM     15  C   UNL     1     -41.634  26.694   1.132  0.00  0.00    +0.091 C 
ATOM     16  C   UNL     1     -40.877  23.738   0.780  0.00  0.00    +0.003 C 
ATOM     17  C   UNL     1     -40.904  24.752  -0.379  0.00  0.00    +0.005 C 
ATOM     18  C   UNL     1     -34.711  23.852   4.783  0.00  0.00    +0.005 C 
ATOM     19  C   UNL     1     -34.381  25.381   2.822  0.00  0.00    +0.005 C 
ATOM     20  C   UNL     1     -38.601  21.713   1.834  0.00  0.00    +0.029 C 
ATOM     21  C   UNL     1     -43.107  26.397   0.876  0.00  0.00    +0.029 C 
ENDROOT
BRANCH   4  22
ATOM     22  O   UNL     1     -37.410  23.460   4.125  0.00  0.00    -0.384 OA
ATOM     23  H   UNL     1     -36.765  22.859   4.529  0.00  0.00    +0.210 HD
ENDBRANCH   4  22
BRANCH   9  24
ATOM     24  O   UNL     1     -38.362  23.136  -0.076  0.00  0.00    -0.387 OA
ATOM     25  H   UNL     1     -37.597  22.605  -0.349  0.00  0.00    +0.210 HD
ENDBRANCH   9  24
BRANCH  10  26
ATOM     26  O   UNL     1     -36.802  26.250   4.581  0.00  0.00    -0.382 OA
ATOM     27  H   UNL     1     -37.553  26.574   5.102  0.00  0.00    +0.210 HD
ENDBRANCH  10  26
BRANCH  12  28
ATOM     28  O   UNL     1     -38.847  27.597   1.009  0.00  0.00    -0.384 OA
ATOM     29  H   UNL     1     -39.053  28.130   0.225  0.00  0.00    +0.210 HD
ENDBRANCH  12  28
BRANCH  15  30
ATOM     30  O   UNL     1     -41.521  28.124   1.203  0.00  0.00    -0.387 OA
ATOM     31  H   UNL     1     -41.437  28.487   0.307  0.00  0.00    +0.210 HD
ENDBRANCH  15  30
TORSDOF 5
ENDMDL
