MODEL 1
REMARK VINA RESULT:      -5.5      0.000      0.000
REMARK  Name = 191989
REMARK  7 active torsions:
REMARK  status: ('A' for Active; 'I' for Inactive)
REMARK    1  A    between atoms: S_1  and  S_2
REMARK    2  A    between atoms: S_1  and  C_12
REMARK    3  A    between atoms: S_2  and  C_3
REMARK    4  A    between atoms: C_3  and  C_4
REMARK    5  A    between atoms: C_4  and  N_7
REMARK    6  A    between atoms: C_12  and  C_13
REMARK    7  A    between atoms: C_13  and  N_16
REMARK                            x       y       z     vdW  Elec       q    Type
REMARK                         _______ _______ _______ _____ _____    ______ ____
ROOT
ATOM      1  S   UNL     1     -35.410  26.060   1.781  0.00  0.00    -0.080 S 
ENDROOT
BRANCH   1   2
ATOM      2  S   UNL     1     -34.884  27.556   3.088  0.00  0.00    -0.080 S 
BRANCH   2   3
ATOM      3  C   UNL     1     -33.471  26.819   3.943  0.00  0.00    +0.091 C 
BRANCH   3   4
ATOM      4  C   UNL     1     -32.213  27.641   3.693  0.00  0.00    +0.114 C 
BRANCH   4   7
ATOM      5  O   UNL     1     -32.613  30.592   3.583  0.00  0.00    -0.269 OA
ATOM      6  O   UNL     1     -31.393  27.280   6.539  0.00  0.00    -0.269 OA
ATOM      7  N   UNL     1     -32.054  28.639   4.747  0.00  0.00    -0.222 N 
ATOM      8  C   UNL     1     -32.269  29.974   4.576  0.00  0.00    +0.255 C 
ATOM      9  C   UNL     1     -31.671  28.350   6.022  0.00  0.00    +0.255 C 
ATOM     10  C   UNL     1     -31.997  30.596   5.881  0.00  0.00    +0.063 C 
ATOM     11  C   UNL     1     -31.644  29.636   6.736  0.00  0.00    +0.063 C 
ENDBRANCH   4   7
ENDBRANCH   3   4
ENDBRANCH   2   3
ENDBRANCH   1   2
BRANCH   1  12
ATOM     12  C   UNL     1     -34.726  24.597   2.611  0.00  0.00    +0.091 C 
BRANCH  12  13
ATOM     13  C   UNL     1     -35.826  23.578   2.882  0.00  0.00    +0.114 C 
BRANCH  13  16
ATOM     14  O   UNL     1     -35.811  24.761   5.618  0.00  0.00    -0.269 OA
ATOM     15  O   UNL     1     -35.238  20.719   3.492  0.00  0.00    -0.269 OA
ATOM     16  N   UNL     1     -35.598  22.936   4.163  0.00  0.00    -0.222 N 
ATOM     17  C   UNL     1     -35.617  23.584   5.369  0.00  0.00    +0.255 C 
ATOM     18  C   UNL     1     -35.336  21.603   4.325  0.00  0.00    +0.255 C 
ATOM     19  C   UNL     1     -35.342  22.559   6.389  0.00  0.00    +0.063 C 
ATOM     20  C   UNL     1     -35.176  21.390   5.771  0.00  0.00    +0.063 C 
ENDBRANCH  13  16
ENDBRANCH  12  13
ENDBRANCH   1  12
TORSDOF 7
ENDMDL
MODEL 2
REMARK VINA RESULT:      -5.5      0.716      1.814
REMARK  Name = 191989
REMARK  7 active torsions:
REMARK  status: ('A' for Active; 'I' for Inactive)
REMARK    1  A    between atoms: S_1  and  S_2
REMARK    2  A    between atoms: S_1  and  C_12
REMARK    3  A    between atoms: S_2  and  C_3
REMARK    4  A    between atoms: C_3  and  C_4
REMARK    5  A    between atoms: C_4  and  N_7
REMARK    6  A    between atoms: C_12  and  C_13
REMARK    7  A    between atoms: C_13  and  N_16
REMARK                            x       y       z     vdW  Elec       q    Type
REMARK                         _______ _______ _______ _____ _____    ______ ____
ROOT
ATOM      1  S   UNL     1     -34.740  25.380   1.691  0.00  0.00    -0.080 S 
ENDROOT
BRANCH   1   2
ATOM      2  S   UNL     1     -33.441  25.729   3.245  0.00  0.00    -0.080 S 
BRANCH   2   3
ATOM      3  C   UNL     1     -33.484  27.533   3.363  0.00  0.00    +0.091 C 
BRANCH   3   4
ATOM      4  C   UNL     1     -32.072  28.089   3.500  0.00  0.00    +0.114 C 
BRANCH   4   7
ATOM      5  O   UNL     1     -31.523  27.320   6.325  0.00  0.00    -0.269 OA
ATOM      6  O   UNL     1     -32.397  31.043   3.763  0.00  0.00    -0.269 OA
ATOM      7  N   UNL     1     -31.983  28.931   4.689  0.00  0.00    -0.222 N 
ATOM      8  C   UNL     1     -31.722  28.460   5.942  0.00  0.00    +0.255 C 
ATOM      9  C   UNL     1     -32.151  30.283   4.684  0.00  0.00    +0.255 C 
ATOM     10  C   UNL     1     -31.723  29.638   6.823  0.00  0.00    +0.063 C 
ATOM     11  C   UNL     1     -31.976  30.715   6.079  0.00  0.00    +0.063 C 
ENDBRANCH   4   7
ENDBRANCH   3   4
ENDBRANCH   2   3
ENDBRANCH   1   2
BRANCH   1  12
ATOM     12  C   UNL     1     -35.071  23.606   1.886  0.00  0.00    +0.091 C 
BRANCH  12  13
ATOM     13  C   UNL     1     -36.262  23.387   2.811  0.00  0.00    +0.114 C 
BRANCH  13  16
ATOM     14  O   UNL     1     -35.982  24.686   5.479  0.00  0.00    -0.269 OA
ATOM     15  O   UNL     1     -35.361  20.612   3.427  0.00  0.00    -0.269 OA
ATOM     16  N   UNL     1     -35.812  22.822   4.068  0.00  0.00    -0.222 N 
ATOM     17  C   UNL     1     -35.724  23.518   5.244  0.00  0.00    +0.255 C 
ATOM     18  C   UNL     1     -35.421  21.522   4.236  0.00  0.00    +0.255 C 
ATOM     19  C   UNL     1     -35.231  22.563   6.250  0.00  0.00    +0.063 C 
ATOM     20  C   UNL     1     -35.052  21.385   5.654  0.00  0.00    +0.063 C 
ENDBRANCH  13  16
ENDBRANCH  12  13
ENDBRANCH   1  12
TORSDOF 7
ENDMDL
MODEL 3
REMARK VINA RESULT:      -5.4      0.730      7.187
REMARK  Name = 191989
REMARK  7 active torsions:
REMARK  status: ('A' for Active; 'I' for Inactive)
REMARK    1  A    between atoms: S_1  and  S_2
REMARK    2  A    between atoms: S_1  and  C_12
REMARK    3  A    between atoms: S_2  and  C_3
REMARK    4  A    between atoms: C_3  and  C_4
REMARK    5  A    between atoms: C_4  and  N_7
REMARK    6  A    between atoms: C_12  and  C_13
REMARK    7  A    between atoms: C_13  and  N_16
REMARK                            x       y       z     vdW  Elec       q    Type
REMARK                         _______ _______ _______ _____ _____    ______ ____
ROOT
ATOM      1  S   UNL     1     -33.291  25.903   2.891  0.00  0.00    -0.080 S 
ENDROOT
BRANCH   1   2
ATOM      2  S   UNL     1     -35.195  25.669   2.154  0.00  0.00    -0.080 S 
BRANCH   2   3
ATOM      3  C   UNL     1     -35.302  23.872   1.973  0.00  0.00    +0.091 C 
BRANCH   3   4
ATOM      4  C   UNL     1     -36.435  23.320   2.829  0.00  0.00    +0.114 C 
BRANCH   4   7
ATOM      5  O   UNL     1     -35.380  20.611   3.479  0.00  0.00    -0.269 OA
ATOM      6  O   UNL     1     -36.114  24.704   5.453  0.00  0.00    -0.269 OA
ATOM      7  N   UNL     1     -35.902  22.810   4.089  0.00  0.00    -0.222 N 
ATOM      8  C   UNL     1     -35.443  21.538   4.267  0.00  0.00    +0.255 C 
ATOM      9  C   UNL     1     -35.804  23.545   5.232  0.00  0.00    +0.255 C 
ATOM     10  C   UNL     1     -35.006  21.461   5.669  0.00  0.00    +0.063 C 
ATOM     11  C   UNL     1     -35.219  22.647   6.239  0.00  0.00    +0.063 C 
ENDBRANCH   4   7
ENDBRANCH   3   4
ENDBRANCH   2   3
ENDBRANCH   1   2
BRANCH   1  12
ATOM     12  C   UNL     1     -33.196  27.706   3.083  0.00  0.00    +0.091 C 
BRANCH  12  13
ATOM     13  C   UNL     1     -31.777  28.126   3.447  0.00  0.00    +0.114 C 
BRANCH  13  16
ATOM     14  O   UNL     1     -32.079  31.081   3.684  0.00  0.00    -0.269 OA
ATOM     15  O   UNL     1     -31.526  27.344   6.315  0.00  0.00    -0.269 OA
ATOM     16  N   UNL     1     -31.799  28.958   4.635  0.00  0.00    -0.222 N 
ATOM     17  C   UNL     1     -31.947  30.319   4.626  0.00  0.00    +0.255 C 
ATOM     18  C   UNL     1     -31.676  28.486   5.913  0.00  0.00    +0.255 C 
ATOM     19  C   UNL     1     -31.916  30.745   6.034  0.00  0.00    +0.063 C 
ATOM     20  C   UNL     1     -31.755  29.661   6.794  0.00  0.00    +0.063 C 
ENDBRANCH  13  16
ENDBRANCH  12  13
ENDBRANCH   1  12
TORSDOF 7
ENDMDL
MODEL 4
REMARK VINA RESULT:      -5.4      0.631      1.786
REMARK  Name = 191989
REMARK  7 active torsions:
REMARK  status: ('A' for Active; 'I' for Inactive)
REMARK    1  A    between atoms: S_1  and  S_2
REMARK    2  A    between atoms: S_1  and  C_12
REMARK    3  A    between atoms: S_2  and  C_3
REMARK    4  A    between atoms: C_3  and  C_4
REMARK    5  A    between atoms: C_4  and  N_7
REMARK    6  A    between atoms: C_12  and  C_13
REMARK    7  A    between atoms: C_13  and  N_16
REMARK                            x       y       z     vdW  Elec       q    Type
REMARK                         _______ _______ _______ _____ _____    ______ ____
ROOT
ATOM      1  S   UNL     1     -35.081  25.772   1.798  0.00  0.00    -0.080 S 
ENDROOT
BRANCH   1   2
ATOM      2  S   UNL     1     -34.773  26.758   3.575  0.00  0.00    -0.080 S 
BRANCH   2   3
ATOM      3  C   UNL     1     -34.022  28.304   3.012  0.00  0.00    +0.091 C 
BRANCH   3   4
ATOM      4  C   UNL     1     -32.521  28.291   3.276  0.00  0.00    +0.114 C 
BRANCH   4   7
ATOM      5  O   UNL     1     -32.267  31.229   3.695  0.00  0.00    -0.269 OA
ATOM      6  O   UNL     1     -31.999  27.271   6.031  0.00  0.00    -0.269 OA
ATOM      7  N   UNL     1     -32.225  29.031   4.499  0.00  0.00    -0.222 N 
ATOM      8  C   UNL     1     -32.135  30.389   4.568  0.00  0.00    +0.255 C 
ATOM      9  C   UNL     1     -32.004  28.448   5.711  0.00  0.00    +0.255 C 
ATOM     10  C   UNL     1     -31.827  30.701   5.973  0.00  0.00    +0.063 C 
ATOM     11  C   UNL     1     -31.750  29.553   6.648  0.00  0.00    +0.063 C 
ENDBRANCH   4   7
ENDBRANCH   3   4
ENDBRANCH   2   3
ENDBRANCH   1   2
BRANCH   1  12
ATOM     12  C   UNL     1     -34.794  24.047   2.286  0.00  0.00    +0.091 C 
BRANCH  12  13
ATOM     13  C   UNL     1     -36.062  23.448   2.885  0.00  0.00    +0.114 C 
BRANCH  13  16
ATOM     14  O   UNL     1     -35.160  20.650   3.371  0.00  0.00    -0.269 OA
ATOM     15  O   UNL     1     -36.155  24.512   5.669  0.00  0.00    -0.269 OA
ATOM     16  N   UNL     1     -35.750  22.785   4.136  0.00  0.00    -0.222 N 
ATOM     17  C   UNL     1     -35.338  21.483   4.242  0.00  0.00    +0.255 C 
ATOM     18  C   UNL     1     -35.827  23.378   5.366  0.00  0.00    +0.255 C 
ATOM     19  C   UNL     1     -35.135  21.233   5.678  0.00  0.00    +0.063 C 
ATOM     20  C   UNL     1     -35.425  22.352   6.341  0.00  0.00    +0.063 C 
ENDBRANCH  13  16
ENDBRANCH  12  13
ENDBRANCH   1  12
TORSDOF 7
ENDMDL
MODEL 5
REMARK VINA RESULT:      -5.3      0.804      6.817
REMARK  Name = 191989
REMARK  7 active torsions:
REMARK  status: ('A' for Active; 'I' for Inactive)
REMARK    1  A    between atoms: S_1  and  S_2
REMARK    2  A    between atoms: S_1  and  C_12
REMARK    3  A    between atoms: S_2  and  C_3
REMARK    4  A    between atoms: C_3  and  C_4
REMARK    5  A    between atoms: C_4  and  N_7
REMARK    6  A    between atoms: C_12  and  C_13
REMARK    7  A    between atoms: C_13  and  N_16
REMARK                            x       y       z     vdW  Elec       q    Type
REMARK                         _______ _______ _______ _____ _____    ______ ____
ROOT
ATOM      1  S   UNL     1     -32.580  26.067   1.630  0.00  0.00    -0.080 S 
ENDROOT
BRANCH   1   2
ATOM      2  S   UNL     1     -34.570  26.025   2.143  0.00  0.00    -0.080 S 
BRANCH   2   3
ATOM      3  C   UNL     1     -34.937  24.257   2.054  0.00  0.00    +0.091 C 
BRANCH   3   4
ATOM      4  C   UNL     1     -36.167  23.927   2.891  0.00  0.00    +0.114 C 
BRANCH   4   7
ATOM      5  O   UNL     1     -35.758  24.901   5.677  0.00  0.00    -0.269 OA
ATOM      6  O   UNL     1     -35.540  21.027   3.200  0.00  0.00    -0.269 OA
ATOM      7  N   UNL     1     -35.771  23.185   4.084  0.00  0.00    -0.222 N 
ATOM      8  C   UNL     1     -35.616  23.745   5.317  0.00  0.00    +0.255 C 
ATOM      9  C   UNL     1     -35.510  21.848   4.101  0.00  0.00    +0.255 C 
ATOM     10  C   UNL     1     -35.217  22.647   6.211  0.00  0.00    +0.063 C 
ATOM     11  C   UNL     1     -35.155  21.525   5.492  0.00  0.00    +0.063 C 
ENDBRANCH   4   7
ENDBRANCH   3   4
ENDBRANCH   2   3
ENDBRANCH   1   2
BRANCH   1  12
ATOM     12  C   UNL     1     -31.898  27.155   2.913  0.00  0.00    +0.091 C 
BRANCH  12  13
ATOM     13  C   UNL     1     -32.993  27.583   3.883  0.00  0.00    +0.114 C 
BRANCH  13  16
ATOM     14  O   UNL     1     -32.513  30.510   3.598  0.00  0.00    -0.269 OA
ATOM     15  O   UNL     1     -32.068  27.120   6.680  0.00  0.00    -0.269 OA
ATOM     16  N   UNL     1     -32.458  28.526   4.845  0.00  0.00    -0.222 N 
ATOM     17  C   UNL     1     -32.281  29.863   4.605  0.00  0.00    +0.255 C 
ATOM     18  C   UNL     1     -32.064  28.199   6.114  0.00  0.00    +0.255 C 
ATOM     19  C   UNL     1     -31.723  30.432   5.841  0.00  0.00    +0.063 C 
ATOM     20  C   UNL     1     -31.595  29.449   6.732  0.00  0.00    +0.063 C 
ENDBRANCH  13  16
ENDBRANCH  12  13
ENDBRANCH   1  12
TORSDOF 7
ENDMDL
MODEL 6
REMARK VINA RESULT:      -5.3      5.754      8.204
REMARK  Name = 191989
REMARK  7 active torsions:
REMARK  status: ('A' for Active; 'I' for Inactive)
REMARK    1  A    between atoms: S_1  and  S_2
REMARK    2  A    between atoms: S_1  and  C_12
REMARK    3  A    between atoms: S_2  and  C_3
REMARK    4  A    between atoms: C_3  and  C_4
REMARK    5  A    between atoms: C_4  and  N_7
REMARK    6  A    between atoms: C_12  and  C_13
REMARK    7  A    between atoms: C_13  and  N_16
REMARK                            x       y       z     vdW  Elec       q    Type
REMARK                         _______ _______ _______ _____ _____    ______ ____
ROOT
ATOM      1  S   UNL     1     -39.983  24.712   2.049  0.00  0.00    -0.080 S 
ENDROOT
BRANCH   1   2
ATOM      2  S   UNL     1     -37.985  25.057   2.389  0.00  0.00    -0.080 S 
BRANCH   2   3
ATOM      3  C   UNL     1     -37.326  23.374   2.457  0.00  0.00    +0.091 C 
BRANCH   3   4
ATOM      4  C   UNL     1     -35.835  23.401   2.769  0.00  0.00    +0.114 C 
BRANCH   4   7
ATOM      5  O   UNL     1     -35.276  20.578   3.539  0.00  0.00    -0.269 OA
ATOM      6  O   UNL     1     -35.778  24.744   5.432  0.00  0.00    -0.269 OA
ATOM      7  N   UNL     1     -35.595  22.831   4.091  0.00  0.00    -0.222 N 
ATOM      8  C   UNL     1     -35.346  21.511   4.321  0.00  0.00    +0.255 C 
ATOM      9  C   UNL     1     -35.592  23.553   5.246  0.00  0.00    +0.255 C 
ATOM     10  C   UNL     1     -35.164  21.383   5.775  0.00  0.00    +0.063 C 
ATOM     11  C   UNL     1     -35.310  22.590   6.322  0.00  0.00    +0.063 C 
ENDBRANCH   4   7
ENDBRANCH   3   4
ENDBRANCH   2   3
ENDBRANCH   1   2
BRANCH   1  12
ATOM     12  C   UNL     1     -40.755  25.896   3.188  0.00  0.00    +0.091 C 
BRANCH  12  13
ATOM     13  C   UNL     1     -41.630  26.878   2.418  0.00  0.00    +0.114 C 
BRANCH  13  16
ATOM     14  O   UNL     1     -44.329  25.626   2.236  0.00  0.00    -0.269 OA
ATOM     15  O   UNL     1     -42.074  28.886   4.577  0.00  0.00    -0.269 OA
ATOM     16  N   UNL     1     -42.832  27.166   3.176  0.00  0.00    -0.222 N 
ATOM     17  C   UNL     1     -44.028  26.520   3.009  0.00  0.00    +0.255 C 
ATOM     18  C   UNL     1     -42.921  28.117   4.155  0.00  0.00    +0.255 C 
ATOM     19  C   UNL     1     -44.959  27.123   3.976  0.00  0.00    +0.063 C 
ATOM     20  C   UNL     1     -44.304  28.067   4.652  0.00  0.00    +0.063 C 
ENDBRANCH  13  16
ENDBRANCH  12  13
ENDBRANCH   1  12
TORSDOF 7
ENDMDL
MODEL 7
REMARK VINA RESULT:      -5.1      4.784      7.709
REMARK  Name = 191989
REMARK  7 active torsions:
REMARK  status: ('A' for Active; 'I' for Inactive)
REMARK    1  A    between atoms: S_1  and  S_2
REMARK    2  A    between atoms: S_1  and  C_12
REMARK    3  A    between atoms: S_2  and  C_3
REMARK    4  A    between atoms: C_3  and  C_4
REMARK    5  A    between atoms: C_4  and  N_7
REMARK    6  A    between atoms: C_12  and  C_13
REMARK    7  A    between atoms: C_13  and  N_16
REMARK                            x       y       z     vdW  Elec       q    Type
REMARK                         _______ _______ _______ _____ _____    ______ ____
ROOT
ATOM      1  S   UNL     1     -36.359  21.454   0.093  0.00  0.00    -0.080 S 
ENDROOT
BRANCH   1   2
ATOM      2  S   UNL     1     -36.472  19.481   0.660  0.00  0.00    -0.080 S 
BRANCH   2   3
ATOM      3  C   UNL     1     -34.819  18.881   0.239  0.00  0.00    +0.091 C 
BRANCH   3   4
ATOM      4  C   UNL     1     -33.813  19.312   1.300  0.00  0.00    +0.114 C 
BRANCH   4   7
ATOM      5  O   UNL     1     -32.677  21.474  -0.405  0.00  0.00    -0.269 OA
ATOM      6  O   UNL     1     -31.500  17.434   1.461  0.00  0.00    -0.269 OA
ATOM      7  N   UNL     1     -32.484  19.423   0.708  0.00  0.00    -0.222 N 
ATOM      8  C   UNL     1     -32.074  20.472  -0.061  0.00  0.00    +0.255 C 
ATOM      9  C   UNL     1     -31.500  18.492   0.854  0.00  0.00    +0.255 C 
ATOM     10  C   UNL     1     -30.684  20.175  -0.440  0.00  0.00    +0.063 C 
ATOM     11  C   UNL     1     -30.345  19.005   0.101  0.00  0.00    +0.063 C 
ENDBRANCH   4   7
ENDBRANCH   3   4
ENDBRANCH   2   3
ENDBRANCH   1   2
BRANCH   1  12
ATOM     12  C   UNL     1     -35.698  22.226   1.599  0.00  0.00    +0.091 C 
BRANCH  12  13
ATOM     13  C   UNL     1     -36.694  22.089   2.745  0.00  0.00    +0.114 C 
BRANCH  13  16
ATOM     14  O   UNL     1     -35.086  20.901   4.955  0.00  0.00    -0.269 OA
ATOM     15  O   UNL     1     -36.915  24.920   3.654  0.00  0.00    -0.269 OA
ATOM     16  N   UNL     1     -36.161  22.718   3.937  0.00  0.00    -0.222 N 
ATOM     17  C   UNL     1     -35.427  22.070   4.894  0.00  0.00    +0.255 C 
ATOM     18  C   UNL     1     -36.324  24.039   4.254  0.00  0.00    +0.255 C 
ATOM     19  C   UNL     1     -35.095  23.080   5.911  0.00  0.00    +0.063 C 
ATOM     20  C   UNL     1     -35.626  24.243   5.533  0.00  0.00    +0.063 C 
ENDBRANCH  13  16
ENDBRANCH  12  13
ENDBRANCH   1  12
TORSDOF 7
ENDMDL
MODEL 8
REMARK VINA RESULT:      -5.1      5.720      7.939
REMARK  Name = 191989
REMARK  7 active torsions:
REMARK  status: ('A' for Active; 'I' for Inactive)
REMARK    1  A    between atoms: S_1  and  S_2
REMARK    2  A    between atoms: S_1  and  C_12
REMARK    3  A    between atoms: S_2  and  C_3
REMARK    4  A    between atoms: C_3  and  C_4
REMARK    5  A    between atoms: C_4  and  N_7
REMARK    6  A    between atoms: C_12  and  C_13
REMARK    7  A    between atoms: C_13  and  N_16
REMARK                            x       y       z     vdW  Elec       q    Type
REMARK                         _______ _______ _______ _____ _____    ______ ____
ROOT
ATOM      1  S   UNL     1     -38.047  25.656   2.898  0.00  0.00    -0.080 S 
ENDROOT
BRANCH   1   2
ATOM      2  S   UNL     1     -39.400  25.761   1.354  0.00  0.00    -0.080 S 
BRANCH   2   3
ATOM      3  C   UNL     1     -40.976  25.657   2.237  0.00  0.00    +0.091 C 
BRANCH   3   4
ATOM      4  C   UNL     1     -41.889  26.806   1.827  0.00  0.00    +0.114 C 
BRANCH   4   7
ATOM      5  O   UNL     1     -42.064  28.602   4.198  0.00  0.00    -0.269 OA
ATOM      6  O   UNL     1     -44.510  25.389   1.988  0.00  0.00    -0.269 OA
ATOM      7  N   UNL     1     -42.967  26.954   2.801  0.00  0.00    -0.222 N 
ATOM      8  C   UNL     1     -42.933  27.820   3.854  0.00  0.00    +0.255 C 
ATOM      9  C   UNL     1     -44.129  26.245   2.769  0.00  0.00    +0.255 C 
ATOM     10  C   UNL     1     -44.209  27.641   4.563  0.00  0.00    +0.063 C 
ATOM     11  C   UNL     1     -44.916  26.710   3.921  0.00  0.00    +0.063 C 
ENDBRANCH   4   7
ENDBRANCH   3   4
ENDBRANCH   2   3
ENDBRANCH   1   2
BRANCH   1  12
ATOM     12  C   UNL     1     -37.738  23.869   2.989  0.00  0.00    +0.091 C 
BRANCH  12  13
ATOM     13  C   UNL     1     -36.242  23.586   2.918  0.00  0.00    +0.114 C 
BRANCH  13  16
ATOM     14  O   UNL     1     -35.848  24.732   5.641  0.00  0.00    -0.269 OA
ATOM     15  O   UNL     1     -35.492  20.737   3.381  0.00  0.00    -0.269 OA
ATOM     16  N   UNL     1     -35.807  22.934   4.138  0.00  0.00    -0.222 N 
ATOM     17  C   UNL     1     -35.661  23.564   5.345  0.00  0.00    +0.255 C 
ATOM     18  C   UNL     1     -35.488  21.607   4.235  0.00  0.00    +0.255 C 
ATOM     19  C   UNL     1     -35.209  22.534   6.293  0.00  0.00    +0.063 C 
ATOM     20  C   UNL     1     -35.106  21.379   5.637  0.00  0.00    +0.063 C 
ENDBRANCH  13  16
ENDBRANCH  12  13
ENDBRANCH   1  12
TORSDOF 7
ENDMDL
MODEL 9
REMARK VINA RESULT:      -5.0      0.769      2.431
REMARK  Name = 191989
REMARK  7 active torsions:
REMARK  status: ('A' for Active; 'I' for Inactive)
REMARK    1  A    between atoms: S_1  and  S_2
REMARK    2  A    between atoms: S_1  and  C_12
REMARK    3  A    between atoms: S_2  and  C_3
REMARK    4  A    between atoms: C_3  and  C_4
REMARK    5  A    between atoms: C_4  and  N_7
REMARK    6  A    between atoms: C_12  and  C_13
REMARK    7  A    between atoms: C_13  and  N_16
REMARK                            x       y       z     vdW  Elec       q    Type
REMARK                         _______ _______ _______ _____ _____    ______ ____
ROOT
ATOM      1  S   UNL     1     -36.187  26.242   1.992  0.00  0.00    -0.080 S 
ENDROOT
BRANCH   1   2
ATOM      2  S   UNL     1     -35.140  27.142   3.515  0.00  0.00    -0.080 S 
BRANCH   2   3
ATOM      3  C   UNL     1     -33.694  27.784   2.639  0.00  0.00    +0.091 C 
BRANCH   3   4
ATOM      4  C   UNL     1     -32.415  27.393   3.369  0.00  0.00    +0.114 C 
BRANCH   4   7
ATOM      5  O   UNL     1     -32.438  27.017   6.324  0.00  0.00    -0.269 OA
ATOM      6  O   UNL     1     -31.667  30.273   3.163  0.00  0.00    -0.269 OA
ATOM      7  N   UNL     1     -32.133  28.357   4.428  0.00  0.00    -0.222 N 
ATOM      8  C   UNL     1     -32.175  28.064   5.759  0.00  0.00    +0.255 C 
ATOM      9  C   UNL     1     -31.798  29.658   4.208  0.00  0.00    +0.255 C 
ATOM     10  C   UNL     1     -31.827  29.312   6.456  0.00  0.00    +0.063 C 
ATOM     11  C   UNL     1     -31.603  30.254   5.539  0.00  0.00    +0.063 C 
ENDBRANCH   4   7
ENDBRANCH   3   4
ENDBRANCH   2   3
ENDBRANCH   1   2
BRANCH   1  12
ATOM     12  C   UNL     1     -36.375  24.552   2.630  0.00  0.00    +0.091 C 
BRANCH  12  13
ATOM     13  C   UNL     1     -35.015  23.969   2.995  0.00  0.00    +0.114 C 
BRANCH  13  16
ATOM     14  O   UNL     1     -35.453  21.032   3.240  0.00  0.00    -0.269 OA
ATOM     15  O   UNL     1     -34.893  24.771   5.865  0.00  0.00    -0.269 OA
ATOM     16  N   UNL     1     -35.134  23.151   4.187  0.00  0.00    -0.222 N 
ATOM     17  C   UNL     1     -35.334  21.797   4.181  0.00  0.00    +0.255 C 
ATOM     18  C   UNL     1     -35.059  23.631   5.465  0.00  0.00    +0.255 C 
ATOM     19  C   UNL     1     -35.390  21.385   5.592  0.00  0.00    +0.063 C 
ATOM     20  C   UNL     1     -35.228  22.469   6.350  0.00  0.00    +0.063 C 
ENDBRANCH  13  16
ENDBRANCH  12  13
ENDBRANCH   1  12
TORSDOF 7
ENDMDL
