MODEL 1
REMARK VINA RESULT:      -5.8      0.000      0.000
REMARK  Name = 195970
REMARK  9 active torsions:
REMARK  status: ('A' for Active; 'I' for Inactive)
REMARK    1  A    between atoms: C_1  and  C_4
REMARK    2  A    between atoms: C_1  and  N_15
REMARK    3  A    between atoms: C_1  and  C_19
REMARK    4  A    between atoms: N_3  and  C_6
REMARK    5  A    between atoms: C_11  and  N_14
REMARK    6  A    between atoms: C_19  and  C_20
REMARK    7  A    between atoms: C_20  and  C_21
REMARK    8  A    between atoms: C_21  and  N_22
REMARK    9  A    between atoms: N_22  and  C_25
REMARK                            x       y       z     vdW  Elec       q    Type
REMARK                         _______ _______ _______ _____ _____    ______ ____
ROOT
ATOM      1  C   UNL     1     -34.585  29.861   2.614  0.00  0.00    +0.013 C 
ENDROOT
BRANCH   1   4
ATOM      2  O   UNL     1     -35.927  28.018   1.833  0.00  0.00    -0.277 OA
ATOM      3  N   UNL     1     -34.584  27.720   3.734  0.00  0.00    -0.286 N 
ATOM      4  C   UNL     1     -35.114  28.426   2.658  0.00  0.00    +0.206 C 
ATOM      5  H   UNL     1     -33.957  28.214   4.311  0.00  0.00    +0.155 HD
BRANCH   3   6
ATOM      6  C   UNL     1     -34.839  26.377   4.094  0.00  0.00    +0.050 C 
ATOM      7  C   UNL     1     -34.385  25.357   3.275  0.00  0.00    +0.016 C 
ATOM      8  C   UNL     1     -35.539  26.109   5.259  0.00  0.00    +0.016 C 
ATOM      9  C   UNL     1     -34.637  24.031   3.630  0.00  0.00    +0.025 C 
ATOM     10  C   UNL     1     -35.792  24.784   5.615  0.00  0.00    +0.025 C 
ATOM     11  C   UNL     1     -35.341  23.745   4.800  0.00  0.00    +0.143 C 
BRANCH  11  14
ATOM     12  O   UNL     1     -35.986  22.146   6.330  0.00  0.00    -0.126 OA
ATOM     13  O   UNL     1     -35.431  21.494   4.307  0.00  0.00    -0.126 OA
ATOM     14  N   UNL     1     -35.598  22.396   5.163  0.00  0.00    +0.058 N 
ENDBRANCH  11  14
ENDBRANCH   3   6
ENDBRANCH   1   4
BRANCH   1  15
ATOM     15  N   UNL     1     -35.292  30.576   3.679  0.00  0.00    +0.387 N 
ATOM     16  H   UNL     1     -36.098  31.062   3.286  0.00  0.00    -0.089 HD
ATOM     17  H   UNL     1     -34.663  31.252   4.110  0.00  0.00    -0.089 HD
ATOM     18  H   UNL     1     -35.609  29.908   4.383  0.00  0.00    -0.089 HD
ENDBRANCH   1  15
BRANCH   1  19
ATOM     19  C   UNL     1     -33.068  29.940   2.847  0.00  0.00    -0.011 C 
BRANCH  19  20
ATOM     20  C   UNL     1     -32.720  30.800   4.070  0.00  0.00    +0.025 C 
BRANCH  20  21
ATOM     21  C   UNL     1     -31.863  30.049   5.084  0.00  0.00    +0.129 C 
BRANCH  21  22
ATOM     22  N   UNL     1     -32.526  28.804   5.474  0.00  0.00    -0.240 NA
BRANCH  22  25
ATOM     23  N   UNL     1     -32.582  27.189   7.251  0.00  0.00    -0.370 N 
ATOM     24  N   UNL     1     -30.667  28.330   6.773  0.00  0.00    -0.370 N 
ATOM     25  C   UNL     1     -31.988  28.134   6.444  0.00  0.00    +0.189 C 
ATOM     26  H   UNL     1     -33.529  26.955   7.118  0.00  0.00    +0.159 HD
ATOM     27  H   UNL     1     -32.060  26.748   7.958  0.00  0.00    +0.159 HD
ATOM     28  H   UNL     1     -30.126  28.982   6.272  0.00  0.00    +0.159 HD
ATOM     29  H   UNL     1     -30.263  27.819   7.511  0.00  0.00    +0.159 HD
ENDBRANCH  22  25
ENDBRANCH  21  22
ENDBRANCH  20  21
ENDBRANCH  19  20
ENDBRANCH   1  19
TORSDOF 9
ENDMDL
MODEL 2
REMARK VINA RESULT:      -5.5      4.999      7.574
REMARK  Name = 195970
REMARK  9 active torsions:
REMARK  status: ('A' for Active; 'I' for Inactive)
REMARK    1  A    between atoms: C_1  and  C_4
REMARK    2  A    between atoms: C_1  and  N_15
REMARK    3  A    between atoms: C_1  and  C_19
REMARK    4  A    between atoms: N_3  and  C_6
REMARK    5  A    between atoms: C_11  and  N_14
REMARK    6  A    between atoms: C_19  and  C_20
REMARK    7  A    between atoms: C_20  and  C_21
REMARK    8  A    between atoms: C_21  and  N_22
REMARK    9  A    between atoms: N_22  and  C_25
REMARK                            x       y       z     vdW  Elec       q    Type
REMARK                         _______ _______ _______ _____ _____    ______ ____
ROOT
ATOM      1  C   UNL     1     -36.677  21.754   2.173  0.00  0.00    +0.013 C 
ENDROOT
BRANCH   1   4
ATOM      2  O   UNL     1     -35.165  20.369   3.438  0.00  0.00    -0.277 OA
ATOM      3  N   UNL     1     -34.720  20.759   1.167  0.00  0.00    -0.286 N 
ATOM      4  C   UNL     1     -35.443  20.869   2.351  0.00  0.00    +0.206 C 
ATOM      5  H   UNL     1     -35.080  21.247   0.390  0.00  0.00    +0.155 HD
BRANCH   3   6
ATOM      6  C   UNL     1     -33.528  20.028   0.948  0.00  0.00    +0.050 C 
ATOM      7  C   UNL     1     -33.410  18.753   1.473  0.00  0.00    +0.016 C 
ATOM      8  C   UNL     1     -32.506  20.604   0.213  0.00  0.00    +0.016 C 
ATOM      9  C   UNL     1     -32.235  18.031   1.258  0.00  0.00    +0.025 C 
ATOM     10  C   UNL     1     -31.330  19.884  -0.003  0.00  0.00    +0.025 C 
ATOM     11  C   UNL     1     -31.195  18.598   0.520  0.00  0.00    +0.143 C 
BRANCH  11  14
ATOM     12  O   UNL     1     -29.808  16.806   0.946  0.00  0.00    -0.126 OA
ATOM     13  O   UNL     1     -29.167  18.295  -0.535  0.00  0.00    -0.126 OA
ATOM     14  N   UNL     1     -29.999  17.865   0.300  0.00  0.00    +0.058 N 
ENDBRANCH  11  14
ENDBRANCH   3   6
ENDBRANCH   1   4
BRANCH   1  15
ATOM     15  N   UNL     1     -37.826  20.848   2.231  0.00  0.00    +0.387 N 
ATOM     16  H   UNL     1     -38.602  21.248   1.704  0.00  0.00    -0.089 HD
ATOM     17  H   UNL     1     -38.106  20.715   3.202  0.00  0.00    -0.089 HD
ATOM     18  H   UNL     1     -37.568  19.947   1.825  0.00  0.00    -0.089 HD
ENDBRANCH   1  15
BRANCH   1  19
ATOM     19  C   UNL     1     -36.799  22.825   3.268  0.00  0.00    -0.011 C 
BRANCH  19  20
ATOM     20  C   UNL     1     -35.581  23.761   3.294  0.00  0.00    +0.025 C 
BRANCH  20  21
ATOM     21  C   UNL     1     -34.825  23.694   4.616  0.00  0.00    +0.129 C 
BRANCH  21  22
ATOM     22  N   UNL     1     -35.512  24.499   5.626  0.00  0.00    -0.240 NA
BRANCH  22  25
ATOM     23  N   UNL     1     -34.263  26.550   5.573  0.00  0.00    -0.370 N 
ATOM     24  N   UNL     1     -36.529  26.559   5.320  0.00  0.00    -0.370 N 
ATOM     25  C   UNL     1     -35.408  25.787   5.517  0.00  0.00    +0.189 C 
ATOM     26  H   UNL     1     -33.390  26.118   5.710  0.00  0.00    +0.159 HD
ATOM     27  H   UNL     1     -34.319  27.528   5.474  0.00  0.00    +0.159 HD
ATOM     28  H   UNL     1     -37.415  26.135   5.261  0.00  0.00    +0.159 HD
ATOM     29  H   UNL     1     -36.445  27.536   5.237  0.00  0.00    +0.159 HD
ENDBRANCH  22  25
ENDBRANCH  21  22
ENDBRANCH  20  21
ENDBRANCH  19  20
ENDBRANCH   1  19
TORSDOF 9
ENDMDL
MODEL 3
REMARK VINA RESULT:      -5.3      1.767      3.542
REMARK  Name = 195970
REMARK  9 active torsions:
REMARK  status: ('A' for Active; 'I' for Inactive)
REMARK    1  A    between atoms: C_1  and  C_4
REMARK    2  A    between atoms: C_1  and  N_15
REMARK    3  A    between atoms: C_1  and  C_19
REMARK    4  A    between atoms: N_3  and  C_6
REMARK    5  A    between atoms: C_11  and  N_14
REMARK    6  A    between atoms: C_19  and  C_20
REMARK    7  A    between atoms: C_20  and  C_21
REMARK    8  A    between atoms: C_21  and  N_22
REMARK    9  A    between atoms: N_22  and  C_25
REMARK                            x       y       z     vdW  Elec       q    Type
REMARK                         _______ _______ _______ _____ _____    ______ ____
ROOT
ATOM      1  C   UNL     1     -31.777  29.088   6.259  0.00  0.00    +0.013 C 
ENDROOT
BRANCH   1   4
ATOM      2  O   UNL     1     -32.131  26.863   7.113  0.00  0.00    -0.277 OA
ATOM      3  N   UNL     1     -33.252  27.522   5.160  0.00  0.00    -0.286 N 
ATOM      4  C   UNL     1     -32.405  27.693   6.251  0.00  0.00    +0.206 C 
ATOM      5  H   UNL     1     -33.340  28.291   4.552  0.00  0.00    +0.155 HD
BRANCH   3   6
ATOM      6  C   UNL     1     -34.003  26.371   4.823  0.00  0.00    +0.050 C 
ATOM      7  C   UNL     1     -33.675  25.657   3.684  0.00  0.00    +0.016 C 
ATOM      8  C   UNL     1     -35.052  25.983   5.641  0.00  0.00    +0.016 C 
ATOM      9  C   UNL     1     -34.415  24.521   3.352  0.00  0.00    +0.025 C 
ATOM     10  C   UNL     1     -35.793  24.849   5.309  0.00  0.00    +0.025 C 
ATOM     11  C   UNL     1     -35.474  24.118   4.164  0.00  0.00    +0.143 C 
BRANCH  11  14
ATOM     12  O   UNL     1     -37.458  23.085   3.607  0.00  0.00    -0.126 OA
ATOM     13  O   UNL     1     -35.646  21.855   3.758  0.00  0.00    -0.126 OA
ATOM     14  N   UNL     1     -36.229  22.963   3.827  0.00  0.00    +0.058 N 
ENDBRANCH  11  14
ENDBRANCH   3   6
ENDBRANCH   1   4
BRANCH   1  15
ATOM     15  N   UNL     1     -30.515  28.949   6.989  0.00  0.00    +0.387 N 
ATOM     16  H   UNL     1     -30.236  27.968   7.002  0.00  0.00    -0.089 HD
ATOM     17  H   UNL     1     -30.638  29.282   7.945  0.00  0.00    -0.089 HD
ATOM     18  H   UNL     1     -29.793  29.502   6.526  0.00  0.00    -0.089 HD
ENDBRANCH   1  15
BRANCH   1  19
ATOM     19  C   UNL     1     -31.508  29.623   4.844  0.00  0.00    -0.011 C 
BRANCH  19  20
ATOM     20  C   UNL     1     -32.287  30.916   4.562  0.00  0.00    +0.025 C 
BRANCH  20  21
ATOM     21  C   UNL     1     -32.890  30.938   3.162  0.00  0.00    +0.129 C 
BRANCH  21  22
ATOM     22  N   UNL     1     -33.548  29.662   2.881  0.00  0.00    -0.240 NA
BRANCH  22  25
ATOM     23  N   UNL     1     -35.689  28.645   2.494  0.00  0.00    -0.370 N 
ATOM     24  N   UNL     1     -35.539  30.766   3.316  0.00  0.00    -0.370 N 
ATOM     25  C   UNL     1     -34.845  29.660   2.885  0.00  0.00    +0.189 C 
ATOM     26  H   UNL     1     -35.318  27.796   2.164  0.00  0.00    +0.159 HD
ATOM     27  H   UNL     1     -36.665  28.769   2.546  0.00  0.00    +0.159 HD
ATOM     28  H   UNL     1     -35.052  31.564   3.624  0.00  0.00    +0.159 HD
ATOM     29  H   UNL     1     -36.524  30.759   3.317  0.00  0.00    +0.159 HD
ENDBRANCH  22  25
ENDBRANCH  21  22
ENDBRANCH  20  21
ENDBRANCH  19  20
ENDBRANCH   1  19
TORSDOF 9
ENDMDL
MODEL 4
REMARK VINA RESULT:      -5.3      2.191      2.767
REMARK  Name = 195970
REMARK  9 active torsions:
REMARK  status: ('A' for Active; 'I' for Inactive)
REMARK    1  A    between atoms: C_1  and  C_4
REMARK    2  A    between atoms: C_1  and  N_15
REMARK    3  A    between atoms: C_1  and  C_19
REMARK    4  A    between atoms: N_3  and  C_6
REMARK    5  A    between atoms: C_11  and  N_14
REMARK    6  A    between atoms: C_19  and  C_20
REMARK    7  A    between atoms: C_20  and  C_21
REMARK    8  A    between atoms: C_21  and  N_22
REMARK    9  A    between atoms: N_22  and  C_25
REMARK                            x       y       z     vdW  Elec       q    Type
REMARK                         _______ _______ _______ _____ _____    ______ ____
ROOT
ATOM      1  C   UNL     1     -31.934  29.712   4.560  0.00  0.00    +0.013 C 
ENDROOT
BRANCH   1   4
ATOM      2  O   UNL     1     -31.462  27.686   5.777  0.00  0.00    -0.277 OA
ATOM      3  N   UNL     1     -33.340  27.756   4.371  0.00  0.00    -0.286 N 
ATOM      4  C   UNL     1     -32.207  28.270   4.994  0.00  0.00    +0.206 C 
ATOM      5  H   UNL     1     -33.809  28.362   3.752  0.00  0.00    +0.155 HD
BRANCH   3   6
ATOM      6  C   UNL     1     -33.898  26.465   4.524  0.00  0.00    +0.050 C 
ATOM      7  C   UNL     1     -33.910  25.600   3.444  0.00  0.00    +0.016 C 
ATOM      8  C   UNL     1     -34.421  26.095   5.752  0.00  0.00    +0.016 C 
ATOM      9  C   UNL     1     -34.460  24.326   3.594  0.00  0.00    +0.025 C 
ATOM     10  C   UNL     1     -34.972  24.822   5.903  0.00  0.00    +0.025 C 
ATOM     11  C   UNL     1     -34.991  23.938   4.824  0.00  0.00    +0.143 C 
BRANCH  11  14
ATOM     12  O   UNL     1     -36.035  22.319   6.091  0.00  0.00    -0.126 OA
ATOM     13  O   UNL     1     -35.549  21.858   4.000  0.00  0.00    -0.126 OA
ATOM     14  N   UNL     1     -35.552  22.642   4.979  0.00  0.00    +0.058 N 
ENDBRANCH  11  14
ENDBRANCH   3   6
ENDBRANCH   1   4
BRANCH   1  15
ATOM     15  N   UNL     1     -33.248  30.350   4.461  0.00  0.00    +0.387 N 
ATOM     16  H   UNL     1     -33.651  30.158   3.544  0.00  0.00    -0.089 HD
ATOM     17  H   UNL     1     -33.147  31.357   4.585  0.00  0.00    -0.089 HD
ATOM     18  H   UNL     1     -33.862  29.978   5.187  0.00  0.00    -0.089 HD
ENDBRANCH   1  15
BRANCH   1  19
ATOM     19  C   UNL     1     -31.055  30.475   5.563  0.00  0.00    -0.011 C 
BRANCH  19  20
ATOM     20  C   UNL     1     -29.691  30.847   4.963  0.00  0.00    +0.025 C 
BRANCH  20  21
ATOM     21  C   UNL     1     -28.546  30.635   5.947  0.00  0.00    +0.129 C 
BRANCH  21  22
ATOM     22  N   UNL     1     -28.157  29.224   5.965  0.00  0.00    -0.240 NA
BRANCH  22  25
ATOM     23  N   UNL     1     -28.684  27.206   7.157  0.00  0.00    -0.370 N 
ATOM     24  N   UNL     1     -28.502  29.195   8.257  0.00  0.00    -0.370 N 
ATOM     25  C   UNL     1     -28.433  28.555   7.041  0.00  0.00    +0.189 C 
ATOM     26  H   UNL     1     -28.666  26.632   6.358  0.00  0.00    +0.159 HD
ATOM     27  H   UNL     1     -28.882  26.817   8.039  0.00  0.00    +0.159 HD
ATOM     28  H   UNL     1     -28.342  30.164   8.313  0.00  0.00    +0.159 HD
ATOM     29  H   UNL     1     -28.712  28.683   9.071  0.00  0.00    +0.159 HD
ENDBRANCH  22  25
ENDBRANCH  21  22
ENDBRANCH  20  21
ENDBRANCH  19  20
ENDBRANCH   1  19
TORSDOF 9
ENDMDL
MODEL 5
REMARK VINA RESULT:      -5.1      4.795      7.297
REMARK  Name = 195970
REMARK  9 active torsions:
REMARK  status: ('A' for Active; 'I' for Inactive)
REMARK    1  A    between atoms: C_1  and  C_4
REMARK    2  A    between atoms: C_1  and  N_15
REMARK    3  A    between atoms: C_1  and  C_19
REMARK    4  A    between atoms: N_3  and  C_6
REMARK    5  A    between atoms: C_11  and  N_14
REMARK    6  A    between atoms: C_19  and  C_20
REMARK    7  A    between atoms: C_20  and  C_21
REMARK    8  A    between atoms: C_21  and  N_22
REMARK    9  A    between atoms: N_22  and  C_25
REMARK                            x       y       z     vdW  Elec       q    Type
REMARK                         _______ _______ _______ _____ _____    ______ ____
ROOT
ATOM      1  C   UNL     1     -35.815  25.481   4.858  0.00  0.00    +0.013 C 
ENDROOT
BRANCH   1   4
ATOM      2  O   UNL     1     -36.345  25.979   2.561  0.00  0.00    -0.277 OA
ATOM      3  N   UNL     1     -37.984  24.987   3.917  0.00  0.00    -0.286 N 
ATOM      4  C   UNL     1     -36.727  25.511   3.631  0.00  0.00    +0.206 C 
ATOM      5  H   UNL     1     -38.125  24.674   4.840  0.00  0.00    +0.155 HD
BRANCH   3   6
ATOM      6  C   UNL     1     -39.083  24.852   3.036  0.00  0.00    +0.050 C 
ATOM      7  C   UNL     1     -39.950  25.918   2.866  0.00  0.00    +0.016 C 
ATOM      8  C   UNL     1     -39.269  23.656   2.363  0.00  0.00    +0.016 C 
ATOM      9  C   UNL     1     -41.034  25.785   1.997  0.00  0.00    +0.025 C 
ATOM     10  C   UNL     1     -40.352  23.522   1.495  0.00  0.00    +0.025 C 
ATOM     11  C   UNL     1     -41.235  24.587   1.312  0.00  0.00    +0.143 C 
BRANCH  11  14
ATOM     12  O   UNL     1     -42.133  24.498  -0.809  0.00  0.00    -0.126 OA
ATOM     13  O   UNL     1     -43.485  24.284   0.908  0.00  0.00    -0.126 OA
ATOM     14  N   UNL     1     -42.338  24.450   0.428  0.00  0.00    +0.058 N 
ENDBRANCH  11  14
ENDBRANCH   3   6
ENDBRANCH   1   4
BRANCH   1  15
ATOM     15  N   UNL     1     -36.391  26.442   5.802  0.00  0.00    +0.387 N 
ATOM     16  H   UNL     1     -36.372  27.375   5.391  0.00  0.00    -0.089 HD
ATOM     17  H   UNL     1     -35.848  26.438   6.664  0.00  0.00    -0.089 HD
ATOM     18  H   UNL     1     -37.356  26.180   6.006  0.00  0.00    -0.089 HD
ENDBRANCH   1  15
BRANCH   1  19
ATOM     19  C   UNL     1     -35.741  24.090   5.507  0.00  0.00    -0.011 C 
BRANCH  19  20
ATOM     20  C   UNL     1     -34.837  23.134   4.713  0.00  0.00    +0.025 C 
BRANCH  20  21
ATOM     21  C   UNL     1     -35.506  21.791   4.444  0.00  0.00    +0.129 C 
BRANCH  21  22
ATOM     22  N   UNL     1     -35.892  21.698   3.035  0.00  0.00    -0.240 NA
BRANCH  22  25
ATOM     23  N   UNL     1     -34.705  19.834   2.095  0.00  0.00    -0.370 N 
ATOM     24  N   UNL     1     -36.980  19.814   2.237  0.00  0.00    -0.370 N 
ATOM     25  C   UNL     1     -35.830  20.524   2.488  0.00  0.00    +0.189 C 
ATOM     26  H   UNL     1     -33.814  20.233   2.220  0.00  0.00    +0.159 HD
ATOM     27  H   UNL     1     -34.792  18.942   1.689  0.00  0.00    +0.159 HD
ATOM     28  H   UNL     1     -37.856  20.197   2.471  0.00  0.00    +0.159 HD
ATOM     29  H   UNL     1     -36.927  18.924   1.821  0.00  0.00    +0.159 HD
ENDBRANCH  22  25
ENDBRANCH  21  22
ENDBRANCH  20  21
ENDBRANCH  19  20
ENDBRANCH   1  19
TORSDOF 9
ENDMDL
MODEL 6
REMARK VINA RESULT:      -5.1      4.110      6.463
REMARK  Name = 195970
REMARK  9 active torsions:
REMARK  status: ('A' for Active; 'I' for Inactive)
REMARK    1  A    between atoms: C_1  and  C_4
REMARK    2  A    between atoms: C_1  and  N_15
REMARK    3  A    between atoms: C_1  and  C_19
REMARK    4  A    between atoms: N_3  and  C_6
REMARK    5  A    between atoms: C_11  and  N_14
REMARK    6  A    between atoms: C_19  and  C_20
REMARK    7  A    between atoms: C_20  and  C_21
REMARK    8  A    between atoms: C_21  and  N_22
REMARK    9  A    between atoms: N_22  and  C_25
REMARK                            x       y       z     vdW  Elec       q    Type
REMARK                         _______ _______ _______ _____ _____    ______ ____
ROOT
ATOM      1  C   UNL     1     -35.802  23.296   4.896  0.00  0.00    +0.013 C 
ENDROOT
BRANCH   1   4
ATOM      2  O   UNL     1     -35.734  23.486   2.495  0.00  0.00    -0.277 OA
ATOM      3  N   UNL     1     -35.675  21.352   3.468  0.00  0.00    -0.286 N 
ATOM      4  C   UNL     1     -35.723  22.742   3.473  0.00  0.00    +0.206 C 
ATOM      5  H   UNL     1     -35.697  20.912   4.350  0.00  0.00    +0.155 HD
BRANCH   3   6
ATOM      6  C   UNL     1     -35.598  20.495   2.345  0.00  0.00    +0.050 C 
ATOM      7  C   UNL     1     -34.368  19.988   1.962  0.00  0.00    +0.016 C 
ATOM      8  C   UNL     1     -36.756  20.181   1.652  0.00  0.00    +0.016 C 
ATOM      9  C   UNL     1     -34.292  19.142   0.855  0.00  0.00    +0.025 C 
ATOM     10  C   UNL     1     -36.681  19.336   0.545  0.00  0.00    +0.025 C 
ATOM     11  C   UNL     1     -35.449  18.817   0.146  0.00  0.00    +0.143 C 
BRANCH  11  14
ATOM     12  O   UNL     1     -34.244  17.629  -1.420  0.00  0.00    -0.126 OA
ATOM     13  O   UNL     1     -36.436  17.547  -1.506  0.00  0.00    -0.126 OA
ATOM     14  N   UNL     1     -35.373  17.956  -0.981  0.00  0.00    +0.058 N 
ENDBRANCH  11  14
ENDBRANCH   3   6
ENDBRANCH   1   4
BRANCH   1  15
ATOM     15  N   UNL     1     -36.036  22.136   5.759  0.00  0.00    +0.387 N 
ATOM     16  H   UNL     1     -36.806  21.582   5.383  0.00  0.00    -0.089 HD
ATOM     17  H   UNL     1     -36.272  22.453   6.699  0.00  0.00    -0.089 HD
ATOM     18  H   UNL     1     -35.192  21.564   5.795  0.00  0.00    -0.089 HD
ENDBRANCH   1  15
BRANCH   1  19
ATOM     19  C   UNL     1     -34.513  24.015   5.324  0.00  0.00    -0.011 C 
BRANCH  19  20
ATOM     20  C   UNL     1     -34.773  25.479   5.708  0.00  0.00    +0.025 C 
BRANCH  20  21
ATOM     21  C   UNL     1     -33.965  26.455   4.861  0.00  0.00    +0.129 C 
BRANCH  21  22
ATOM     22  N   UNL     1     -34.867  27.318   4.096  0.00  0.00    -0.240 NA
BRANCH  22  25
ATOM     23  N   UNL     1     -36.845  26.530   2.985  0.00  0.00    -0.370 N 
ATOM     24  N   UNL     1     -34.802  26.357   1.989  0.00  0.00    -0.370 N 
ATOM     25  C   UNL     1     -35.494  26.773   3.102  0.00  0.00    +0.189 C 
ATOM     26  H   UNL     1     -37.455  26.782   3.716  0.00  0.00    +0.159 HD
ATOM     27  H   UNL     1     -37.200  26.106   2.171  0.00  0.00    +0.159 HD
ATOM     28  H   UNL     1     -33.826  26.473   1.944  0.00  0.00    +0.159 HD
ATOM     29  H   UNL     1     -35.283  25.943   1.236  0.00  0.00    +0.159 HD
ENDBRANCH  22  25
ENDBRANCH  21  22
ENDBRANCH  20  21
ENDBRANCH  19  20
ENDBRANCH   1  19
TORSDOF 9
ENDMDL
MODEL 7
REMARK VINA RESULT:      -5.1      3.615      7.215
REMARK  Name = 195970
REMARK  9 active torsions:
REMARK  status: ('A' for Active; 'I' for Inactive)
REMARK    1  A    between atoms: C_1  and  C_4
REMARK    2  A    between atoms: C_1  and  N_15
REMARK    3  A    between atoms: C_1  and  C_19
REMARK    4  A    between atoms: N_3  and  C_6
REMARK    5  A    between atoms: C_11  and  N_14
REMARK    6  A    between atoms: C_19  and  C_20
REMARK    7  A    between atoms: C_20  and  C_21
REMARK    8  A    between atoms: C_21  and  N_22
REMARK    9  A    between atoms: N_22  and  C_25
REMARK                            x       y       z     vdW  Elec       q    Type
REMARK                         _______ _______ _______ _____ _____    ______ ____
ROOT
ATOM      1  C   UNL     1     -36.796  21.251   1.355  0.00  0.00    +0.013 C 
ENDROOT
BRANCH   1   4
ATOM      2  O   UNL     1     -34.630  21.412   2.397  0.00  0.00    -0.277 OA
ATOM      3  N   UNL     1     -36.120  23.214   2.589  0.00  0.00    -0.286 N 
ATOM      4  C   UNL     1     -35.706  21.956   2.163  0.00  0.00    +0.206 C 
ATOM      5  H   UNL     1     -37.030  23.485   2.326  0.00  0.00    +0.155 HD
BRANCH   3   6
ATOM      6  C   UNL     1     -35.387  24.151   3.355  0.00  0.00    +0.050 C 
ATOM      7  C   UNL     1     -35.540  24.170   4.731  0.00  0.00    +0.016 C 
ATOM      8  C   UNL     1     -34.531  25.030   2.712  0.00  0.00    +0.016 C 
ATOM      9  C   UNL     1     -34.816  25.093   5.486  0.00  0.00    +0.025 C 
ATOM     10  C   UNL     1     -33.807  25.953   3.466  0.00  0.00    +0.025 C 
ATOM     11  C   UNL     1     -33.950  25.985   4.853  0.00  0.00    +0.143 C 
BRANCH  11  14
ATOM     12  O   UNL     1     -32.904  28.025   5.100  0.00  0.00    -0.126 OA
ATOM     13  O   UNL     1     -32.893  26.633   6.798  0.00  0.00    -0.126 OA
ATOM     14  N   UNL     1     -33.213  26.926   5.621  0.00  0.00    +0.058 N 
ENDBRANCH  11  14
ENDBRANCH   3   6
ENDBRANCH   1   4
BRANCH   1  15
ATOM     15  N   UNL     1     -37.353  20.231   2.248  0.00  0.00    +0.387 N 
ATOM     16  H   UNL     1     -36.631  19.546   2.473  0.00  0.00    -0.089 HD
ATOM     17  H   UNL     1     -38.133  19.765   1.786  0.00  0.00    -0.089 HD
ATOM     18  H   UNL     1     -37.680  20.675   3.107  0.00  0.00    -0.089 HD
ENDBRANCH   1  15
BRANCH   1  19
ATOM     19  C   UNL     1     -37.907  22.209   0.898  0.00  0.00    -0.011 C 
BRANCH  19  20
ATOM     20  C   UNL     1     -39.253  21.887   1.563  0.00  0.00    +0.025 C 
BRANCH  20  21
ATOM     21  C   UNL     1     -39.885  23.110   2.218  0.00  0.00    +0.129 C 
BRANCH  21  22
ATOM     22  N   UNL     1     -38.941  24.229   2.204  0.00  0.00    -0.240 NA
BRANCH  22  25
ATOM     23  N   UNL     1     -38.265  26.203   3.393  0.00  0.00    -0.370 N 
ATOM     24  N   UNL     1     -40.130  25.049   4.016  0.00  0.00    -0.370 N 
ATOM     25  C   UNL     1     -39.076  25.120   3.135  0.00  0.00    +0.189 C 
ATOM     26  H   UNL     1     -37.474  26.369   2.833  0.00  0.00    +0.159 HD
ATOM     27  H   UNL     1     -38.479  26.812   4.136  0.00  0.00    +0.159 HD
ATOM     28  H   UNL     1     -40.786  24.319   3.941  0.00  0.00    +0.159 HD
ATOM     29  H   UNL     1     -40.229  25.728   4.721  0.00  0.00    +0.159 HD
ENDBRANCH  22  25
ENDBRANCH  21  22
ENDBRANCH  20  21
ENDBRANCH  19  20
ENDBRANCH   1  19
TORSDOF 9
ENDMDL
MODEL 8
REMARK VINA RESULT:      -5.0      3.678      6.743
REMARK  Name = 195970
REMARK  9 active torsions:
REMARK  status: ('A' for Active; 'I' for Inactive)
REMARK    1  A    between atoms: C_1  and  C_4
REMARK    2  A    between atoms: C_1  and  N_15
REMARK    3  A    between atoms: C_1  and  C_19
REMARK    4  A    between atoms: N_3  and  C_6
REMARK    5  A    between atoms: C_11  and  N_14
REMARK    6  A    between atoms: C_19  and  C_20
REMARK    7  A    between atoms: C_20  and  C_21
REMARK    8  A    between atoms: C_21  and  N_22
REMARK    9  A    between atoms: N_22  and  C_25
REMARK                            x       y       z     vdW  Elec       q    Type
REMARK                         _______ _______ _______ _____ _____    ______ ____
ROOT
ATOM      1  C   UNL     1     -34.758  26.934   3.615  0.00  0.00    +0.013 C 
ENDROOT
BRANCH   1   4
ATOM      2  O   UNL     1     -33.331  26.031   5.334  0.00  0.00    -0.277 OA
ATOM      3  N   UNL     1     -32.877  28.172   4.490  0.00  0.00    -0.286 N 
ATOM      4  C   UNL     1     -33.571  26.969   4.579  0.00  0.00    +0.206 C 
ATOM      5  H   UNL     1     -33.223  28.827   3.841  0.00  0.00    +0.155 HD
BRANCH   3   6
ATOM      6  C   UNL     1     -31.732  28.565   5.223  0.00  0.00    +0.050 C 
ATOM      7  C   UNL     1     -30.480  28.427   4.648  0.00  0.00    +0.016 C 
ATOM      8  C   UNL     1     -31.888  29.079   6.499  0.00  0.00    +0.016 C 
ATOM      9  C   UNL     1     -29.351  28.814   5.370  0.00  0.00    +0.025 C 
ATOM     10  C   UNL     1     -30.760  29.466   7.222  0.00  0.00    +0.025 C 
ATOM     11  C   UNL     1     -29.491  29.333   6.657  0.00  0.00    +0.143 C 
BRANCH  11  14
ATOM     12  O   UNL     1     -28.304  29.498   8.627  0.00  0.00    -0.126 OA
ATOM     13  O   UNL     1     -27.398  30.292   6.791  0.00  0.00    -0.126 OA
ATOM     14  N   UNL     1     -28.342  29.727   7.394  0.00  0.00    +0.058 N 
ENDBRANCH  11  14
ENDBRANCH   3   6
ENDBRANCH   1   4
BRANCH   1  15
ATOM     15  N   UNL     1     -35.134  28.333   3.400  0.00  0.00    +0.387 N 
ATOM     16  H   UNL     1     -35.572  28.430   2.483  0.00  0.00    -0.089 HD
ATOM     17  H   UNL     1     -34.302  28.919   3.444  0.00  0.00    -0.089 HD
ATOM     18  H   UNL     1     -35.793  28.622   4.123  0.00  0.00    -0.089 HD
ENDBRANCH   1  15
BRANCH   1  19
ATOM     19  C   UNL     1     -34.410  26.271   2.273  0.00  0.00    -0.011 C 
BRANCH  19  20
ATOM     20  C   UNL     1     -34.435  24.739   2.366  0.00  0.00    +0.025 C 
BRANCH  20  21
ATOM     21  C   UNL     1     -35.753  24.212   2.922  0.00  0.00    +0.129 C 
BRANCH  21  22
ATOM     22  N   UNL     1     -35.521  22.974   3.668  0.00  0.00    -0.240 NA
BRANCH  22  25
ATOM     23  N   UNL     1     -35.902  21.929   5.796  0.00  0.00    -0.370 N 
ATOM     24  N   UNL     1     -35.975  24.197   5.583  0.00  0.00    -0.370 N 
ATOM     25  C   UNL     1     -35.782  22.999   4.937  0.00  0.00    +0.189 C 
ATOM     26  H   UNL     1     -35.786  21.012   5.459  0.00  0.00    +0.159 HD
ATOM     27  H   UNL     1     -36.103  22.082   6.748  0.00  0.00    +0.159 HD
ATOM     28  H   UNL     1     -35.916  25.042   5.081  0.00  0.00    +0.159 HD
ATOM     29  H   UNL     1     -36.172  24.211   6.547  0.00  0.00    +0.159 HD
ENDBRANCH  22  25
ENDBRANCH  21  22
ENDBRANCH  20  21
ENDBRANCH  19  20
ENDBRANCH   1  19
TORSDOF 9
ENDMDL
MODEL 9
REMARK VINA RESULT:      -5.0      6.018      8.519
REMARK  Name = 195970
REMARK  9 active torsions:
REMARK  status: ('A' for Active; 'I' for Inactive)
REMARK    1  A    between atoms: C_1  and  C_4
REMARK    2  A    between atoms: C_1  and  N_15
REMARK    3  A    between atoms: C_1  and  C_19
REMARK    4  A    between atoms: N_3  and  C_6
REMARK    5  A    between atoms: C_11  and  N_14
REMARK    6  A    between atoms: C_19  and  C_20
REMARK    7  A    between atoms: C_20  and  C_21
REMARK    8  A    between atoms: C_21  and  N_22
REMARK    9  A    between atoms: N_22  and  C_25
REMARK                            x       y       z     vdW  Elec       q    Type
REMARK                         _______ _______ _______ _____ _____    ______ ____
ROOT
ATOM      1  C   UNL     1     -35.954  21.007   1.980  0.00  0.00    +0.013 C 
ENDROOT
BRANCH   1   4
ATOM      2  O   UNL     1     -34.149  21.148   0.390  0.00  0.00    -0.277 OA
ATOM      3  N   UNL     1     -34.498  19.131   1.537  0.00  0.00    -0.286 N 
ATOM      4  C   UNL     1     -34.753  20.459   1.207  0.00  0.00    +0.206 C 
ATOM      5  H   UNL     1     -35.100  18.724   2.202  0.00  0.00    +0.155 HD
BRANCH   3   6
ATOM      6  C   UNL     1     -33.475  18.297   1.028  0.00  0.00    +0.050 C 
ATOM      7  C   UNL     1     -32.152  18.610   1.291  0.00  0.00    +0.016 C 
ATOM      8  C   UNL     1     -33.818  17.185   0.277  0.00  0.00    +0.016 C 
ATOM      9  C   UNL     1     -31.143  17.787   0.789  0.00  0.00    +0.025 C 
ATOM     10  C   UNL     1     -32.810  16.362  -0.225  0.00  0.00    +0.025 C 
ATOM     11  C   UNL     1     -31.472  16.664   0.031  0.00  0.00    +0.143 C 
BRANCH  11  14
ATOM     12  O   UNL     1     -29.967  14.933   0.260  0.00  0.00    -0.126 OA
ATOM     13  O   UNL     1     -30.048  16.000  -1.657  0.00  0.00    -0.126 OA
ATOM     14  N   UNL     1     -30.446  15.826  -0.480  0.00  0.00    +0.058 N 
ENDBRANCH  11  14
ENDBRANCH   3   6
ENDBRANCH   1   4
BRANCH   1  15
ATOM     15  N   UNL     1     -36.832  19.859   2.213  0.00  0.00    +0.387 N 
ATOM     16  H   UNL     1     -36.377  19.207   2.853  0.00  0.00    -0.089 HD
ATOM     17  H   UNL     1     -37.021  19.390   1.328  0.00  0.00    -0.089 HD
ATOM     18  H   UNL     1     -37.710  20.180   2.622  0.00  0.00    -0.089 HD
ENDBRANCH   1  15
BRANCH   1  19
ATOM     19  C   UNL     1     -35.555  21.643   3.321  0.00  0.00    -0.011 C 
BRANCH  19  20
ATOM     20  C   UNL     1     -35.420  23.169   3.214  0.00  0.00    +0.025 C 
BRANCH  20  21
ATOM     21  C   UNL     1     -36.578  23.903   3.881  0.00  0.00    +0.129 C 
BRANCH  21  22
ATOM     22  N   UNL     1     -36.214  24.271   5.250  0.00  0.00    -0.240 NA
BRANCH  22  25
ATOM     23  N   UNL     1     -34.438  25.786   5.815  0.00  0.00    -0.370 N 
ATOM     24  N   UNL     1     -36.493  26.571   5.215  0.00  0.00    -0.370 N 
ATOM     25  C   UNL     1     -35.717  25.456   5.425  0.00  0.00    +0.189 C 
ATOM     26  H   UNL     1     -33.781  25.078   5.997  0.00  0.00    +0.159 HD
ATOM     27  H   UNL     1     -34.183  26.732   5.911  0.00  0.00    +0.159 HD
ATOM     28  H   UNL     1     -37.431  26.473   4.932  0.00  0.00    +0.159 HD
ATOM     29  H   UNL     1     -36.111  27.469   5.349  0.00  0.00    +0.159 HD
ENDBRANCH  22  25
ENDBRANCH  21  22
ENDBRANCH  20  21
ENDBRANCH  19  20
ENDBRANCH   1  19
TORSDOF 9
ENDMDL
