MODEL 1
REMARK VINA RESULT:      -6.2      0.000      0.000
REMARK  Name = 191306
REMARK  3 active torsions:
REMARK  status: ('A' for Active; 'I' for Inactive)
REMARK    1  A    between atoms: N_3  and  S_12
REMARK    2  A    between atoms: S_12  and  C_13
REMARK    3  A    between atoms: C_14  and  N_21
REMARK                            x       y       z     vdW  Elec       q    Type
REMARK                         _______ _______ _______ _____ _____    ______ ____
ROOT
ATOM      1  S   UNL     1     -33.457  21.839  -0.128  0.00  0.00    -0.056 S 
ATOM      2  N   UNL     1     -34.468  20.152   1.541  0.00  0.00    -0.383 NA
ATOM      3  N   UNL     1     -35.753  22.100   1.180  0.00  0.00    -0.254 N 
ATOM      4  C   UNL     1     -32.567  20.394   0.179  0.00  0.00    +0.130 C 
ATOM      5  C   UNL     1     -33.268  19.612   1.102  0.00  0.00    +0.125 C 
ATOM      6  C   UNL     1     -34.665  21.314   0.963  0.00  0.00    +0.217 C 
ATOM      7  C   UNL     1     -31.336  19.983  -0.357  0.00  0.00    -0.008 C 
ATOM      8  C   UNL     1     -32.716  18.375   1.500  0.00  0.00    +0.029 C 
ATOM      9  C   UNL     1     -30.812  18.754   0.053  0.00  0.00    -0.003 C 
ATOM     10  C   UNL     1     -31.491  17.959   0.969  0.00  0.00    +0.002 C 
ATOM     11  H   UNL     1     -35.820  22.935   0.664  0.00  0.00    +0.163 HD
ENDROOT
BRANCH   3  12
ATOM     12  S   UNL     1     -36.980  21.755   2.252  0.00  0.00    -0.019 S 
BRANCH  12  13
ATOM     13  C   UNL     1     -36.298  22.500   3.724  0.00  0.00    +0.066 C 
ATOM     14  C   UNL     1     -36.475  23.852   4.031  0.00  0.00    +0.150 C 
ATOM     15  C   UNL     1     -35.563  21.686   4.590  0.00  0.00    +0.009 C 
ATOM     16  C   UNL     1     -35.921  24.385   5.195  0.00  0.00    +0.025 C 
ATOM     17  C   UNL     1     -35.008  22.220   5.754  0.00  0.00    +0.001 C 
ATOM     18  C   UNL     1     -35.187  23.569   6.056  0.00  0.00    +0.002 C 
BRANCH  14  21
ATOM     19  O   UNL     1     -38.396  25.004   3.489  0.00  0.00    -0.126 OA
ATOM     20  O   UNL     1     -36.662  25.181   2.156  0.00  0.00    -0.126 OA
ATOM     21  N   UNL     1     -37.215  24.723   3.181  0.00  0.00    +0.058 N 
ENDBRANCH  14  21
ENDBRANCH  12  13
ENDBRANCH   3  12
TORSDOF 3
ENDMDL
MODEL 2
REMARK VINA RESULT:      -6.0      4.481      6.923
REMARK  Name = 191306
REMARK  3 active torsions:
REMARK  status: ('A' for Active; 'I' for Inactive)
REMARK    1  A    between atoms: N_3  and  S_12
REMARK    2  A    between atoms: S_12  and  C_13
REMARK    3  A    between atoms: C_14  and  N_21
REMARK                            x       y       z     vdW  Elec       q    Type
REMARK                         _______ _______ _______ _____ _____    ______ ____
ROOT
ATOM      1  S   UNL     1     -32.225  27.352   3.010  0.00  0.00    -0.056 S 
ATOM      2  N   UNL     1     -33.441  27.440   5.283  0.00  0.00    -0.383 NA
ATOM      3  N   UNL     1     -34.569  26.247   3.585  0.00  0.00    -0.254 N 
ATOM      4  C   UNL     1     -31.452  28.208   4.292  0.00  0.00    +0.130 C 
ATOM      5  C   UNL     1     -32.257  28.146   5.434  0.00  0.00    +0.125 C 
ATOM      6  C   UNL     1     -33.527  26.982   4.055  0.00  0.00    +0.217 C 
ATOM      7  C   UNL     1     -30.223  28.888   4.288  0.00  0.00    -0.008 C 
ATOM      8  C   UNL     1     -31.813  28.786   6.611  0.00  0.00    +0.029 C 
ATOM      9  C   UNL     1     -29.807  29.512   5.466  0.00  0.00    -0.003 C 
ATOM     10  C   UNL     1     -30.590  29.464   6.614  0.00  0.00    +0.002 C 
ATOM     11  H   UNL     1     -34.514  25.920   2.658  0.00  0.00    +0.163 HD
ENDROOT
BRANCH   3  12
ATOM     12  S   UNL     1     -35.932  25.856   4.460  0.00  0.00    -0.019 S 
BRANCH  12  13
ATOM     13  C   UNL     1     -35.644  24.108   4.680  0.00  0.00    +0.066 C 
ATOM     14  C   UNL     1     -35.740  23.193   3.628  0.00  0.00    +0.150 C 
ATOM     15  C   UNL     1     -35.313  23.655   5.961  0.00  0.00    +0.009 C 
ATOM     16  C   UNL     1     -35.506  21.837   3.854  0.00  0.00    +0.025 C 
ATOM     17  C   UNL     1     -35.079  22.298   6.186  0.00  0.00    +0.001 C 
ATOM     18  C   UNL     1     -35.175  21.389   5.133  0.00  0.00    +0.002 C 
BRANCH  14  21
ATOM     19  O   UNL     1     -37.277  23.595   1.958  0.00  0.00    -0.126 OA
ATOM     20  O   UNL     1     -35.156  23.965   1.535  0.00  0.00    -0.126 OA
ATOM     21  N   UNL     1     -36.074  23.605   2.306  0.00  0.00    +0.058 N 
ENDBRANCH  14  21
ENDBRANCH  12  13
ENDBRANCH   3  12
TORSDOF 3
ENDMDL
MODEL 3
REMARK VINA RESULT:      -5.8      2.585      6.208
REMARK  Name = 191306
REMARK  3 active torsions:
REMARK  status: ('A' for Active; 'I' for Inactive)
REMARK    1  A    between atoms: N_3  and  S_12
REMARK    2  A    between atoms: S_12  and  C_13
REMARK    3  A    between atoms: C_14  and  N_21
REMARK                            x       y       z     vdW  Elec       q    Type
REMARK                         _______ _______ _______ _____ _____    ______ ____
ROOT
ATOM      1  S   UNL     1     -36.164  22.951   1.979  0.00  0.00    -0.056 S 
ATOM      2  N   UNL     1     -35.460  20.656   2.923  0.00  0.00    -0.383 NA
ATOM      3  N   UNL     1     -35.924  20.691   0.607  0.00  0.00    -0.254 N 
ATOM      4  C   UNL     1     -35.810  22.859   3.665  0.00  0.00    +0.130 C 
ATOM      5  C   UNL     1     -35.451  21.547   3.986  0.00  0.00    +0.125 C 
ATOM      6  C   UNL     1     -35.818  21.283   1.826  0.00  0.00    +0.217 C 
ATOM      7  C   UNL     1     -35.848  23.875   4.633  0.00  0.00    -0.008 C 
ATOM      8  C   UNL     1     -35.119  21.243   5.324  0.00  0.00    +0.029 C 
ATOM      9  C   UNL     1     -35.514  23.548   5.950  0.00  0.00    -0.003 C 
ATOM     10  C   UNL     1     -35.154  22.250   6.293  0.00  0.00    +0.002 C 
ATOM     11  H   UNL     1     -36.163  21.263  -0.157  0.00  0.00    +0.163 HD
ENDROOT
BRANCH   3  12
ATOM     12  S   UNL     1     -35.679  19.070   0.310  0.00  0.00    -0.019 S 
BRANCH  12  13
ATOM     13  C   UNL     1     -33.895  19.049   0.267  0.00  0.00    +0.066 C 
ATOM     14  C   UNL     1     -33.159  19.766  -0.681  0.00  0.00    +0.150 C 
ATOM     15  C   UNL     1     -33.225  18.281   1.224  0.00  0.00    +0.009 C 
ATOM     16  C   UNL     1     -31.765  19.715  -0.671  0.00  0.00    +0.025 C 
ATOM     17  C   UNL     1     -31.831  18.230   1.233  0.00  0.00    +0.001 C 
ATOM     18  C   UNL     1     -31.101  18.947   0.286  0.00  0.00    +0.002 C 
BRANCH  14  21
ATOM     19  O   UNL     1     -34.044  21.763  -1.418  0.00  0.00    -0.126 OA
ATOM     20  O   UNL     1     -34.080  20.039  -2.777  0.00  0.00    -0.126 OA
ATOM     21  N   UNL     1     -33.794  20.563  -1.676  0.00  0.00    +0.058 N 
ENDBRANCH  14  21
ENDBRANCH  12  13
ENDBRANCH   3  12
TORSDOF 3
ENDMDL
MODEL 4
REMARK VINA RESULT:      -5.8      5.021      7.054
REMARK  Name = 191306
REMARK  3 active torsions:
REMARK  status: ('A' for Active; 'I' for Inactive)
REMARK    1  A    between atoms: N_3  and  S_12
REMARK    2  A    between atoms: S_12  and  C_13
REMARK    3  A    between atoms: C_14  and  N_21
REMARK                            x       y       z     vdW  Elec       q    Type
REMARK                         _______ _______ _______ _____ _____    ______ ____
ROOT
ATOM      1  S   UNL     1     -35.340  25.668   5.694  0.00  0.00    -0.056 S 
ATOM      2  N   UNL     1     -35.511  25.067   3.192  0.00  0.00    -0.383 NA
ATOM      3  N   UNL     1     -35.531  27.379   3.673  0.00  0.00    -0.254 N 
ATOM      4  C   UNL     1     -35.329  23.995   5.276  0.00  0.00    +0.130 C 
ATOM      5  C   UNL     1     -35.429  23.869   3.887  0.00  0.00    +0.125 C 
ATOM      6  C   UNL     1     -35.473  26.071   4.037  0.00  0.00    +0.217 C 
ATOM      7  C   UNL     1     -35.239  22.874   6.117  0.00  0.00    -0.008 C 
ATOM      8  C   UNL     1     -35.439  22.576   3.323  0.00  0.00    +0.029 C 
ATOM      9  C   UNL     1     -35.251  21.605   5.533  0.00  0.00    -0.003 C 
ATOM     10  C   UNL     1     -35.349  21.455   4.154  0.00  0.00    +0.002 C 
ATOM     11  H   UNL     1     -35.456  28.054   4.385  0.00  0.00    +0.163 HD
ENDROOT
BRANCH   3  12
ATOM     12  S   UNL     1     -35.720  27.926   2.111  0.00  0.00    -0.019 S 
BRANCH  12  13
ATOM     13  C   UNL     1     -35.024  29.560   2.289  0.00  0.00    +0.066 C 
ATOM     14  C   UNL     1     -33.792  29.787   2.910  0.00  0.00    +0.150 C 
ATOM     15  C   UNL     1     -35.752  30.641   1.783  0.00  0.00    +0.009 C 
ATOM     16  C   UNL     1     -33.293  31.085   3.024  0.00  0.00    +0.025 C 
ATOM     17  C   UNL     1     -35.252  31.939   1.898  0.00  0.00    +0.001 C 
ATOM     18  C   UNL     1     -34.023  32.160   2.518  0.00  0.00    +0.002 C 
BRANCH  14  21
ATOM     19  O   UNL     1     -32.973  28.563   4.683  0.00  0.00    -0.126 OA
ATOM     20  O   UNL     1     -32.396  27.972   2.650  0.00  0.00    -0.126 OA
ATOM     21  N   UNL     1     -33.013  28.720   3.442  0.00  0.00    +0.058 N 
ENDBRANCH  14  21
ENDBRANCH  12  13
ENDBRANCH   3  12
TORSDOF 3
ENDMDL
MODEL 5
REMARK VINA RESULT:      -5.7      2.022      2.394
REMARK  Name = 191306
REMARK  3 active torsions:
REMARK  status: ('A' for Active; 'I' for Inactive)
REMARK    1  A    between atoms: N_3  and  S_12
REMARK    2  A    between atoms: S_12  and  C_13
REMARK    3  A    between atoms: C_14  and  N_21
REMARK                            x       y       z     vdW  Elec       q    Type
REMARK                         _______ _______ _______ _____ _____    ______ ____
ROOT
ATOM      1  S   UNL     1     -33.922  22.127  -0.139  0.00  0.00    -0.056 S 
ATOM      2  N   UNL     1     -34.774  20.681   1.820  0.00  0.00    -0.383 NA
ATOM      3  N   UNL     1     -35.888  22.744   1.535  0.00  0.00    -0.254 N 
ATOM      4  C   UNL     1     -33.150  20.607   0.121  0.00  0.00    +0.130 C 
ATOM      5  C   UNL     1     -33.744  19.974   1.217  0.00  0.00    +0.125 C 
ATOM      6  C   UNL     1     -34.951  21.821   1.192  0.00  0.00    +0.217 C 
ATOM      7  C   UNL     1     -32.094  20.018  -0.593  0.00  0.00    -0.008 C 
ATOM      8  C   UNL     1     -33.262  18.707   1.610  0.00  0.00    +0.029 C 
ATOM      9  C   UNL     1     -31.637  18.762  -0.184  0.00  0.00    -0.003 C 
ATOM     10  C   UNL     1     -32.212  18.114   0.903  0.00  0.00    +0.002 C 
ATOM     11  H   UNL     1     -35.962  23.548   0.973  0.00  0.00    +0.163 HD
ENDROOT
BRANCH   3  12
ATOM     12  S   UNL     1     -36.920  22.617   2.837  0.00  0.00    -0.019 S 
BRANCH  12  13
ATOM     13  C   UNL     1     -36.227  23.889   3.882  0.00  0.00    +0.066 C 
ATOM     14  C   UNL     1     -35.634  23.605   5.115  0.00  0.00    +0.150 C 
ATOM     15  C   UNL     1     -36.291  25.211   3.434  0.00  0.00    +0.009 C 
ATOM     16  C   UNL     1     -35.107  24.636   5.894  0.00  0.00    +0.025 C 
ATOM     17  C   UNL     1     -35.765  26.242   4.214  0.00  0.00    +0.001 C 
ATOM     18  C   UNL     1     -35.173  25.954   5.443  0.00  0.00    +0.002 C 
BRANCH  14  21
ATOM     19  O   UNL     1     -36.200  21.969   6.637  0.00  0.00    -0.126 OA
ATOM     20  O   UNL     1     -34.814  21.452   5.015  0.00  0.00    -0.126 OA
ATOM     21  N   UNL     1     -35.544  22.274   5.615  0.00  0.00    +0.058 N 
ENDBRANCH  14  21
ENDBRANCH  12  13
ENDBRANCH   3  12
TORSDOF 3
ENDMDL
MODEL 6
REMARK VINA RESULT:      -5.7      6.637      8.289
REMARK  Name = 191306
REMARK  3 active torsions:
REMARK  status: ('A' for Active; 'I' for Inactive)
REMARK    1  A    between atoms: N_3  and  S_12
REMARK    2  A    between atoms: S_12  and  C_13
REMARK    3  A    between atoms: C_14  and  N_21
REMARK                            x       y       z     vdW  Elec       q    Type
REMARK                         _______ _______ _______ _____ _____    ______ ____
ROOT
ATOM      1  S   UNL     1     -34.284  26.354   3.127  0.00  0.00    -0.056 S 
ATOM      2  N   UNL     1     -33.717  25.625   5.535  0.00  0.00    -0.383 NA
ATOM      3  N   UNL     1     -32.864  27.733   4.896  0.00  0.00    -0.254 N 
ATOM      4  C   UNL     1     -34.879  24.824   3.655  0.00  0.00    +0.130 C 
ATOM      5  C   UNL     1     -34.473  24.606   4.975  0.00  0.00    +0.125 C 
ATOM      6  C   UNL     1     -33.557  26.589   4.657  0.00  0.00    +0.217 C 
ATOM      7  C   UNL     1     -35.648  23.883   2.952  0.00  0.00    -0.008 C 
ATOM      8  C   UNL     1     -34.852  23.404   5.611  0.00  0.00    +0.029 C 
ATOM      9  C   UNL     1     -36.011  22.702   3.605  0.00  0.00    -0.003 C 
ATOM     10  C   UNL     1     -35.619  22.464   4.917  0.00  0.00    +0.002 C 
ATOM     11  H   UNL     1     -32.839  28.408   4.180  0.00  0.00    +0.163 HD
ENDROOT
BRANCH   3  12
ATOM     12  S   UNL     1     -32.055  28.080   6.310  0.00  0.00    -0.019 S 
BRANCH  12  13
ATOM     13  C   UNL     1     -31.063  29.454   5.748  0.00  0.00    +0.066 C 
ATOM     14  C   UNL     1     -29.667  29.440   5.794  0.00  0.00    +0.150 C 
ATOM     15  C   UNL     1     -31.727  30.578   5.247  0.00  0.00    +0.009 C 
ATOM     16  C   UNL     1     -28.939  30.541   5.342  0.00  0.00    +0.025 C 
ATOM     17  C   UNL     1     -30.998  31.679   4.795  0.00  0.00    +0.001 C 
ATOM     18  C   UNL     1     -29.605  31.660   4.843  0.00  0.00    +0.002 C 
BRANCH  14  21
ATOM     19  O   UNL     1     -28.446  28.388   7.443  0.00  0.00    -0.126 OA
ATOM     20  O   UNL     1     -28.833  27.302   5.575  0.00  0.00    -0.126 OA
ATOM     21  N   UNL     1     -28.945  28.319   6.296  0.00  0.00    +0.058 N 
ENDBRANCH  14  21
ENDBRANCH  12  13
ENDBRANCH   3  12
TORSDOF 3
ENDMDL
MODEL 7
REMARK VINA RESULT:      -5.6      1.930      2.593
REMARK  Name = 191306
REMARK  3 active torsions:
REMARK  status: ('A' for Active; 'I' for Inactive)
REMARK    1  A    between atoms: N_3  and  S_12
REMARK    2  A    between atoms: S_12  and  C_13
REMARK    3  A    between atoms: C_14  and  N_21
REMARK                            x       y       z     vdW  Elec       q    Type
REMARK                         _______ _______ _______ _____ _____    ______ ____
ROOT
ATOM      1  S   UNL     1     -33.687  21.785  -0.041  0.00  0.00    -0.056 S 
ATOM      2  N   UNL     1     -34.705  19.895   1.389  0.00  0.00    -0.383 NA
ATOM      3  N   UNL     1     -36.123  21.746   1.013  0.00  0.00    -0.254 N 
ATOM      4  C   UNL     1     -32.702  20.404   0.269  0.00  0.00    +0.130 C 
ATOM      5  C   UNL     1     -33.420  19.496   1.053  0.00  0.00    +0.125 C 
ATOM      6  C   UNL     1     -34.950  21.076   0.869  0.00  0.00    +0.217 C 
ATOM      7  C   UNL     1     -31.388  20.144  -0.151  0.00  0.00    -0.008 C 
ATOM      8  C   UNL     1     -32.799  18.286   1.428  0.00  0.00    +0.029 C 
ATOM      9  C   UNL     1     -30.796  18.937   0.234  0.00  0.00    -0.003 C 
ATOM     10  C   UNL     1     -31.491  18.019   1.013  0.00  0.00    +0.002 C 
ATOM     11  H   UNL     1     -36.215  22.609   0.549  0.00  0.00    +0.163 HD
ENDROOT
BRANCH   3  12
ATOM     12  S   UNL     1     -37.420  21.215   1.915  0.00  0.00    -0.019 S 
BRANCH  12  13
ATOM     13  C   UNL     1     -38.149  22.791   2.331  0.00  0.00    +0.066 C 
ATOM     14  C   UNL     1     -37.540  23.689   3.213  0.00  0.00    +0.150 C 
ATOM     15  C   UNL     1     -39.374  23.121   1.745  0.00  0.00    +0.009 C 
ATOM     16  C   UNL     1     -38.152  24.908   3.504  0.00  0.00    +0.025 C 
ATOM     17  C   UNL     1     -39.986  24.341   2.039  0.00  0.00    +0.001 C 
ATOM     18  C   UNL     1     -39.375  25.234   2.918  0.00  0.00    +0.002 C 
BRANCH  14  21
ATOM     19  O   UNL     1     -36.294  22.865   4.968  0.00  0.00    -0.126 OA
ATOM     20  O   UNL     1     -35.235  23.686   3.229  0.00  0.00    -0.126 OA
ATOM     21  N   UNL     1     -36.292  23.399   3.835  0.00  0.00    +0.058 N 
ENDBRANCH  14  21
ENDBRANCH  12  13
ENDBRANCH   3  12
TORSDOF 3
ENDMDL
MODEL 8
REMARK VINA RESULT:      -5.5      4.979      7.409
REMARK  Name = 191306
REMARK  3 active torsions:
REMARK  status: ('A' for Active; 'I' for Inactive)
REMARK    1  A    between atoms: N_3  and  S_12
REMARK    2  A    between atoms: S_12  and  C_13
REMARK    3  A    between atoms: C_14  and  N_21
REMARK                            x       y       z     vdW  Elec       q    Type
REMARK                         _______ _______ _______ _____ _____    ______ ____
ROOT
ATOM      1  S   UNL     1     -38.027  23.079   2.418  0.00  0.00    -0.056 S 
ATOM      2  N   UNL     1     -38.048  25.523   3.241  0.00  0.00    -0.383 NA
ATOM      3  N   UNL     1     -39.619  25.018   1.552  0.00  0.00    -0.254 N 
ATOM      4  C   UNL     1     -36.903  23.511   3.652  0.00  0.00    +0.130 C 
ATOM      5  C   UNL     1     -37.064  24.865   3.964  0.00  0.00    +0.125 C 
ATOM      6  C   UNL     1     -38.615  24.685   2.405  0.00  0.00    +0.217 C 
ATOM      7  C   UNL     1     -35.946  22.711   4.297  0.00  0.00    -0.008 C 
ATOM      8  C   UNL     1     -36.238  25.434   4.957  0.00  0.00    +0.029 C 
ATOM      9  C   UNL     1     -35.142  23.299   5.277  0.00  0.00    -0.003 C 
ATOM     10  C   UNL     1     -35.284  24.643   5.604  0.00  0.00    +0.002 C 
ATOM     11  H   UNL     1     -40.000  24.303   0.994  0.00  0.00    +0.163 HD
ENDROOT
BRANCH   3  12
ATOM     12  S   UNL     1     -40.256  26.548   1.381  0.00  0.00    -0.019 S 
BRANCH  12  13
ATOM     13  C   UNL     1     -41.982  26.177   1.653  0.00  0.00    +0.066 C 
ATOM     14  C   UNL     1     -42.778  26.915   2.533  0.00  0.00    +0.150 C 
ATOM     15  C   UNL     1     -42.539  25.104   0.952  0.00  0.00    +0.009 C 
ATOM     16  C   UNL     1     -44.121  26.584   2.709  0.00  0.00    +0.025 C 
ATOM     17  C   UNL     1     -43.883  24.772   1.129  0.00  0.00    +0.001 C 
ATOM     18  C   UNL     1     -44.673  25.512   2.007  0.00  0.00    +0.002 C 
BRANCH  14  21
ATOM     19  O   UNL     1     -41.694  27.796   4.366  0.00  0.00    -0.126 OA
ATOM     20  O   UNL     1     -42.378  29.171   2.798  0.00  0.00    -0.126 OA
ATOM     21  N   UNL     1     -42.257  28.017   3.270  0.00  0.00    +0.058 N 
ENDBRANCH  14  21
ENDBRANCH  12  13
ENDBRANCH   3  12
TORSDOF 3
ENDMDL
MODEL 9
REMARK VINA RESULT:      -5.4      3.626      6.864
REMARK  Name = 191306
REMARK  3 active torsions:
REMARK  status: ('A' for Active; 'I' for Inactive)
REMARK    1  A    between atoms: N_3  and  S_12
REMARK    2  A    between atoms: S_12  and  C_13
REMARK    3  A    between atoms: C_14  and  N_21
REMARK                            x       y       z     vdW  Elec       q    Type
REMARK                         _______ _______ _______ _____ _____    ______ ____
ROOT
ATOM      1  S   UNL     1     -35.087  23.027   1.600  0.00  0.00    -0.056 S 
ATOM      2  N   UNL     1     -35.569  20.835   2.870  0.00  0.00    -0.383 NA
ATOM      3  N   UNL     1     -35.550  20.649   0.515  0.00  0.00    -0.254 N 
ATOM      4  C   UNL     1     -35.114  23.096   3.323  0.00  0.00    +0.130 C 
ATOM      5  C   UNL     1     -35.389  21.821   3.828  0.00  0.00    +0.125 C 
ATOM      6  C   UNL     1     -35.434  21.354   1.671  0.00  0.00    +0.217 C 
ATOM      7  C   UNL     1     -34.907  24.199   4.168  0.00  0.00    -0.008 C 
ATOM      8  C   UNL     1     -35.458  21.647   5.227  0.00  0.00    +0.029 C 
ATOM      9  C   UNL     1     -34.981  23.998   5.549  0.00  0.00    -0.003 C 
ATOM     10  C   UNL     1     -35.253  22.740   6.073  0.00  0.00    +0.002 C 
ATOM     11  H   UNL     1     -35.391  21.130  -0.329  0.00  0.00    +0.163 HD
ENDROOT
BRANCH   3  12
ATOM     12  S   UNL     1     -35.941  19.033   0.419  0.00  0.00    -0.019 S 
BRANCH  12  13
ATOM     13  C   UNL     1     -34.297  18.337   0.389  0.00  0.00    +0.066 C 
ATOM     14  C   UNL     1     -34.045  17.027  -0.026  0.00  0.00    +0.150 C 
ATOM     15  C   UNL     1     -33.235  19.148   0.800  0.00  0.00    +0.009 C 
ATOM     16  C   UNL     1     -32.740  16.532  -0.031  0.00  0.00    +0.025 C 
ATOM     17  C   UNL     1     -31.931  18.652   0.796  0.00  0.00    +0.001 C 
ATOM     18  C   UNL     1     -31.684  17.344   0.381  0.00  0.00    +0.002 C 
BRANCH  14  21
ATOM     19  O   UNL     1     -35.547  15.320   0.355  0.00  0.00    -0.126 OA
ATOM     20  O   UNL     1     -35.525  16.271  -1.624  0.00  0.00    -0.126 OA
ATOM     21  N   UNL     1     -35.092  16.161  -0.454  0.00  0.00    +0.058 N 
ENDBRANCH  14  21
ENDBRANCH  12  13
ENDBRANCH   3  12
TORSDOF 3
ENDMDL
