MODEL 1
REMARK VINA RESULT:      -6.7      0.000      0.000
REMARK  Name = 192563
REMARK  9 active torsions:
REMARK  status: ('A' for Active; 'I' for Inactive)
REMARK    1  A    between atoms: C_1  and  C_9
REMARK    2  A    between atoms: C_2  and  C_21
REMARK    3  A    between atoms: C_5  and  O_7
REMARK    4  A    between atoms: C_9  and  O_10
REMARK    5  A    between atoms: C_9  and  CA_12
REMARK    6  A    between atoms: CA_12  and  N_13
REMARK    7  A    between atoms: CA_12  and  C_18
REMARK    8  A    between atoms: C_18  and  O_19
REMARK    9  A    between atoms: C_21  and  C_22
REMARK                            x       y       z     vdW  Elec       q    Type
REMARK                         _______ _______ _______ _____ _____    ______ ____
ROOT
ATOM      1  C   UNL     1     -35.932  24.286   4.306  0.00  0.00    +0.003 C 
ATOM      2  C   UNL     1     -35.584  21.953   3.849  0.00  0.00    +0.016 C 
ATOM      3  C   UNL     1     -35.905  23.226   3.400  0.00  0.00    -0.003 C 
ATOM      4  C   UNL     1     -35.638  24.062   5.651  0.00  0.00    +0.001 C 
ATOM      5  C   UNL     1     -35.289  21.717   5.184  0.00  0.00    +0.130 C 
ATOM      6  C   UNL     1     -35.316  22.778   6.090  0.00  0.00    +0.036 C 
ENDROOT
BRANCH   5   7
ATOM      7  O   UNL     1     -34.974  20.469   5.630  0.00  0.00    -0.506 OA
ATOM      8  H   UNL     1     -34.094  20.270   5.884  0.00  0.00    +0.292 HD
ENDBRANCH   5   7
BRANCH   1   9
ATOM      9  C   UNL     1     -36.276  25.660   3.838  0.00  0.00    +0.123 C 
BRANCH   9  10
ATOM     10  O   UNL     1     -36.734  26.520   4.898  0.00  0.00    -0.382 OA
ATOM     11  H   UNL     1     -37.439  26.076   5.393  0.00  0.00    +0.211 HD
ENDBRANCH   9  10
BRANCH   9  12
ATOM     12  CA  UNL     1     -37.330  25.693   2.701  0.00  0.00    +0.067 C 
BRANCH  12  13
ATOM     13  N   UNL     1     -37.352  27.004   2.044  0.00  0.00    +0.391 N 
ATOM     14  H1  UNL     1     -37.904  26.946   1.189  0.00  0.00    -0.088 HD
ATOM     15  H2  UNL     1     -36.399  27.286   1.817  0.00  0.00    -0.088 HD
ATOM     16  H3  UNL     1     -37.769  27.691   2.672  0.00  0.00    -0.088 HD
ENDBRANCH  12  13
BRANCH  12  18
ATOM     17  OXT UNL     1     -39.224  24.330   3.417  0.00  0.00    -0.253 OA
ATOM     18  C   UNL     1     -38.740  25.436   3.213  0.00  0.00    +0.296 C 
BRANCH  18  19
ATOM     19  O   UNL     1     -39.420  26.588   3.447  0.00  0.00    -0.482 OA
ATOM     20  H   UNL     1     -39.083  27.218   4.053  0.00  0.00    +0.295 HD
ENDBRANCH  18  19
ENDBRANCH  12  18
ENDBRANCH   9  12
ENDBRANCH   1   9
BRANCH   2  21
ATOM     21  C   UNL     1     -35.557  20.818   2.855  0.00  0.00    +0.055 C 
BRANCH  21  22
ATOM     22  C   UNL     1     -34.778  21.162   1.617  0.00  0.00    -0.030 C 
ATOM     23  C   UNL     1     -33.868  20.405   0.975  0.00  0.00    -0.048 C 
ATOM     24  C   UNL     1     -33.121  20.809  -0.264  0.00  0.00    +0.026 C 
ATOM     25  C   UNL     1     -33.516  19.035   1.491  0.00  0.00    +0.026 C 
ENDBRANCH  21  22
ENDBRANCH   2  21
TORSDOF 9
ENDMDL
MODEL 2
REMARK VINA RESULT:      -6.4      1.527      1.701
REMARK  Name = 192563
REMARK  9 active torsions:
REMARK  status: ('A' for Active; 'I' for Inactive)
REMARK    1  A    between atoms: C_1  and  C_9
REMARK    2  A    between atoms: C_2  and  C_21
REMARK    3  A    between atoms: C_5  and  O_7
REMARK    4  A    between atoms: C_9  and  O_10
REMARK    5  A    between atoms: C_9  and  CA_12
REMARK    6  A    between atoms: CA_12  and  N_13
REMARK    7  A    between atoms: CA_12  and  C_18
REMARK    8  A    between atoms: C_18  and  O_19
REMARK    9  A    between atoms: C_21  and  C_22
REMARK                            x       y       z     vdW  Elec       q    Type
REMARK                         _______ _______ _______ _____ _____    ______ ____
ROOT
ATOM      1  C   UNL     1     -36.093  24.531   4.490  0.00  0.00    +0.003 C 
ATOM      2  C   UNL     1     -35.804  22.262   3.752  0.00  0.00    +0.016 C 
ATOM      3  C   UNL     1     -36.170  23.573   3.479  0.00  0.00    -0.003 C 
ATOM      4  C   UNL     1     -35.650  24.169   5.762  0.00  0.00    +0.001 C 
ATOM      5  C   UNL     1     -35.362  21.890   5.014  0.00  0.00    +0.130 C 
ATOM      6  C   UNL     1     -35.284  22.849   6.024  0.00  0.00    +0.036 C 
ENDROOT
BRANCH   5   7
ATOM      7  O   UNL     1     -35.003  20.605   5.286  0.00  0.00    -0.506 OA
ATOM      8  H   UNL     1     -34.992  20.299   6.172  0.00  0.00    +0.292 HD
ENDBRANCH   5   7
BRANCH   1   9
ATOM      9  C   UNL     1     -36.483  25.943   4.212  0.00  0.00    +0.123 C 
BRANCH   9  10
ATOM     10  O   UNL     1     -37.862  26.082   3.821  0.00  0.00    -0.382 OA
ATOM     11  H   UNL     1     -37.934  26.005   2.857  0.00  0.00    +0.211 HD
ENDBRANCH   9  10
BRANCH   9  12
ATOM     12  CA  UNL     1     -35.606  26.640   3.140  0.00  0.00    +0.067 C 
BRANCH  12  13
ATOM     13  N   UNL     1     -35.068  27.908   3.645  0.00  0.00    +0.391 N 
ATOM     14  H1  UNL     1     -35.093  28.607   2.903  0.00  0.00    -0.088 HD
ATOM     15  H2  UNL     1     -34.106  27.770   3.952  0.00  0.00    -0.088 HD
ATOM     16  H3  UNL     1     -35.634  28.227   4.431  0.00  0.00    -0.088 HD
ENDBRANCH  12  13
BRANCH  12  18
ATOM     17  OXT UNL     1     -36.650  26.172   0.985  0.00  0.00    -0.253 OA
ATOM     18  C   UNL     1     -36.388  26.968   1.877  0.00  0.00    +0.296 C 
BRANCH  18  19
ATOM     19  O   UNL     1     -36.796  28.263   1.847  0.00  0.00    -0.482 OA
ATOM     20  H   UNL     1     -36.218  28.944   2.129  0.00  0.00    +0.295 HD
ENDBRANCH  18  19
ENDBRANCH  12  18
ENDBRANCH   9  12
ENDBRANCH   1   9
BRANCH   2  21
ATOM     21  C   UNL     1     -35.892  21.239   2.647  0.00  0.00    +0.055 C 
BRANCH  21  22
ATOM     22  C   UNL     1     -34.932  21.524   1.528  0.00  0.00    -0.030 C 
ATOM     23  C   UNL     1     -34.005  20.699   1.003  0.00  0.00    -0.048 C 
ATOM     24  C   UNL     1     -33.071  21.047  -0.121  0.00  0.00    +0.026 C 
ATOM     25  C   UNL     1     -33.831  19.305   1.545  0.00  0.00    +0.026 C 
ENDBRANCH  21  22
ENDBRANCH   2  21
TORSDOF 9
ENDMDL
MODEL 3
REMARK VINA RESULT:      -6.0      1.815      2.603
REMARK  Name = 192563
REMARK  9 active torsions:
REMARK  status: ('A' for Active; 'I' for Inactive)
REMARK    1  A    between atoms: C_1  and  C_9
REMARK    2  A    between atoms: C_2  and  C_21
REMARK    3  A    between atoms: C_5  and  O_7
REMARK    4  A    between atoms: C_9  and  O_10
REMARK    5  A    between atoms: C_9  and  CA_12
REMARK    6  A    between atoms: CA_12  and  N_13
REMARK    7  A    between atoms: CA_12  and  C_18
REMARK    8  A    between atoms: C_18  and  O_19
REMARK    9  A    between atoms: C_21  and  C_22
REMARK                            x       y       z     vdW  Elec       q    Type
REMARK                         _______ _______ _______ _____ _____    ______ ____
ROOT
ATOM      1  C   UNL     1     -35.847  24.404   4.177  0.00  0.00    +0.003 C 
ATOM      2  C   UNL     1     -35.590  22.049   3.773  0.00  0.00    +0.016 C 
ATOM      3  C   UNL     1     -35.841  23.327   3.291  0.00  0.00    -0.003 C 
ATOM      4  C   UNL     1     -35.602  24.194   5.533  0.00  0.00    +0.001 C 
ATOM      5  C   UNL     1     -35.345  21.827   5.120  0.00  0.00    +0.130 C 
ATOM      6  C   UNL     1     -35.350  22.906   6.005  0.00  0.00    +0.036 C 
ENDROOT
BRANCH   5   7
ATOM      7  O   UNL     1     -35.100  20.575   5.597  0.00  0.00    -0.506 OA
ATOM      8  H   UNL     1     -34.435  20.442   6.245  0.00  0.00    +0.292 HD
ENDBRANCH   5   7
BRANCH   1   9
ATOM      9  C   UNL     1     -36.115  25.782   3.674  0.00  0.00    +0.123 C 
BRANCH   9  10
ATOM     10  O   UNL     1     -36.502  25.813   2.287  0.00  0.00    -0.382 OA
ATOM     11  H   UNL     1     -37.390  26.192   2.207  0.00  0.00    +0.211 HD
ENDBRANCH   9  10
BRANCH   9  12
ATOM     12  CA  UNL     1     -34.930  26.764   3.865  0.00  0.00    +0.067 C 
BRANCH  12  13
ATOM     13  N   UNL     1     -35.289  28.113   3.412  0.00  0.00    +0.391 N 
ATOM     14  H1  UNL     1     -35.417  28.720   4.222  0.00  0.00    -0.088 HD
ATOM     15  H2  UNL     1     -36.156  28.072   2.877  0.00  0.00    -0.088 HD
ATOM     16  H3  UNL     1     -34.542  28.483   2.824  0.00  0.00    -0.088 HD
ENDBRANCH  12  13
BRANCH  12  18
ATOM     17  OXT UNL     1     -32.661  25.924   3.557  0.00  0.00    -0.253 OA
ATOM     18  C   UNL     1     -33.701  26.349   3.071  0.00  0.00    +0.296 C 
BRANCH  18  19
ATOM     19  O   UNL     1     -33.884  26.482   1.732  0.00  0.00    -0.482 OA
ATOM     20  H   UNL     1     -34.091  27.319   1.367  0.00  0.00    +0.295 HD
ENDBRANCH  18  19
ENDBRANCH  12  18
ENDBRANCH   9  12
ENDBRANCH   1   9
BRANCH   2  21
ATOM     21  C   UNL     1     -35.586  20.895   2.801  0.00  0.00    +0.055 C 
BRANCH  21  22
ATOM     22  C   UNL     1     -34.789  21.195   1.563  0.00  0.00    -0.030 C 
ATOM     23  C   UNL     1     -33.884  20.408   0.950  0.00  0.00    -0.048 C 
ATOM     24  C   UNL     1     -33.118  20.769  -0.291  0.00  0.00    +0.026 C 
ATOM     25  C   UNL     1     -33.558  19.047   1.506  0.00  0.00    +0.026 C 
ENDBRANCH  21  22
ENDBRANCH   2  21
TORSDOF 9
ENDMDL
MODEL 4
REMARK VINA RESULT:      -5.8      1.504      1.633
REMARK  Name = 192563
REMARK  9 active torsions:
REMARK  status: ('A' for Active; 'I' for Inactive)
REMARK    1  A    between atoms: C_1  and  C_9
REMARK    2  A    between atoms: C_2  and  C_21
REMARK    3  A    between atoms: C_5  and  O_7
REMARK    4  A    between atoms: C_9  and  O_10
REMARK    5  A    between atoms: C_9  and  CA_12
REMARK    6  A    between atoms: CA_12  and  N_13
REMARK    7  A    between atoms: CA_12  and  C_18
REMARK    8  A    between atoms: C_18  and  O_19
REMARK    9  A    between atoms: C_21  and  C_22
REMARK                            x       y       z     vdW  Elec       q    Type
REMARK                         _______ _______ _______ _____ _____    ______ ____
ROOT
ATOM      1  C   UNL     1     -34.811  24.298   4.216  0.00  0.00    +0.003 C 
ATOM      2  C   UNL     1     -35.305  21.973   3.858  0.00  0.00    +0.016 C 
ATOM      3  C   UNL     1     -35.049  23.236   3.343  0.00  0.00    -0.003 C 
ATOM      4  C   UNL     1     -34.829  24.085   5.594  0.00  0.00    +0.001 C 
ATOM      5  C   UNL     1     -35.326  21.749   5.227  0.00  0.00    +0.130 C 
ATOM      6  C   UNL     1     -35.086  22.811   6.100  0.00  0.00    +0.036 C 
ENDROOT
BRANCH   5   7
ATOM      7  O   UNL     1     -35.577  20.511   5.737  0.00  0.00    -0.506 OA
ATOM      8  H   UNL     1     -36.454  20.183   5.761  0.00  0.00    +0.292 HD
ENDBRANCH   5   7
BRANCH   1   9
ATOM      9  C   UNL     1     -34.535  25.661   3.677  0.00  0.00    +0.123 C 
BRANCH   9  10
ATOM     10  O   UNL     1     -33.409  26.300   4.305  0.00  0.00    -0.382 OA
ATOM     11  H   UNL     1     -32.599  26.080   3.819  0.00  0.00    +0.211 HD
ENDBRANCH   9  10
BRANCH   9  12
ATOM     12  CA  UNL     1     -35.745  26.627   3.758  0.00  0.00    +0.067 C 
BRANCH  12  13
ATOM     13  N   UNL     1     -36.287  26.676   5.121  0.00  0.00    +0.391 N 
ATOM     14  H1  UNL     1     -36.544  27.635   5.350  0.00  0.00    -0.088 HD
ATOM     15  H2  UNL     1     -35.580  26.346   5.779  0.00  0.00    -0.088 HD
ATOM     16  H3  UNL     1     -37.112  26.079   5.180  0.00  0.00    -0.088 HD
ENDBRANCH  12  13
BRANCH  12  18
ATOM     17  OXT UNL     1     -36.767  25.871   1.676  0.00  0.00    -0.253 OA
ATOM     18  C   UNL     1     -36.888  26.200   2.849  0.00  0.00    +0.296 C 
BRANCH  18  19
ATOM     19  O   UNL     1     -38.084  26.200   3.491  0.00  0.00    -0.482 OA
ATOM     20  H   UNL     1     -38.122  26.357   4.414  0.00  0.00    +0.295 HD
ENDBRANCH  18  19
ENDBRANCH  12  18
ENDBRANCH   9  12
ENDBRANCH   1   9
BRANCH   2  21
ATOM     21  C   UNL     1     -35.559  20.836   2.900  0.00  0.00    +0.055 C 
BRANCH  21  22
ATOM     22  C   UNL     1     -34.920  21.066   1.560  0.00  0.00    -0.030 C 
ATOM     23  C   UNL     1     -34.017  20.290   0.930  0.00  0.00    -0.048 C 
ATOM     24  C   UNL     1     -33.413  20.577  -0.415  0.00  0.00    +0.026 C 
ATOM     25  C   UNL     1     -33.521  19.022   1.573  0.00  0.00    +0.026 C 
ENDBRANCH  21  22
ENDBRANCH   2  21
TORSDOF 9
ENDMDL
MODEL 5
REMARK VINA RESULT:      -5.8      2.290      3.318
REMARK  Name = 192563
REMARK  9 active torsions:
REMARK  status: ('A' for Active; 'I' for Inactive)
REMARK    1  A    between atoms: C_1  and  C_9
REMARK    2  A    between atoms: C_2  and  C_21
REMARK    3  A    between atoms: C_5  and  O_7
REMARK    4  A    between atoms: C_9  and  O_10
REMARK    5  A    between atoms: C_9  and  CA_12
REMARK    6  A    between atoms: CA_12  and  N_13
REMARK    7  A    between atoms: CA_12  and  C_18
REMARK    8  A    between atoms: C_18  and  O_19
REMARK    9  A    between atoms: C_21  and  C_22
REMARK                            x       y       z     vdW  Elec       q    Type
REMARK                         _______ _______ _______ _____ _____    ______ ____
ROOT
ATOM      1  C   UNL     1     -36.266  22.771   2.463  0.00  0.00    +0.003 C 
ATOM      2  C   UNL     1     -35.427  20.591   1.895  0.00  0.00    +0.016 C 
ATOM      3  C   UNL     1     -35.199  21.878   2.363  0.00  0.00    -0.003 C 
ATOM      4  C   UNL     1     -37.549  22.368   2.094  0.00  0.00    +0.001 C 
ATOM      5  C   UNL     1     -36.699  20.179   1.526  0.00  0.00    +0.130 C 
ATOM      6  C   UNL     1     -37.766  21.072   1.626  0.00  0.00    +0.036 C 
ENDROOT
BRANCH   5   7
ATOM      7  O   UNL     1     -36.927  18.918   1.065  0.00  0.00    -0.506 OA
ATOM      8  H   UNL     1     -36.606  18.661   0.223  0.00  0.00    +0.292 HD
ENDBRANCH   5   7
BRANCH   1   9
ATOM      9  C   UNL     1     -36.035  24.157   2.964  0.00  0.00    +0.123 C 
BRANCH   9  10
ATOM     10  O   UNL     1     -34.642  24.513   3.021  0.00  0.00    -0.382 OA
ATOM     11  H   UNL     1     -34.522  25.409   2.671  0.00  0.00    +0.211 HD
ENDBRANCH   9  10
BRANCH   9  12
ATOM     12  CA  UNL     1     -36.662  24.436   4.354  0.00  0.00    +0.067 C 
BRANCH  12  13
ATOM     13  N   UNL     1     -37.988  25.049   4.219  0.00  0.00    +0.391 N 
ATOM     14  H1  UNL     1     -38.174  25.242   3.235  0.00  0.00    -0.088 HD
ATOM     15  H2  UNL     1     -38.015  25.920   4.748  0.00  0.00    -0.088 HD
ATOM     16  H3  UNL     1     -38.696  24.409   4.580  0.00  0.00    -0.088 HD
ENDBRANCH  12  13
BRANCH  12  18
ATOM     17  OXT UNL     1     -34.733  25.127   5.679  0.00  0.00    -0.253 OA
ATOM     18  C   UNL     1     -35.821  25.394   5.185  0.00  0.00    +0.296 C 
BRANCH  18  19
ATOM     19  O   UNL     1     -36.403  26.614   5.310  0.00  0.00    -0.482 OA
ATOM     20  H   UNL     1     -37.058  26.757   5.965  0.00  0.00    +0.295 HD
ENDBRANCH  18  19
ENDBRANCH  12  18
ENDBRANCH   9  12
ENDBRANCH   1   9
BRANCH   2  21
ATOM     21  C   UNL     1     -34.262  19.639   1.795  0.00  0.00    +0.055 C 
BRANCH  21  22
ATOM     22  C   UNL     1     -33.197  20.134   0.858  0.00  0.00    -0.030 C 
ATOM     23  C   UNL     1     -32.048  19.522   0.512  0.00  0.00    -0.048 C 
ATOM     24  C   UNL     1     -31.022  20.074  -0.435  0.00  0.00    +0.026 C 
ATOM     25  C   UNL     1     -31.697  18.178   1.092  0.00  0.00    +0.026 C 
ENDBRANCH  21  22
ENDBRANCH   2  21
TORSDOF 9
ENDMDL
MODEL 6
REMARK VINA RESULT:      -5.8      2.697      3.747
REMARK  Name = 192563
REMARK  9 active torsions:
REMARK  status: ('A' for Active; 'I' for Inactive)
REMARK    1  A    between atoms: C_1  and  C_9
REMARK    2  A    between atoms: C_2  and  C_21
REMARK    3  A    between atoms: C_5  and  O_7
REMARK    4  A    between atoms: C_9  and  O_10
REMARK    5  A    between atoms: C_9  and  CA_12
REMARK    6  A    between atoms: CA_12  and  N_13
REMARK    7  A    between atoms: CA_12  and  C_18
REMARK    8  A    between atoms: C_18  and  O_19
REMARK    9  A    between atoms: C_21  and  C_22
REMARK                            x       y       z     vdW  Elec       q    Type
REMARK                         _______ _______ _______ _____ _____    ______ ____
ROOT
ATOM      1  C   UNL     1     -35.171  24.401   5.072  0.00  0.00    +0.003 C 
ATOM      2  C   UNL     1     -35.579  22.926   3.219  0.00  0.00    +0.016 C 
ATOM      3  C   UNL     1     -35.393  24.211   3.708  0.00  0.00    -0.003 C 
ATOM      4  C   UNL     1     -35.136  23.304   5.932  0.00  0.00    +0.001 C 
ATOM      5  C   UNL     1     -35.547  21.826   4.065  0.00  0.00    +0.130 C 
ATOM      6  C   UNL     1     -35.323  22.016   5.429  0.00  0.00    +0.036 C 
ENDROOT
BRANCH   5   7
ATOM      7  O   UNL     1     -35.729  20.563   3.589  0.00  0.00    -0.506 OA
ATOM      8  H   UNL     1     -34.996  19.985   3.499  0.00  0.00    +0.292 HD
ENDBRANCH   5   7
BRANCH   1   9
ATOM      9  C   UNL     1     -34.970  25.776   5.612  0.00  0.00    +0.123 C 
BRANCH   9  10
ATOM     10  O   UNL     1     -35.802  26.762   4.972  0.00  0.00    -0.382 OA
ATOM     11  H   UNL     1     -35.573  27.643   5.303  0.00  0.00    +0.211 HD
ENDBRANCH   9  10
BRANCH   9  12
ATOM     12  CA  UNL     1     -33.502  26.270   5.548  0.00  0.00    +0.067 C 
BRANCH  12  13
ATOM     13  N   UNL     1     -33.170  27.083   6.723  0.00  0.00    +0.391 N 
ATOM     14  H1  UNL     1     -34.004  27.574   7.043  0.00  0.00    -0.088 HD
ATOM     15  H2  UNL     1     -32.449  27.760   6.475  0.00  0.00    -0.088 HD
ATOM     16  H3  UNL     1     -32.826  26.477   7.468  0.00  0.00    -0.088 HD
ENDBRANCH  12  13
BRANCH  12  18
ATOM     17  OXT UNL     1     -33.615  28.296   4.192  0.00  0.00    -0.253 OA
ATOM     18  C   UNL     1     -33.237  27.139   4.327  0.00  0.00    +0.296 C 
BRANCH  18  19
ATOM     19  O   UNL     1     -32.504  26.493   3.384  0.00  0.00    -0.482 OA
ATOM     20  H   UNL     1     -31.751  25.995   3.635  0.00  0.00    +0.295 HD
ENDBRANCH  18  19
ENDBRANCH  12  18
ENDBRANCH   9  12
ENDBRANCH   1   9
BRANCH   2  21
ATOM     21  C   UNL     1     -35.817  22.739   1.741  0.00  0.00    +0.055 C 
BRANCH  21  22
ATOM     22  C   UNL     1     -34.546  22.463   0.989  0.00  0.00    -0.030 C 
ATOM     23  C   UNL     1     -33.778  23.339   0.314  0.00  0.00    -0.048 C 
ATOM     24  C   UNL     1     -32.513  22.997  -0.421  0.00  0.00    +0.026 C 
ATOM     25  C   UNL     1     -34.163  24.793   0.241  0.00  0.00    +0.026 C 
ENDBRANCH  21  22
ENDBRANCH   2  21
TORSDOF 9
ENDMDL
MODEL 7
REMARK VINA RESULT:      -5.7      2.869      4.526
REMARK  Name = 192563
REMARK  9 active torsions:
REMARK  status: ('A' for Active; 'I' for Inactive)
REMARK    1  A    between atoms: C_1  and  C_9
REMARK    2  A    between atoms: C_2  and  C_21
REMARK    3  A    between atoms: C_5  and  O_7
REMARK    4  A    between atoms: C_9  and  O_10
REMARK    5  A    between atoms: C_9  and  CA_12
REMARK    6  A    between atoms: CA_12  and  N_13
REMARK    7  A    between atoms: CA_12  and  C_18
REMARK    8  A    between atoms: C_18  and  O_19
REMARK    9  A    between atoms: C_21  and  C_22
REMARK                            x       y       z     vdW  Elec       q    Type
REMARK                         _______ _______ _______ _____ _____    ______ ____
ROOT
ATOM      1  C   UNL     1     -35.323  24.406   5.090  0.00  0.00    +0.003 C 
ATOM      2  C   UNL     1     -36.118  22.919   3.377  0.00  0.00    +0.016 C 
ATOM      3  C   UNL     1     -35.912  24.212   3.840  0.00  0.00    -0.003 C 
ATOM      4  C   UNL     1     -34.947  23.308   5.862  0.00  0.00    +0.001 C 
ATOM      5  C   UNL     1     -35.747  21.819   4.136  0.00  0.00    +0.130 C 
ATOM      6  C   UNL     1     -35.158  22.014   5.385  0.00  0.00    +0.036 C 
ENDROOT
BRANCH   5   7
ATOM      7  O   UNL     1     -35.948  20.549   3.685  0.00  0.00    -0.506 OA
ATOM      8  H   UNL     1     -36.358  20.406   2.854  0.00  0.00    +0.292 HD
ENDBRANCH   5   7
BRANCH   1   9
ATOM      9  C   UNL     1     -35.096  25.789   5.601  0.00  0.00    +0.123 C 
BRANCH   9  10
ATOM     10  O   UNL     1     -35.940  26.770   4.970  0.00  0.00    -0.382 OA
ATOM     11  H   UNL     1     -35.396  27.371   4.438  0.00  0.00    +0.211 HD
ENDBRANCH   9  10
BRANCH   9  12
ATOM     12  CA  UNL     1     -33.627  26.270   5.484  0.00  0.00    +0.067 C 
BRANCH  12  13
ATOM     13  N   UNL     1     -33.203  26.963   6.706  0.00  0.00    +0.391 N 
ATOM     14  H1  UNL     1     -32.186  26.962   6.761  0.00  0.00    -0.088 HD
ATOM     15  H2  UNL     1     -33.589  26.483   7.519  0.00  0.00    -0.088 HD
ATOM     16  H3  UNL     1     -33.543  27.924   6.686  0.00  0.00    -0.088 HD
ENDBRANCH  12  13
BRANCH  12  18
ATOM     17  OXT UNL     1     -33.312  28.461   4.458  0.00  0.00    -0.253 OA
ATOM     18  C   UNL     1     -33.428  27.248   4.336  0.00  0.00    +0.296 C 
BRANCH  18  19
ATOM     19  O   UNL     1     -33.371  26.623   3.132  0.00  0.00    -0.482 OA
ATOM     20  H   UNL     1     -32.573  26.622   2.641  0.00  0.00    +0.295 HD
ENDBRANCH  18  19
ENDBRANCH  12  18
ENDBRANCH   9  12
ENDBRANCH   1   9
BRANCH   2  21
ATOM     21  C   UNL     1     -36.754  22.727   2.022  0.00  0.00    +0.055 C 
BRANCH  21  22
ATOM     22  C   UNL     1     -38.244  22.917   2.060  0.00  0.00    -0.030 C 
ATOM     23  C   UNL     1     -38.954  23.977   1.626  0.00  0.00    -0.048 C 
ATOM     24  C   UNL     1     -40.450  24.105   1.693  0.00  0.00    +0.026 C 
ATOM     25  C   UNL     1     -38.257  25.167   1.023  0.00  0.00    +0.026 C 
ENDBRANCH  21  22
ENDBRANCH   2  21
TORSDOF 9
ENDMDL
MODEL 8
REMARK VINA RESULT:      -5.6      4.435      8.092
REMARK  Name = 192563
REMARK  9 active torsions:
REMARK  status: ('A' for Active; 'I' for Inactive)
REMARK    1  A    between atoms: C_1  and  C_9
REMARK    2  A    between atoms: C_2  and  C_21
REMARK    3  A    between atoms: C_5  and  O_7
REMARK    4  A    between atoms: C_9  and  O_10
REMARK    5  A    between atoms: C_9  and  CA_12
REMARK    6  A    between atoms: CA_12  and  N_13
REMARK    7  A    between atoms: CA_12  and  C_18
REMARK    8  A    between atoms: C_18  and  O_19
REMARK    9  A    between atoms: C_21  and  C_22
REMARK                            x       y       z     vdW  Elec       q    Type
REMARK                         _______ _______ _______ _____ _____    ______ ____
ROOT
ATOM      1  C   UNL     1     -33.336  19.358   1.022  0.00  0.00    +0.003 C 
ATOM      2  C   UNL     1     -34.661  21.292   1.553  0.00  0.00    +0.016 C 
ATOM      3  C   UNL     1     -34.365  19.951   1.754  0.00  0.00    -0.003 C 
ATOM      4  C   UNL     1     -32.614  20.113   0.098  0.00  0.00    +0.001 C 
ATOM      5  C   UNL     1     -33.950  22.052   0.636  0.00  0.00    +0.130 C 
ATOM      6  C   UNL     1     -32.920  21.460  -0.095  0.00  0.00    +0.036 C 
ENDROOT
BRANCH   5   7
ATOM      7  O   UNL     1     -34.237  23.368   0.435  0.00  0.00    -0.506 OA
ATOM      8  H   UNL     1     -33.585  24.021   0.598  0.00  0.00    +0.292 HD
ENDBRANCH   5   7
BRANCH   1   9
ATOM      9  C   UNL     1     -33.007  17.918   1.228  0.00  0.00    +0.123 C 
BRANCH   9  10
ATOM     10  O   UNL     1     -31.640  17.702   1.625  0.00  0.00    -0.382 OA
ATOM     11  H   UNL     1     -31.599  17.570   2.584  0.00  0.00    +0.211 HD
ENDBRANCH   9  10
BRANCH   9  12
ATOM     12  CA  UNL     1     -33.299  17.023  -0.004  0.00  0.00    +0.067 C 
BRANCH  12  13
ATOM     13  N   UNL     1     -34.436  16.132   0.252  0.00  0.00    +0.391 N 
ATOM     14  H1  UNL     1     -34.579  15.524  -0.554  0.00  0.00    -0.088 HD
ATOM     15  H2  UNL     1     -35.275  16.690   0.411  0.00  0.00    -0.088 HD
ATOM     16  H3  UNL     1     -34.243  15.565   1.077  0.00  0.00    -0.088 HD
ENDBRANCH  12  13
BRANCH  12  18
ATOM     17  OXT UNL     1     -31.220  16.437  -1.139  0.00  0.00    -0.253 OA
ATOM     18  C   UNL     1     -32.118  16.134  -0.364  0.00  0.00    +0.296 C 
BRANCH  18  19
ATOM     19  O   UNL     1     -32.151  14.945   0.291  0.00  0.00    -0.482 OA
ATOM     20  H   UNL     1     -32.784  14.799   0.967  0.00  0.00    +0.295 HD
ENDBRANCH  18  19
ENDBRANCH  12  18
ENDBRANCH   9  12
ENDBRANCH   1   9
BRANCH   2  21
ATOM     21  C   UNL     1     -35.776  21.917   2.354  0.00  0.00    +0.055 C 
BRANCH  21  22
ATOM     22  C   UNL     1     -35.682  21.589   3.817  0.00  0.00    -0.030 C 
ATOM     23  C   UNL     1     -35.309  22.401   4.824  0.00  0.00    -0.048 C 
ATOM     24  C   UNL     1     -35.235  22.008   6.273  0.00  0.00    +0.026 C 
ATOM     25  C   UNL     1     -34.913  23.826   4.548  0.00  0.00    +0.026 C 
ENDBRANCH  21  22
ENDBRANCH   2  21
TORSDOF 9
ENDMDL
MODEL 9
REMARK VINA RESULT:      -5.4      3.040      5.384
REMARK  Name = 192563
REMARK  9 active torsions:
REMARK  status: ('A' for Active; 'I' for Inactive)
REMARK    1  A    between atoms: C_1  and  C_9
REMARK    2  A    between atoms: C_2  and  C_21
REMARK    3  A    between atoms: C_5  and  O_7
REMARK    4  A    between atoms: C_9  and  O_10
REMARK    5  A    between atoms: C_9  and  CA_12
REMARK    6  A    between atoms: CA_12  and  N_13
REMARK    7  A    between atoms: CA_12  and  C_18
REMARK    8  A    between atoms: C_18  and  O_19
REMARK    9  A    between atoms: C_21  and  C_22
REMARK                            x       y       z     vdW  Elec       q    Type
REMARK                         _______ _______ _______ _____ _____    ______ ____
ROOT
ATOM      1  C   UNL     1     -35.333  23.573   4.451  0.00  0.00    +0.003 C 
ATOM      2  C   UNL     1     -33.930  25.341   3.625  0.00  0.00    +0.016 C 
ATOM      3  C   UNL     1     -34.564  24.122   3.426  0.00  0.00    -0.003 C 
ATOM      4  C   UNL     1     -35.462  24.248   5.665  0.00  0.00    +0.001 C 
ATOM      5  C   UNL     1     -34.050  26.022   4.828  0.00  0.00    +0.130 C 
ATOM      6  C   UNL     1     -34.821  25.473   5.853  0.00  0.00    +0.036 C 
ENDROOT
BRANCH   5   7
ATOM      7  O   UNL     1     -33.430  27.218   5.029  0.00  0.00    -0.506 OA
ATOM      8  H   UNL     1     -32.798  27.528   4.410  0.00  0.00    +0.292 HD
ENDBRANCH   5   7
BRANCH   1   9
ATOM      9  C   UNL     1     -36.020  22.265   4.251  0.00  0.00    +0.123 C 
BRANCH   9  10
ATOM     10  O   UNL     1     -35.312  21.159   4.841  0.00  0.00    -0.382 OA
ATOM     11  H   UNL     1     -34.513  20.973   4.325  0.00  0.00    +0.211 HD
ENDBRANCH   9  10
BRANCH   9  12
ATOM     12  CA  UNL     1     -36.299  21.920   2.765  0.00  0.00    +0.067 C 
BRANCH  12  13
ATOM     13  N   UNL     1     -37.735  21.988   2.472  0.00  0.00    +0.391 N 
ATOM     14  H1  UNL     1     -38.002  21.186   1.901  0.00  0.00    -0.088 HD
ATOM     15  H2  UNL     1     -37.937  22.850   1.966  0.00  0.00    -0.088 HD
ATOM     16  H3  UNL     1     -38.260  21.974   3.345  0.00  0.00    -0.088 HD
ENDBRANCH  12  13
BRANCH  12  18
ATOM     17  OXT UNL     1     -34.724  20.218   2.006  0.00  0.00    -0.253 OA
ATOM     18  C   UNL     1     -35.844  20.515   2.403  0.00  0.00    +0.296 C 
BRANCH  18  19
ATOM     19  O   UNL     1     -36.824  19.593   2.587  0.00  0.00    -0.482 OA
ATOM     20  H   UNL     1     -36.642  18.682   2.458  0.00  0.00    +0.295 HD
ENDBRANCH  18  19
ENDBRANCH  12  18
ENDBRANCH   9  12
ENDBRANCH   1   9
BRANCH   2  21
ATOM     21  C   UNL     1     -33.103  25.921   2.505  0.00  0.00    +0.055 C 
BRANCH  21  22
ATOM     22  C   UNL     1     -33.917  26.174   1.267  0.00  0.00    -0.030 C 
ATOM     23  C   UNL     1     -34.658  27.259   0.971  0.00  0.00    -0.048 C 
ATOM     24  C   UNL     1     -35.452  27.450  -0.290  0.00  0.00    +0.026 C 
ATOM     25  C   UNL     1     -34.751  28.406   1.942  0.00  0.00    +0.026 C 
ENDBRANCH  21  22
ENDBRANCH   2  21
TORSDOF 9
ENDMDL
