MODEL 1
REMARK VINA RESULT:      -6.0      0.000      0.000
REMARK  Name = 191432
REMARK  14 active torsions:
REMARK  status: ('A' for Active; 'I' for Inactive)
REMARK    1  A    between atoms: N_2  and  C_5
REMARK    2  A    between atoms: C_3  and  C_19
REMARK    3  A    between atoms: C_5  and  C_6
REMARK    4  A    between atoms: C_6  and  O_7
REMARK    5  A    between atoms: O_7  and  P_8
REMARK    6  A    between atoms: P_8  and  O_10
REMARK    7  A    between atoms: P_8  and  O_12
REMARK    8  A    between atoms: O_12  and  C_13
REMARK    9  A    between atoms: C_13  and  C_14
REMARK   10  A    between atoms: C_14  and  N_15
REMARK   11  A    between atoms: C_19  and  O_20
REMARK   12  A    between atoms: O_20  and  C_21
REMARK   13  A    between atoms: C_22  and  O_27
REMARK   14  A    between atoms: O_27  and  C_29
REMARK                            x       y       z     vdW  Elec       q    Type
REMARK                         _______ _______ _______ _____ _____    ______ ____
ROOT
ATOM      1  O   UNL     1     -38.807  26.234   1.152  0.00  0.00    -0.271 OA
ATOM      2  N   UNL     1     -37.107  26.614   2.692  0.00  0.00    -0.299 N 
ATOM      3  C   UNL     1     -38.255  26.006   2.225  0.00  0.00    +0.267 C 
ATOM      4  H   UNL     1     -36.756  26.347   3.572  0.00  0.00    +0.150 HD
ENDROOT
BRANCH   2   5
ATOM      5  C   UNL     1     -36.394  27.632   1.936  0.00  0.00    +0.122 C 
BRANCH   5   6
ATOM      6  C   UNL     1     -35.072  27.971   2.606  0.00  0.00    +0.175 C 
BRANCH   6   7
ATOM      7  O   UNL     1     -34.383  26.766   2.891  0.00  0.00    -0.271 OA
BRANCH   7   8
ATOM      8  P   UNL     1     -34.096  26.389   4.441  0.00  0.00    +0.476 P 
ATOM      9  O   UNL     1     -33.367  25.092   4.642  0.00  0.00    -0.227 OA
BRANCH   8  10
ATOM     10  O   UNL     1     -35.570  26.429   5.106  0.00  0.00    -0.302 OA
ATOM     11  H   UNL     1     -35.501  26.252   6.057  0.00  0.00    +0.222 HD
ENDBRANCH   8  10
BRANCH   8  12
ATOM     12  O   UNL     1     -33.349  27.688   5.053  0.00  0.00    -0.276 OA
BRANCH  12  13
ATOM     13  C   UNL     1     -32.439  27.541   6.131  0.00  0.00    +0.130 C 
BRANCH  13  14
ATOM     14  C   UNL     1     -31.404  28.652   6.052  0.00  0.00    -0.053 C 
BRANCH  14  15
ATOM     15  N   UNL     1     -30.252  28.341   6.885  0.00  0.00    +0.382 N 
ATOM     16  H   UNL     1     -29.854  27.448   6.595  0.00  0.00    -0.089 HD
ATOM     17  H   UNL     1     -30.544  28.282   7.861  0.00  0.00    -0.089 HD
ATOM     18  H   UNL     1     -29.551  29.075   6.783  0.00  0.00    -0.089 HD
ENDBRANCH  14  15
ENDBRANCH  13  14
ENDBRANCH  12  13
ENDBRANCH   8  12
ENDBRANCH   7   8
ENDBRANCH   6   7
ENDBRANCH   5   6
ENDBRANCH   2   5
BRANCH   3  19
ATOM     19  C   UNL     1     -38.781  24.989   3.216  0.00  0.00    +0.289 C 
BRANCH  19  20
ATOM     20  O   UNL     1     -37.718  24.384   3.922  0.00  0.00    -0.466 OA
BRANCH  20  21
ATOM     21  C   UNL     1     -37.184  23.235   3.388  0.00  0.00    +0.139 C 
ATOM     22  C   UNL     1     -36.099  20.904   2.306  0.00  0.00    +0.145 C 
ATOM     23  C   UNL     1     -35.989  22.721   3.893  0.00  0.00    +0.040 C 
ATOM     24  C   UNL     1     -37.836  22.582   2.342  0.00  0.00    +0.040 C 
ATOM     25  C   UNL     1     -35.446  21.556   3.352  0.00  0.00    +0.041 C 
ATOM     26  C   UNL     1     -37.294  21.417   1.801  0.00  0.00    +0.041 C 
BRANCH  22  27
ATOM     27  O   UNL     1     -35.570  19.766   1.776  0.00  0.00    -0.453 OA
BRANCH  27  29
ATOM     28 CL   UNL     1     -30.150  20.087  -0.520  0.00  0.00    -0.082 Cl
ATOM     29  C   UNL     1     -34.297  19.841   1.236  0.00  0.00    +0.145 C 
ATOM     30  C   UNL     1     -33.930  20.944   0.465  0.00  0.00    +0.038 C 
ATOM     31  C   UNL     1     -33.382  18.814   1.464  0.00  0.00    +0.038 C 
ATOM     32  C   UNL     1     -32.648  21.020  -0.078  0.00  0.00    +0.015 C 
ATOM     33  C   UNL     1     -32.098  18.891   0.922  0.00  0.00    +0.015 C 
ATOM     34  C   UNL     1     -31.731  19.993   0.151  0.00  0.00    +0.058 C 
ENDBRANCH  27  29
ENDBRANCH  22  27
ENDBRANCH  20  21
ENDBRANCH  19  20
ENDBRANCH   3  19
TORSDOF 14
ENDMDL
MODEL 2
REMARK VINA RESULT:      -5.9      5.828     10.634
REMARK  Name = 191432
REMARK  14 active torsions:
REMARK  status: ('A' for Active; 'I' for Inactive)
REMARK    1  A    between atoms: N_2  and  C_5
REMARK    2  A    between atoms: C_3  and  C_19
REMARK    3  A    between atoms: C_5  and  C_6
REMARK    4  A    between atoms: C_6  and  O_7
REMARK    5  A    between atoms: O_7  and  P_8
REMARK    6  A    between atoms: P_8  and  O_10
REMARK    7  A    between atoms: P_8  and  O_12
REMARK    8  A    between atoms: O_12  and  C_13
REMARK    9  A    between atoms: C_13  and  C_14
REMARK   10  A    between atoms: C_14  and  N_15
REMARK   11  A    between atoms: C_19  and  O_20
REMARK   12  A    between atoms: O_20  and  C_21
REMARK   13  A    between atoms: C_22  and  O_27
REMARK   14  A    between atoms: O_27  and  C_29
REMARK                            x       y       z     vdW  Elec       q    Type
REMARK                         _______ _______ _______ _____ _____    ______ ____
ROOT
ATOM      1  O   UNL     1     -30.739  28.367   4.141  0.00  0.00    -0.271 OA
ATOM      2  N   UNL     1     -32.456  28.788   5.652  0.00  0.00    -0.299 N 
ATOM      3  C   UNL     1     -31.679  29.050   4.541  0.00  0.00    +0.267 C 
ATOM      4  H   UNL     1     -33.185  29.410   5.875  0.00  0.00    +0.150 HD
ENDROOT
BRANCH   2   5
ATOM      5  C   UNL     1     -32.243  27.628   6.504  0.00  0.00    +0.122 C 
BRANCH   5   6
ATOM      6  C   UNL     1     -33.414  26.664   6.403  0.00  0.00    +0.175 C 
BRANCH   6   7
ATOM      7  O   UNL     1     -33.351  26.001   5.151  0.00  0.00    -0.271 OA
BRANCH   7   8
ATOM      8  P   UNL     1     -34.625  26.111   4.155  0.00  0.00    +0.476 P 
ATOM      9  O   UNL     1     -34.396  25.542   2.785  0.00  0.00    -0.227 OA
BRANCH   8  10
ATOM     10  O   UNL     1     -34.962  27.693   4.166  0.00  0.00    -0.302 OA
ATOM     11  H   UNL     1     -35.853  27.837   3.810  0.00  0.00    +0.222 HD
ENDBRANCH   8  10
BRANCH   8  12
ATOM     12  O   UNL     1     -35.850  25.439   4.972  0.00  0.00    -0.276 OA
BRANCH  12  13
ATOM     13  C   UNL     1     -36.165  24.070   4.781  0.00  0.00    +0.130 C 
BRANCH  13  14
ATOM     14  C   UNL     1     -35.275  23.233   5.686  0.00  0.00    -0.053 C 
BRANCH  14  15
ATOM     15  N   UNL     1     -35.983  22.047   6.147  0.00  0.00    +0.382 N 
ATOM     16  H   UNL     1     -35.861  21.949   7.155  0.00  0.00    -0.089 HD
ATOM     17  H   UNL     1     -35.607  21.223   5.677  0.00  0.00    -0.089 HD
ATOM     18  H   UNL     1     -36.975  22.138   5.932  0.00  0.00    -0.089 HD
ENDBRANCH  14  15
ENDBRANCH  13  14
ENDBRANCH  12  13
ENDBRANCH   8  12
ENDBRANCH   7   8
ENDBRANCH   6   7
ENDBRANCH   5   6
ENDBRANCH   2   5
BRANCH   3  19
ATOM     19  C   UNL     1     -32.125  30.317   3.844  0.00  0.00    +0.289 C 
BRANCH  19  20
ATOM     20  O   UNL     1     -33.491  30.572   4.099  0.00  0.00    -0.466 OA
BRANCH  20  21
ATOM     21  C   UNL     1     -34.187  31.275   3.143  0.00  0.00    +0.139 C 
ATOM     22  C   UNL     1     -35.598  32.702   1.206  0.00  0.00    +0.145 C 
ATOM     23  C   UNL     1     -33.582  32.349   2.490  0.00  0.00    +0.040 C 
ATOM     24  C   UNL     1     -35.496  30.914   2.827  0.00  0.00    +0.040 C 
ATOM     25  C   UNL     1     -34.288  33.063   1.522  0.00  0.00    +0.041 C 
ATOM     26  C   UNL     1     -36.202  31.628   1.859  0.00  0.00    +0.041 C 
BRANCH  22  27
ATOM     27  O   UNL     1     -36.288  33.398   0.262  0.00  0.00    -0.453 OA
BRANCH  27  29
ATOM     28 CL   UNL     1     -41.158  36.242   1.979  0.00  0.00    -0.082 Cl
ATOM     29  C   UNL     1     -37.432  34.067   0.664  0.00  0.00    +0.145 C 
ATOM     30  C   UNL     1     -38.681  33.654   0.202  0.00  0.00    +0.038 C 
ATOM     31  C   UNL     1     -37.335  35.153   1.534  0.00  0.00    +0.038 C 
ATOM     32  C   UNL     1     -39.833  34.326   0.608  0.00  0.00    +0.015 C 
ATOM     33  C   UNL     1     -38.487  35.826   1.942  0.00  0.00    +0.015 C 
ATOM     34  C   UNL     1     -39.736  35.413   1.479  0.00  0.00    +0.058 C 
ENDBRANCH  27  29
ENDBRANCH  22  27
ENDBRANCH  20  21
ENDBRANCH  19  20
ENDBRANCH   3  19
TORSDOF 14
ENDMDL
MODEL 3
REMARK VINA RESULT:      -5.9      3.967      6.000
REMARK  Name = 191432
REMARK  14 active torsions:
REMARK  status: ('A' for Active; 'I' for Inactive)
REMARK    1  A    between atoms: N_2  and  C_5
REMARK    2  A    between atoms: C_3  and  C_19
REMARK    3  A    between atoms: C_5  and  C_6
REMARK    4  A    between atoms: C_6  and  O_7
REMARK    5  A    between atoms: O_7  and  P_8
REMARK    6  A    between atoms: P_8  and  O_10
REMARK    7  A    between atoms: P_8  and  O_12
REMARK    8  A    between atoms: O_12  and  C_13
REMARK    9  A    between atoms: C_13  and  C_14
REMARK   10  A    between atoms: C_14  and  N_15
REMARK   11  A    between atoms: C_19  and  O_20
REMARK   12  A    between atoms: O_20  and  C_21
REMARK   13  A    between atoms: C_22  and  O_27
REMARK   14  A    between atoms: O_27  and  C_29
REMARK                            x       y       z     vdW  Elec       q    Type
REMARK                         _______ _______ _______ _____ _____    ______ ____
ROOT
ATOM      1  O   UNL     1     -38.180  26.970   1.850  0.00  0.00    -0.271 OA
ATOM      2  N   UNL     1     -39.522  25.719   3.279  0.00  0.00    -0.299 N 
ATOM      3  C   UNL     1     -38.320  26.150   2.753  0.00  0.00    +0.267 C 
ATOM      4  H   UNL     1     -39.508  25.056   4.005  0.00  0.00    +0.150 HD
ENDROOT
BRANCH   2   5
ATOM      5  C   UNL     1     -40.807  26.208   2.804  0.00  0.00    +0.122 C 
BRANCH   5   6
ATOM      6  C   UNL     1     -41.736  26.498   3.972  0.00  0.00    +0.175 C 
BRANCH   6   7
ATOM      7  O   UNL     1     -41.821  27.902   4.149  0.00  0.00    -0.271 OA
BRANCH   7   8
ATOM      8  P   UNL     1     -43.101  28.681   3.533  0.00  0.00    +0.476 P 
ATOM      9  O   UNL     1     -44.289  27.807   3.254  0.00  0.00    -0.227 OA
BRANCH   8  10
ATOM     10  O   UNL     1     -42.490  29.404   2.219  0.00  0.00    -0.302 OA
ATOM     11  H   UNL     1     -42.103  30.257   2.470  0.00  0.00    +0.222 HD
ENDBRANCH   8  10
BRANCH   8  12
ATOM     12  O   UNL     1     -43.381  29.900   4.561  0.00  0.00    -0.276 OA
BRANCH  12  13
ATOM     13  C   UNL     1     -44.702  30.164   5.005  0.00  0.00    +0.130 C 
BRANCH  13  14
ATOM     14  C   UNL     1     -44.732  30.085   6.523  0.00  0.00    -0.053 C 
BRANCH  14  15
ATOM     15  N   UNL     1     -43.421  30.386   7.080  0.00  0.00    +0.382 N 
ATOM     16  H   UNL     1     -43.022  31.188   6.592  0.00  0.00    -0.089 HD
ATOM     17  H   UNL     1     -42.809  29.579   6.965  0.00  0.00    -0.089 HD
ATOM     18  H   UNL     1     -43.515  30.604   8.071  0.00  0.00    -0.089 HD
ENDBRANCH  14  15
ENDBRANCH  13  14
ENDBRANCH  12  13
ENDBRANCH   8  12
ENDBRANCH   7   8
ENDBRANCH   6   7
ENDBRANCH   5   6
ENDBRANCH   2   5
BRANCH   3  19
ATOM     19  C   UNL     1     -37.148  25.477   3.436  0.00  0.00    +0.289 C 
BRANCH  19  20
ATOM     20  O   UNL     1     -37.535  24.231   3.977  0.00  0.00    -0.466 OA
BRANCH  20  21
ATOM     21  C   UNL     1     -37.028  23.102   3.377  0.00  0.00    +0.139 C 
ATOM     22  C   UNL     1     -35.999  20.813   2.160  0.00  0.00    +0.145 C 
ATOM     23  C   UNL     1     -35.961  22.421   3.962  0.00  0.00    +0.040 C 
ATOM     24  C   UNL     1     -37.581  22.638   2.184  0.00  0.00    +0.040 C 
ATOM     25  C   UNL     1     -35.445  21.277   3.353  0.00  0.00    +0.041 C 
ATOM     26  C   UNL     1     -37.067  21.494   1.575  0.00  0.00    +0.041 C 
BRANCH  22  27
ATOM     27  O   UNL     1     -35.497  19.696   1.565  0.00  0.00    -0.453 OA
BRANCH  27  29
ATOM     28 CL   UNL     1     -29.962  19.931  -0.453  0.00  0.00    -0.082 Cl
ATOM     29  C   UNL     1     -34.197  19.751   1.090  0.00  0.00    +0.145 C 
ATOM     30  C   UNL     1     -33.776  20.844   0.332  0.00  0.00    +0.038 C 
ATOM     31  C   UNL     1     -33.308  18.714   1.371  0.00  0.00    +0.038 C 
ATOM     32  C   UNL     1     -32.467  20.900  -0.145  0.00  0.00    +0.015 C 
ATOM     33  C   UNL     1     -31.998  18.770   0.895  0.00  0.00    +0.015 C 
ATOM     34  C   UNL     1     -31.577  19.862   0.137  0.00  0.00    +0.058 C 
ENDBRANCH  27  29
ENDBRANCH  22  27
ENDBRANCH  20  21
ENDBRANCH  19  20
ENDBRANCH   3  19
TORSDOF 14
ENDMDL
MODEL 4
REMARK VINA RESULT:      -5.9      1.586      2.364
REMARK  Name = 191432
REMARK  14 active torsions:
REMARK  status: ('A' for Active; 'I' for Inactive)
REMARK    1  A    between atoms: N_2  and  C_5
REMARK    2  A    between atoms: C_3  and  C_19
REMARK    3  A    between atoms: C_5  and  C_6
REMARK    4  A    between atoms: C_6  and  O_7
REMARK    5  A    between atoms: O_7  and  P_8
REMARK    6  A    between atoms: P_8  and  O_10
REMARK    7  A    between atoms: P_8  and  O_12
REMARK    8  A    between atoms: O_12  and  C_13
REMARK    9  A    between atoms: C_13  and  C_14
REMARK   10  A    between atoms: C_14  and  N_15
REMARK   11  A    between atoms: C_19  and  O_20
REMARK   12  A    between atoms: O_20  and  C_21
REMARK   13  A    between atoms: C_22  and  O_27
REMARK   14  A    between atoms: O_27  and  C_29
REMARK                            x       y       z     vdW  Elec       q    Type
REMARK                         _______ _______ _______ _____ _____    ______ ____
ROOT
ATOM      1  O   UNL     1     -36.577  26.413   2.884  0.00  0.00    -0.271 OA
ATOM      2  N   UNL     1     -36.746  25.090   4.789  0.00  0.00    -0.299 N 
ATOM      3  C   UNL     1     -36.974  25.406   3.464  0.00  0.00    +0.267 C 
ATOM      4  H   UNL     1     -37.117  24.250   5.144  0.00  0.00    +0.150 HD
ENDROOT
BRANCH   2   5
ATOM      5  C   UNL     1     -35.980  25.947   5.680  0.00  0.00    +0.122 C 
BRANCH   5   6
ATOM      6  C   UNL     1     -34.508  25.569   5.655  0.00  0.00    +0.175 C 
BRANCH   6   7
ATOM      7  O   UNL     1     -33.733  26.755   5.597  0.00  0.00    -0.271 OA
BRANCH   7   8
ATOM      8  P   UNL     1     -33.291  27.318   4.144  0.00  0.00    +0.476 P 
ATOM      9  O   UNL     1     -34.036  28.542   3.696  0.00  0.00    -0.227 OA
BRANCH   8  10
ATOM     10  O   UNL     1     -33.490  26.034   3.179  0.00  0.00    -0.302 OA
ATOM     11  H   UNL     1     -33.175  25.237   3.633  0.00  0.00    +0.222 HD
ENDBRANCH   8  10
BRANCH   8  12
ATOM     12  O   UNL     1     -31.685  27.499   4.239  0.00  0.00    -0.276 OA
BRANCH  12  13
ATOM     13  C   UNL     1     -31.136  28.690   4.777  0.00  0.00    +0.130 C 
BRANCH  13  14
ATOM     14  C   UNL     1     -30.714  28.428   6.214  0.00  0.00    -0.053 C 
BRANCH  14  15
ATOM     15  N   UNL     1     -31.768  28.820   7.138  0.00  0.00    +0.382 N 
ATOM     16  H   UNL     1     -32.433  28.054   7.239  0.00  0.00    -0.089 HD
ATOM     17  H   UNL     1     -32.248  29.644   6.776  0.00  0.00    -0.089 HD
ATOM     18  H   UNL     1     -31.359  29.037   8.047  0.00  0.00    -0.089 HD
ENDBRANCH  14  15
ENDBRANCH  13  14
ENDBRANCH  12  13
ENDBRANCH   8  12
ENDBRANCH   7   8
ENDBRANCH   6   7
ENDBRANCH   5   6
ENDBRANCH   2   5
BRANCH   3  19
ATOM     19  C   UNL     1     -37.797  24.337   2.778  0.00  0.00    +0.289 C 
BRANCH  19  20
ATOM     20  O   UNL     1     -37.661  23.098   3.443  0.00  0.00    -0.466 OA
BRANCH  20  21
ATOM     21  C   UNL     1     -37.012  22.091   2.768  0.00  0.00    +0.139 C 
ATOM     22  C   UNL     1     -35.696  20.048   1.400  0.00  0.00    +0.145 C 
ATOM     23  C   UNL     1     -37.500  21.648   1.540  0.00  0.00    +0.040 C 
ATOM     24  C   UNL     1     -35.865  21.513   3.313  0.00  0.00    +0.040 C 
ATOM     25  C   UNL     1     -36.842  20.625   0.855  0.00  0.00    +0.041 C 
ATOM     26  C   UNL     1     -35.207  20.491   2.629  0.00  0.00    +0.041 C 
BRANCH  22  27
ATOM     27  O   UNL     1     -35.053  19.050   0.734  0.00  0.00    -0.453 OA
BRANCH  27  29
ATOM     28 CL   UNL     1     -29.281  19.701  -0.274  0.00  0.00    -0.082 Cl
ATOM     29  C   UNL     1     -33.697  19.204   0.498  0.00  0.00    +0.145 C 
ATOM     30  C   UNL     1     -32.789  18.280   1.017  0.00  0.00    +0.038 C 
ATOM     31  C   UNL     1     -33.239  20.281  -0.261  0.00  0.00    +0.038 C 
ATOM     32  C   UNL     1     -31.424  18.434   0.778  0.00  0.00    +0.015 C 
ATOM     33  C   UNL     1     -31.873  20.434  -0.500  0.00  0.00    +0.015 C 
ATOM     34  C   UNL     1     -30.966  19.511   0.019  0.00  0.00    +0.058 C 
ENDBRANCH  27  29
ENDBRANCH  22  27
ENDBRANCH  20  21
ENDBRANCH  19  20
ENDBRANCH   3  19
TORSDOF 14
ENDMDL
MODEL 5
REMARK VINA RESULT:      -5.8      1.775      2.341
REMARK  Name = 191432
REMARK  14 active torsions:
REMARK  status: ('A' for Active; 'I' for Inactive)
REMARK    1  A    between atoms: N_2  and  C_5
REMARK    2  A    between atoms: C_3  and  C_19
REMARK    3  A    between atoms: C_5  and  C_6
REMARK    4  A    between atoms: C_6  and  O_7
REMARK    5  A    between atoms: O_7  and  P_8
REMARK    6  A    between atoms: P_8  and  O_10
REMARK    7  A    between atoms: P_8  and  O_12
REMARK    8  A    between atoms: O_12  and  C_13
REMARK    9  A    between atoms: C_13  and  C_14
REMARK   10  A    between atoms: C_14  and  N_15
REMARK   11  A    between atoms: C_19  and  O_20
REMARK   12  A    between atoms: O_20  and  C_21
REMARK   13  A    between atoms: C_22  and  O_27
REMARK   14  A    between atoms: O_27  and  C_29
REMARK                            x       y       z     vdW  Elec       q    Type
REMARK                         _______ _______ _______ _____ _____    ______ ____
ROOT
ATOM      1  O   UNL     1     -35.996  26.089   1.731  0.00  0.00    -0.271 OA
ATOM      2  N   UNL     1     -35.791  26.722   3.958  0.00  0.00    -0.299 N 
ATOM      3  C   UNL     1     -36.419  26.126   2.883  0.00  0.00    +0.267 C 
ATOM      4  H   UNL     1     -36.228  26.688   4.839  0.00  0.00    +0.150 HD
ENDROOT
BRANCH   2   5
ATOM      5  C   UNL     1     -34.508  27.398   3.843  0.00  0.00    +0.122 C 
BRANCH   5   6
ATOM      6  C   UNL     1     -33.470  26.739   4.737  0.00  0.00    +0.175 C 
BRANCH   6   7
ATOM      7  O   UNL     1     -32.283  27.514   4.707  0.00  0.00    -0.271 OA
BRANCH   7   8
ATOM      8  P   UNL     1     -31.714  28.108   6.103  0.00  0.00    +0.476 P 
ATOM      9  O   UNL     1     -30.233  27.947   6.291  0.00  0.00    -0.227 OA
BRANCH   8  10
ATOM     10  O   UNL     1     -32.608  27.345   7.216  0.00  0.00    -0.302 OA
ATOM     11  H   UNL     1     -32.154  27.376   8.072  0.00  0.00    +0.222 HD
ENDBRANCH   8  10
BRANCH   8  12
ATOM     12  O   UNL     1     -32.241  29.637   6.150  0.00  0.00    -0.276 OA
BRANCH  12  13
ATOM     13  C   UNL     1     -32.243  30.424   4.971  0.00  0.00    +0.130 C 
BRANCH  13  14
ATOM     14  C   UNL     1     -30.898  31.120   4.845  0.00  0.00    -0.053 C 
BRANCH  14  15
ATOM     15  N   UNL     1     -31.011  32.312   4.016  0.00  0.00    +0.382 N 
ATOM     16  H   UNL     1     -30.091  32.559   3.651  0.00  0.00    -0.089 HD
ATOM     17  H   UNL     1     -31.373  33.082   4.577  0.00  0.00    -0.089 HD
ATOM     18  H   UNL     1     -31.646  32.126   3.240  0.00  0.00    -0.089 HD
ENDBRANCH  14  15
ENDBRANCH  13  14
ENDBRANCH  12  13
ENDBRANCH   8  12
ENDBRANCH   7   8
ENDBRANCH   6   7
ENDBRANCH   5   6
ENDBRANCH   2   5
BRANCH   3  19
ATOM     19  C   UNL     1     -37.735  25.500   3.293  0.00  0.00    +0.289 C 
BRANCH  19  20
ATOM     20  O   UNL     1     -37.516  24.372   4.114  0.00  0.00    -0.466 OA
BRANCH  20  21
ATOM     21  C   UNL     1     -37.039  23.235   3.504  0.00  0.00    +0.139 C 
ATOM     22  C   UNL     1     -36.071  20.930   2.268  0.00  0.00    +0.145 C 
ATOM     23  C   UNL     1     -37.721  22.688   2.418  0.00  0.00    +0.040 C 
ATOM     24  C   UNL     1     -35.872  22.630   3.972  0.00  0.00    +0.040 C 
ATOM     25  C   UNL     1     -37.237  21.534   1.800  0.00  0.00    +0.041 C 
ATOM     26  C   UNL     1     -35.389  21.477   3.355  0.00  0.00    +0.041 C 
BRANCH  22  27
ATOM     27  O   UNL     1     -35.599  19.804   1.666  0.00  0.00    -0.453 OA
BRANCH  27  29
ATOM     28 CL   UNL     1     -30.090  19.933  -0.431  0.00  0.00    -0.082 Cl
ATOM     29  C   UNL     1     -34.305  19.833   1.172  0.00  0.00    +0.145 C 
ATOM     30  C   UNL     1     -33.878  20.912   0.397  0.00  0.00    +0.038 C 
ATOM     31  C   UNL     1     -33.428  18.786   1.452  0.00  0.00    +0.038 C 
ATOM     32  C   UNL     1     -32.575  20.943  -0.099  0.00  0.00    +0.015 C 
ATOM     33  C   UNL     1     -32.124  18.817   0.957  0.00  0.00    +0.015 C 
ATOM     34  C   UNL     1     -31.697  19.895   0.182  0.00  0.00    +0.058 C 
ENDBRANCH  27  29
ENDBRANCH  22  27
ENDBRANCH  20  21
ENDBRANCH  19  20
ENDBRANCH   3  19
TORSDOF 14
ENDMDL
MODEL 6
REMARK VINA RESULT:      -5.8      5.208      8.905
REMARK  Name = 191432
REMARK  14 active torsions:
REMARK  status: ('A' for Active; 'I' for Inactive)
REMARK    1  A    between atoms: N_2  and  C_5
REMARK    2  A    between atoms: C_3  and  C_19
REMARK    3  A    between atoms: C_5  and  C_6
REMARK    4  A    between atoms: C_6  and  O_7
REMARK    5  A    between atoms: O_7  and  P_8
REMARK    6  A    between atoms: P_8  and  O_10
REMARK    7  A    between atoms: P_8  and  O_12
REMARK    8  A    between atoms: O_12  and  C_13
REMARK    9  A    between atoms: C_13  and  C_14
REMARK   10  A    between atoms: C_14  and  N_15
REMARK   11  A    between atoms: C_19  and  O_20
REMARK   12  A    between atoms: O_20  and  C_21
REMARK   13  A    between atoms: C_22  and  O_27
REMARK   14  A    between atoms: O_27  and  C_29
REMARK                            x       y       z     vdW  Elec       q    Type
REMARK                         _______ _______ _______ _____ _____    ______ ____
ROOT
ATOM      1  O   UNL     1     -37.905  20.709  -0.147  0.00  0.00    -0.271 OA
ATOM      2  N   UNL     1     -37.537  20.909   2.140  0.00  0.00    -0.299 N 
ATOM      3  C   UNL     1     -38.243  21.097   0.969  0.00  0.00    +0.267 C 
ATOM      4  H   UNL     1     -37.909  21.266   2.978  0.00  0.00    +0.150 HD
ENDROOT
BRANCH   2   5
ATOM      5  C   UNL     1     -36.266  20.202   2.187  0.00  0.00    +0.122 C 
BRANCH   5   6
ATOM      6  C   UNL     1     -35.177  21.093   2.764  0.00  0.00    +0.175 C 
BRANCH   6   7
ATOM      7  O   UNL     1     -35.202  20.985   4.178  0.00  0.00    -0.271 OA
BRANCH   7   8
ATOM      8  P   UNL     1     -35.634  22.285   5.043  0.00  0.00    +0.476 P 
ATOM      9  O   UNL     1     -35.915  22.005   6.491  0.00  0.00    -0.227 OA
BRANCH   8  10
ATOM     10  O   UNL     1     -36.904  22.863   4.223  0.00  0.00    -0.302 OA
ATOM     11  H   UNL     1     -37.724  22.606   4.673  0.00  0.00    +0.222 HD
ENDBRANCH   8  10
BRANCH   8  12
ATOM     12  O   UNL     1     -34.463  23.370   4.777  0.00  0.00    -0.276 OA
BRANCH  12  13
ATOM     13  C   UNL     1     -34.765  24.595   4.130  0.00  0.00    +0.130 C 
BRANCH  13  14
ATOM     14  C   UNL     1     -34.657  25.724   5.142  0.00  0.00    -0.053 C 
BRANCH  14  15
ATOM     15  N   UNL     1     -35.707  26.708   4.928  0.00  0.00    +0.382 N 
ATOM     16  H   UNL     1     -36.478  26.277   4.418  0.00  0.00    -0.089 HD
ATOM     17  H   UNL     1     -35.336  27.489   4.388  0.00  0.00    -0.089 HD
ATOM     18  H   UNL     1     -36.044  27.047   5.830  0.00  0.00    -0.089 HD
ENDBRANCH  14  15
ENDBRANCH  13  14
ENDBRANCH  12  13
ENDBRANCH   8  12
ENDBRANCH   7   8
ENDBRANCH   6   7
ENDBRANCH   5   6
ENDBRANCH   2   5
BRANCH   3  19
ATOM     19  C   UNL     1     -39.526  21.861   1.217  0.00  0.00    +0.289 C 
BRANCH  19  20
ATOM     20  O   UNL     1     -39.406  22.679   2.361  0.00  0.00    -0.466 OA
BRANCH  20  21
ATOM     21  C   UNL     1     -40.052  23.893   2.336  0.00  0.00    +0.139 C 
ATOM     22  C   UNL     1     -41.361  26.355   2.282  0.00  0.00    +0.145 C 
ATOM     23  C   UNL     1     -40.899  24.210   1.274  0.00  0.00    +0.040 C 
ATOM     24  C   UNL     1     -39.860  24.808   3.371  0.00  0.00    +0.040 C 
ATOM     25  C   UNL     1     -41.553  25.442   1.247  0.00  0.00    +0.041 C 
ATOM     26  C   UNL     1     -40.514  26.039   3.344  0.00  0.00    +0.041 C 
BRANCH  22  27
ATOM     27  O   UNL     1     -41.999  27.558   2.257  0.00  0.00    -0.453 OA
BRANCH  27  29
ATOM     28 CL   UNL     1     -46.051  28.589   6.413  0.00  0.00    -0.082 Cl
ATOM     29  C   UNL     1     -42.951  27.801   3.233  0.00  0.00    +0.145 C 
ATOM     30  C   UNL     1     -44.090  26.999   3.312  0.00  0.00    +0.038 C 
ATOM     31  C   UNL     1     -42.771  28.847   4.137  0.00  0.00    +0.038 C 
ATOM     32  C   UNL     1     -45.048  27.242   4.295  0.00  0.00    +0.015 C 
ATOM     33  C   UNL     1     -43.730  29.091   5.121  0.00  0.00    +0.015 C 
ATOM     34  C   UNL     1     -44.868  28.289   5.201  0.00  0.00    +0.058 C 
ENDBRANCH  27  29
ENDBRANCH  22  27
ENDBRANCH  20  21
ENDBRANCH  19  20
ENDBRANCH   3  19
TORSDOF 14
ENDMDL
MODEL 7
REMARK VINA RESULT:      -5.8      1.865      2.304
REMARK  Name = 191432
REMARK  14 active torsions:
REMARK  status: ('A' for Active; 'I' for Inactive)
REMARK    1  A    between atoms: N_2  and  C_5
REMARK    2  A    between atoms: C_3  and  C_19
REMARK    3  A    between atoms: C_5  and  C_6
REMARK    4  A    between atoms: C_6  and  O_7
REMARK    5  A    between atoms: O_7  and  P_8
REMARK    6  A    between atoms: P_8  and  O_10
REMARK    7  A    between atoms: P_8  and  O_12
REMARK    8  A    between atoms: O_12  and  C_13
REMARK    9  A    between atoms: C_13  and  C_14
REMARK   10  A    between atoms: C_14  and  N_15
REMARK   11  A    between atoms: C_19  and  O_20
REMARK   12  A    between atoms: O_20  and  C_21
REMARK   13  A    between atoms: C_22  and  O_27
REMARK   14  A    between atoms: O_27  and  C_29
REMARK                            x       y       z     vdW  Elec       q    Type
REMARK                         _______ _______ _______ _____ _____    ______ ____
ROOT
ATOM      1  O   UNL     1     -35.935  25.169   1.510  0.00  0.00    -0.271 OA
ATOM      2  N   UNL     1     -36.882  27.177   2.201  0.00  0.00    -0.299 N 
ATOM      3  C   UNL     1     -36.794  25.802   2.118  0.00  0.00    +0.267 C 
ATOM      4  H   UNL     1     -37.618  27.573   2.720  0.00  0.00    +0.150 HD
ENDROOT
BRANCH   2   5
ATOM      5  C   UNL     1     -35.928  28.065   1.554  0.00  0.00    +0.122 C 
BRANCH   5   6
ATOM      6  C   UNL     1     -35.181  28.894   2.587  0.00  0.00    +0.175 C 
BRANCH   6   7
ATOM      7  O   UNL     1     -34.785  28.047   3.652  0.00  0.00    -0.271 OA
BRANCH   7   8
ATOM      8  P   UNL     1     -33.204  27.900   3.975  0.00  0.00    +0.476 P 
ATOM      9  O   UNL     1     -32.610  29.058   4.722  0.00  0.00    -0.227 OA
BRANCH   8  10
ATOM     10  O   UNL     1     -32.554  27.654   2.513  0.00  0.00    -0.302 OA
ATOM     11  H   UNL     1     -31.635  27.963   2.511  0.00  0.00    +0.222 HD
ENDBRANCH   8  10
BRANCH   8  12
ATOM     12  O   UNL     1     -33.062  26.469   4.718  0.00  0.00    -0.276 OA
BRANCH  12  13
ATOM     13  C   UNL     1     -34.116  25.524   4.645  0.00  0.00    +0.130 C 
BRANCH  13  14
ATOM     14  C   UNL     1     -34.965  25.640   5.900  0.00  0.00    -0.053 C 
BRANCH  14  15
ATOM     15  N   UNL     1     -36.209  26.341   5.617  0.00  0.00    +0.382 N 
ATOM     16  H   UNL     1     -36.938  26.007   6.247  0.00  0.00    -0.089 HD
ATOM     17  H   UNL     1     -36.486  26.165   4.651  0.00  0.00    -0.089 HD
ATOM     18  H   UNL     1     -36.073  27.343   5.755  0.00  0.00    -0.089 HD
ENDBRANCH  14  15
ENDBRANCH  13  14
ENDBRANCH  12  13
ENDBRANCH   8  12
ENDBRANCH   7   8
ENDBRANCH   6   7
ENDBRANCH   5   6
ENDBRANCH   2   5
BRANCH   3  19
ATOM     19  C   UNL     1     -37.915  25.132   2.885  0.00  0.00    +0.289 C 
BRANCH  19  20
ATOM     20  O   UNL     1     -37.401  24.165   3.777  0.00  0.00    -0.466 OA
BRANCH  20  21
ATOM     21  C   UNL     1     -36.907  23.005   3.228  0.00  0.00    +0.139 C 
ATOM     22  C   UNL     1     -35.904  20.653   2.114  0.00  0.00    +0.145 C 
ATOM     23  C   UNL     1     -35.723  22.452   3.716  0.00  0.00    +0.040 C 
ATOM     24  C   UNL     1     -37.590  22.382   2.183  0.00  0.00    +0.040 C 
ATOM     25  C   UNL     1     -35.221  21.276   3.158  0.00  0.00    +0.041 C 
ATOM     26  C   UNL     1     -37.088  21.206   1.626  0.00  0.00    +0.041 C 
BRANCH  22  27
ATOM     27  O   UNL     1     -35.415  19.505   1.569  0.00  0.00    -0.453 OA
BRANCH  27  29
ATOM     28 CL   UNL     1     -29.816  19.520  -0.279  0.00  0.00    -0.082 Cl
ATOM     29  C   UNL     1     -34.099  19.510   1.136  0.00  0.00    +0.145 C 
ATOM     30  C   UNL     1     -33.245  18.463   1.486  0.00  0.00    +0.038 C 
ATOM     31  C   UNL     1     -33.628  20.559   0.347  0.00  0.00    +0.038 C 
ATOM     32  C   UNL     1     -31.922  18.466   1.049  0.00  0.00    +0.015 C 
ATOM     33  C   UNL     1     -32.304  20.562  -0.092  0.00  0.00    +0.015 C 
ATOM     34  C   UNL     1     -31.451  19.516   0.259  0.00  0.00    +0.058 C 
ENDBRANCH  27  29
ENDBRANCH  22  27
ENDBRANCH  20  21
ENDBRANCH  19  20
ENDBRANCH   3  19
TORSDOF 14
ENDMDL
MODEL 8
REMARK VINA RESULT:      -5.7      5.524     10.035
REMARK  Name = 191432
REMARK  14 active torsions:
REMARK  status: ('A' for Active; 'I' for Inactive)
REMARK    1  A    between atoms: N_2  and  C_5
REMARK    2  A    between atoms: C_3  and  C_19
REMARK    3  A    between atoms: C_5  and  C_6
REMARK    4  A    between atoms: C_6  and  O_7
REMARK    5  A    between atoms: O_7  and  P_8
REMARK    6  A    between atoms: P_8  and  O_10
REMARK    7  A    between atoms: P_8  and  O_12
REMARK    8  A    between atoms: O_12  and  C_13
REMARK    9  A    between atoms: C_13  and  C_14
REMARK   10  A    between atoms: C_14  and  N_15
REMARK   11  A    between atoms: C_19  and  O_20
REMARK   12  A    between atoms: O_20  and  C_21
REMARK   13  A    between atoms: C_22  and  O_27
REMARK   14  A    between atoms: O_27  and  C_29
REMARK                            x       y       z     vdW  Elec       q    Type
REMARK                         _______ _______ _______ _____ _____    ______ ____
ROOT
ATOM      1  O   UNL     1     -34.468  18.477  -1.396  0.00  0.00    -0.271 OA
ATOM      2  N   UNL     1     -34.460  16.964   0.369  0.00  0.00    -0.299 N 
ATOM      3  C   UNL     1     -34.501  18.223  -0.195  0.00  0.00    +0.267 C 
ATOM      4  H   UNL     1     -34.494  16.884   1.349  0.00  0.00    +0.150 HD
ENDROOT
BRANCH   2   5
ATOM      5  C   UNL     1     -34.370  15.749  -0.427  0.00  0.00    +0.122 C 
BRANCH   5   6
ATOM      6  C   UNL     1     -35.701  15.013  -0.436  0.00  0.00    +0.175 C 
BRANCH   6   7
ATOM      7  O   UNL     1     -36.598  15.704  -1.289  0.00  0.00    -0.271 OA
BRANCH   7   8
ATOM      8  P   UNL     1     -37.972  16.284  -0.658  0.00  0.00    +0.476 P 
ATOM      9  O   UNL     1     -38.774  17.144  -1.591  0.00  0.00    -0.227 OA
BRANCH   8  10
ATOM     10  O   UNL     1     -37.466  17.051   0.675  0.00  0.00    -0.302 OA
ATOM     11  H   UNL     1     -38.202  17.129   1.302  0.00  0.00    +0.222 HD
ENDBRANCH   8  10
BRANCH   8  12
ATOM     12  O   UNL     1     -38.753  14.984  -0.094  0.00  0.00    -0.276 OA
BRANCH  12  13
ATOM     13  C   UNL     1     -39.738  14.348  -0.891  0.00  0.00    +0.130 C 
BRANCH  13  14
ATOM     14  C   UNL     1     -40.781  13.725   0.025  0.00  0.00    -0.053 C 
BRANCH  14  15
ATOM     15  N   UNL     1     -40.164  12.762   0.925  0.00  0.00    +0.382 N 
ATOM     16  H   UNL     1     -39.151  12.888   0.915  0.00  0.00    -0.089 HD
ATOM     17  H   UNL     1     -40.392  11.816   0.620  0.00  0.00    -0.089 HD
ATOM     18  H   UNL     1     -40.515  12.909   1.871  0.00  0.00    -0.089 HD
ENDBRANCH  14  15
ENDBRANCH  13  14
ENDBRANCH  12  13
ENDBRANCH   8  12
ENDBRANCH   7   8
ENDBRANCH   6   7
ENDBRANCH   5   6
ENDBRANCH   2   5
BRANCH   3  19
ATOM     19  C   UNL     1     -34.595  19.298   0.867  0.00  0.00    +0.289 C 
BRANCH  19  20
ATOM     20  O   UNL     1     -35.943  19.626   1.127  0.00  0.00    -0.466 OA
BRANCH  20  21
ATOM     21  C   UNL     1     -36.180  20.714   1.934  0.00  0.00    +0.139 C 
ATOM     22  C   UNL     1     -36.660  22.919   3.574  0.00  0.00    +0.145 C 
ATOM     23  C   UNL     1     -35.344  20.970   3.021  0.00  0.00    +0.040 C 
ATOM     24  C   UNL     1     -37.256  21.561   1.667  0.00  0.00    +0.040 C 
ATOM     25  C   UNL     1     -35.585  22.072   3.842  0.00  0.00    +0.041 C 
ATOM     26  C   UNL     1     -37.496  22.663   2.487  0.00  0.00    +0.041 C 
BRANCH  22  27
ATOM     27  O   UNL     1     -36.896  23.994   4.374  0.00  0.00    -0.453 OA
BRANCH  27  29
ATOM     28 CL   UNL     1     -32.582  27.970   4.962  0.00  0.00    -0.082 Cl
ATOM     29  C   UNL     1     -35.882  24.928   4.512  0.00  0.00    +0.145 C 
ATOM     30  C   UNL     1     -35.510  25.720   3.426  0.00  0.00    +0.038 C 
ATOM     31  C   UNL     1     -35.234  25.077   5.738  0.00  0.00    +0.038 C 
ATOM     32  C   UNL     1     -34.490  26.660   3.565  0.00  0.00    +0.015 C 
ATOM     33  C   UNL     1     -34.214  26.019   5.877  0.00  0.00    +0.015 C 
ATOM     34  C   UNL     1     -33.842  26.810   4.791  0.00  0.00    +0.058 C 
ENDBRANCH  27  29
ENDBRANCH  22  27
ENDBRANCH  20  21
ENDBRANCH  19  20
ENDBRANCH   3  19
TORSDOF 14
ENDMDL
MODEL 9
REMARK VINA RESULT:      -5.7      2.463      4.806
REMARK  Name = 191432
REMARK  14 active torsions:
REMARK  status: ('A' for Active; 'I' for Inactive)
REMARK    1  A    between atoms: N_2  and  C_5
REMARK    2  A    between atoms: C_3  and  C_19
REMARK    3  A    between atoms: C_5  and  C_6
REMARK    4  A    between atoms: C_6  and  O_7
REMARK    5  A    between atoms: O_7  and  P_8
REMARK    6  A    between atoms: P_8  and  O_10
REMARK    7  A    between atoms: P_8  and  O_12
REMARK    8  A    between atoms: O_12  and  C_13
REMARK    9  A    between atoms: C_13  and  C_14
REMARK   10  A    between atoms: C_14  and  N_15
REMARK   11  A    between atoms: C_19  and  O_20
REMARK   12  A    between atoms: O_20  and  C_21
REMARK   13  A    between atoms: C_22  and  O_27
REMARK   14  A    between atoms: O_27  and  C_29
REMARK                            x       y       z     vdW  Elec       q    Type
REMARK                         _______ _______ _______ _____ _____    ______ ____
ROOT
ATOM      1  O   UNL     1     -33.831  27.134   3.908  0.00  0.00    -0.271 OA
ATOM      2  N   UNL     1     -36.068  26.894   3.324  0.00  0.00    -0.299 N 
ATOM      3  C   UNL     1     -34.964  26.718   4.133  0.00  0.00    +0.267 C 
ATOM      4  H   UNL     1     -36.929  26.513   3.611  0.00  0.00    +0.150 HD
ENDROOT
BRANCH   2   5
ATOM      5  C   UNL     1     -36.013  27.623   2.066  0.00  0.00    +0.122 C 
BRANCH   5   6
ATOM      6  C   UNL     1     -36.994  27.038   1.063  0.00  0.00    +0.175 C 
BRANCH   6   7
ATOM      7  O   UNL     1     -38.313  27.317   1.500  0.00  0.00    -0.271 OA
BRANCH   7   8
ATOM      8  P   UNL     1     -39.288  26.073   1.854  0.00  0.00    +0.476 P 
ATOM      9  O   UNL     1     -40.337  25.787   0.819  0.00  0.00    -0.227 OA
BRANCH   8  10
ATOM     10  O   UNL     1     -39.884  26.477   3.304  0.00  0.00    -0.302 OA
ATOM     11  H   UNL     1     -40.250  27.374   3.264  0.00  0.00    +0.222 HD
ENDBRANCH   8  10
BRANCH   8  12
ATOM     12  O   UNL     1     -38.290  24.837   2.167  0.00  0.00    -0.276 OA
BRANCH  12  13
ATOM     13  C   UNL     1     -38.799  23.637   2.725  0.00  0.00    +0.130 C 
BRANCH  13  14
ATOM     14  C   UNL     1     -38.921  22.599   1.621  0.00  0.00    -0.053 C 
BRANCH  14  15
ATOM     15  N   UNL     1     -38.755  21.256   2.159  0.00  0.00    +0.382 N 
ATOM     16  H   UNL     1     -39.667  20.877   2.413  0.00  0.00    -0.089 HD
ATOM     17  H   UNL     1     -38.159  21.292   2.986  0.00  0.00    -0.089 HD
ATOM     18  H   UNL     1     -38.323  20.659   1.454  0.00  0.00    -0.089 HD
ENDBRANCH  14  15
ENDBRANCH  13  14
ENDBRANCH  12  13
ENDBRANCH   8  12
ENDBRANCH   7   8
ENDBRANCH   6   7
ENDBRANCH   5   6
ENDBRANCH   2   5
BRANCH   3  19
ATOM     19  C   UNL     1     -35.313  25.925   5.375  0.00  0.00    +0.289 C 
BRANCH  19  20
ATOM     20  O   UNL     1     -34.452  24.815   5.516  0.00  0.00    -0.466 OA
BRANCH  20  21
ATOM     21  C   UNL     1     -34.796  23.664   4.847  0.00  0.00    +0.139 C 
ATOM     22  C   UNL     1     -35.494  21.329   3.489  0.00  0.00    +0.145 C 
ATOM     23  C   UNL     1     -34.982  22.476   5.553  0.00  0.00    +0.040 C 
ATOM     24  C   UNL     1     -34.960  23.685   3.461  0.00  0.00    +0.040 C 
ATOM     25  C   UNL     1     -35.330  21.308   4.874  0.00  0.00    +0.041 C 
ATOM     26  C   UNL     1     -35.308  22.517   2.783  0.00  0.00    +0.041 C 
BRANCH  22  27
ATOM     27  O   UNL     1     -35.833  20.190   2.826  0.00  0.00    -0.453 OA
BRANCH  27  29
ATOM     28 CL   UNL     1     -32.805  18.855  -2.054  0.00  0.00    -0.082 Cl
ATOM     29  C   UNL     1     -35.122  19.877   1.679  0.00  0.00    +0.145 C 
ATOM     30  C   UNL     1     -33.808  19.418   1.776  0.00  0.00    +0.038 C 
ATOM     31  C   UNL     1     -35.719  20.020   0.427  0.00  0.00    +0.038 C 
ATOM     32  C   UNL     1     -33.092  19.102   0.623  0.00  0.00    +0.015 C 
ATOM     33  C   UNL     1     -35.003  19.703  -0.728  0.00  0.00    +0.015 C 
ATOM     34  C   UNL     1     -33.690  19.244  -0.630  0.00  0.00    +0.058 C 
ENDBRANCH  27  29
ENDBRANCH  22  27
ENDBRANCH  20  21
ENDBRANCH  19  20
ENDBRANCH   3  19
TORSDOF 14
ENDMDL
