MODEL 1
REMARK VINA RESULT:      -7.0      0.000      0.000
REMARK  Name = 54717225
REMARK  5 active torsions:
REMARK  status: ('A' for Active; 'I' for Inactive)
REMARK    1  A    between atoms: C_1  and  C_13
REMARK    2  A    between atoms: C_1  and  C_17
REMARK    3  A    between atoms: C_18  and  C_20
REMARK    4  A    between atoms: C_21  and  C_25
REMARK    5  A    between atoms: C_25  and  O_31
REMARK                            x       y       z     vdW  Elec       q    Type
REMARK                         _______ _______ _______ _____ _____    ______ ____
ROOT
ATOM      1  C   UNL     1     -44.976  27.306   4.140  0.00  0.00    +0.049 C 
ATOM      2  C   UNL     1     -45.681  26.358   5.114  0.00  0.00    +0.007 C 
ENDROOT
BRANCH   1  13
ATOM      3  O   UNL     1     -46.247  32.173   6.632  0.00  0.00    -0.343 OA
ATOM      4  O   UNL     1     -44.003  31.198   5.349  0.00  0.00    -0.327 OA
ATOM      5  O   UNL     1     -44.615  28.948   5.818  0.00  0.00    -0.334 OA
ATOM      6  O   UNL     1     -46.564  32.498   3.350  0.00  0.00    -0.291 OA
ATOM      7  C   UNL     1     -46.050  30.755   6.552  0.00  0.00    +0.171 C 
ATOM      8  C   UNL     1     -46.773  31.509   5.472  0.00  0.00    +0.204 C 
ATOM      9  C   UNL     1     -44.642  30.308   6.276  0.00  0.00    +0.213 C 
ATOM     10  C   UNL     1     -44.658  31.192   4.084  0.00  0.00    +0.179 C 
ATOM     11  C   UNL     1     -44.653  29.763   3.512  0.00  0.00    +0.062 C 
ATOM     12  C   UNL     1     -46.044  31.813   4.223  0.00  0.00    +0.207 C 
ATOM     13  C   UNL     1     -45.227  28.759   4.534  0.00  0.00    +0.124 C 
ATOM     14  C   UNL     1     -46.857  29.994   7.544  0.00  0.00    +0.038 C 
ATOM     15  C   UNL     1     -43.799  30.353   7.551  0.00  0.00    +0.064 C 
ATOM     16  C   UNL     1     -45.341  29.687   2.150  0.00  0.00    +0.005 C 
ENDBRANCH   1  13
BRANCH   1  17
ATOM     17  C   UNL     1     -43.491  27.019   4.130  0.00  0.00    -0.028 C 
ATOM     18  C   UNL     1     -42.707  26.652   3.094  0.00  0.00    -0.026 C 
ATOM     19  C   UNL     1     -43.202  26.470   1.683  0.00  0.00    +0.031 C 
BRANCH  18  20
ATOM     20  C   UNL     1     -41.281  26.420   3.346  0.00  0.00    -0.001 C 
ATOM     21  C   UNL     1     -40.505  25.484   2.768  0.00  0.00    +0.037 C 
BRANCH  21  25
ATOM     22  O   UNL     1     -36.241  24.597   3.520  0.00  0.00    -0.289 OA
ATOM     23  O   UNL     1     -40.325  22.728   2.094  0.00  0.00    -0.270 OA
ATOM     24  N   UNL     1     -38.134  21.910   2.389  0.00  0.00    -0.294 N 
ATOM     25  C   UNL     1     -39.093  25.278   3.040  0.00  0.00    +0.141 C 
ATOM     26  C   UNL     1     -38.496  24.089   2.869  0.00  0.00    +0.123 C 
ATOM     27  C   UNL     1     -37.070  23.797   3.122  0.00  0.00    +0.200 C 
ATOM     28  C   UNL     1     -39.154  22.859   2.400  0.00  0.00    +0.252 C 
ATOM     29  C   UNL     1     -36.810  22.349   2.808  0.00  0.00    +0.160 C 
ATOM     30  H   UNL     1     -38.302  20.981   2.111  0.00  0.00    +0.150 HD
BRANCH  25  31
ATOM     31  O   UNL     1     -38.396  26.384   3.487  0.00  0.00    -0.505 OA
ATOM     32  H   UNL     1     -38.823  27.021   4.025  0.00  0.00    +0.292 HD
ENDBRANCH  25  31
ENDBRANCH  21  25
ENDBRANCH  18  20
ENDBRANCH   1  17
TORSDOF 5
ENDMDL
MODEL 2
REMARK VINA RESULT:      -6.7      6.961     10.491
REMARK  Name = 54717225
REMARK  5 active torsions:
REMARK  status: ('A' for Active; 'I' for Inactive)
REMARK    1  A    between atoms: C_1  and  C_13
REMARK    2  A    between atoms: C_1  and  C_17
REMARK    3  A    between atoms: C_18  and  C_20
REMARK    4  A    between atoms: C_21  and  C_25
REMARK    5  A    between atoms: C_25  and  O_31
REMARK                            x       y       z     vdW  Elec       q    Type
REMARK                         _______ _______ _______ _____ _____    ______ ____
ROOT
ATOM      1  C   UNL     1     -34.634  24.291   0.374  0.00  0.00    +0.049 C 
ATOM      2  C   UNL     1     -35.337  24.712  -0.919  0.00  0.00    +0.007 C 
ENDROOT
BRANCH   1  13
ATOM      3  O   UNL     1     -39.036  24.534   3.849  0.00  0.00    -0.343 OA
ATOM      4  O   UNL     1     -36.870  22.836   3.605  0.00  0.00    -0.327 OA
ATOM      5  O   UNL     1     -36.615  23.365   1.300  0.00  0.00    -0.334 OA
ATOM      6  O   UNL     1     -36.379  25.834   5.342  0.00  0.00    -0.291 OA
ATOM      7  C   UNL     1     -38.371  24.429   2.583  0.00  0.00    +0.171 C 
ATOM      8  C   UNL     1     -37.927  25.418   3.623  0.00  0.00    +0.204 C 
ATOM      9  C   UNL     1     -37.538  23.194   2.386  0.00  0.00    +0.213 C 
ATOM     10  C   UNL     1     -35.956  23.849   4.016  0.00  0.00    +0.179 C 
ATOM     11  C   UNL     1     -34.914  24.078   2.907  0.00  0.00    +0.062 C 
ATOM     12  C   UNL     1     -36.729  25.098   4.427  0.00  0.00    +0.207 C 
ATOM     13  C   UNL     1     -35.603  24.350   1.552  0.00  0.00    +0.124 C 
ATOM     14  C   UNL     1     -39.195  24.921   1.446  0.00  0.00    +0.038 C 
ATOM     15  C   UNL     1     -38.419  21.997   2.023  0.00  0.00    +0.064 C 
ATOM     16  C   UNL     1     -33.899  25.155   3.286  0.00  0.00    +0.005 C 
ENDBRANCH   1  13
BRANCH   1  17
ATOM     17  C   UNL     1     -34.081  22.891   0.225  0.00  0.00    -0.028 C 
ATOM     18  C   UNL     1     -32.887  22.501  -0.273  0.00  0.00    -0.026 C 
ATOM     19  C   UNL     1     -31.833  23.450  -0.781  0.00  0.00    +0.031 C 
BRANCH  18  20
ATOM     20  C   UNL     1     -32.587  21.067  -0.321  0.00  0.00    -0.001 C 
ATOM     21  C   UNL     1     -32.876  20.153   0.625  0.00  0.00    +0.037 C 
BRANCH  21  25
ATOM     22  O   UNL     1     -32.188  15.797   0.335  0.00  0.00    -0.289 OA
ATOM     23  O   UNL     1     -35.469  19.163   0.010  0.00  0.00    -0.270 OA
ATOM     24  N   UNL     1     -35.465  16.818  -0.217  0.00  0.00    -0.294 N 
ATOM     25  C   UNL     1     -32.564  18.736   0.548  0.00  0.00    +0.141 C 
ATOM     26  C   UNL     1     -33.494  17.811   0.272  0.00  0.00    +0.123 C 
ATOM     27  C   UNL     1     -33.261  16.356   0.176  0.00  0.00    +0.200 C 
ATOM     28  C   UNL     1     -34.919  18.078   0.015  0.00  0.00    +0.252 C 
ATOM     29  C   UNL     1     -34.563  15.676  -0.149  0.00  0.00    +0.160 C 
ATOM     30  H   UNL     1     -36.422  16.703  -0.419  0.00  0.00    +0.150 HD
BRANCH  25  31
ATOM     31  O   UNL     1     -31.245  18.395   0.778  0.00  0.00    -0.505 OA
ATOM     32  H   UNL     1     -30.965  18.157   1.640  0.00  0.00    +0.292 HD
ENDBRANCH  25  31
ENDBRANCH  21  25
ENDBRANCH  18  20
ENDBRANCH   1  17
TORSDOF 5
ENDMDL
MODEL 3
REMARK VINA RESULT:      -6.7      7.998     11.149
REMARK  Name = 54717225
REMARK  5 active torsions:
REMARK  status: ('A' for Active; 'I' for Inactive)
REMARK    1  A    between atoms: C_1  and  C_13
REMARK    2  A    between atoms: C_1  and  C_17
REMARK    3  A    between atoms: C_18  and  C_20
REMARK    4  A    between atoms: C_21  and  C_25
REMARK    5  A    between atoms: C_25  and  O_31
REMARK                            x       y       z     vdW  Elec       q    Type
REMARK                         _______ _______ _______ _____ _____    ______ ____
ROOT
ATOM      1  C   UNL     1     -33.771  24.345   0.205  0.00  0.00    +0.049 C 
ATOM      2  C   UNL     1     -34.735  24.694  -0.932  0.00  0.00    +0.007 C 
ENDROOT
BRANCH   1  13
ATOM      3  O   UNL     1     -37.092  24.490   4.728  0.00  0.00    -0.343 OA
ATOM      4  O   UNL     1     -34.443  23.827   4.308  0.00  0.00    -0.327 OA
ATOM      5  O   UNL     1     -34.859  23.283   2.030  0.00  0.00    -0.334 OA
ATOM      6  O   UNL     1     -35.219  27.222   4.647  0.00  0.00    -0.291 OA
ATOM      7  C   UNL     1     -36.677  24.071   3.422  0.00  0.00    +0.171 C 
ATOM      8  C   UNL     1     -36.616  25.512   3.839  0.00  0.00    +0.204 C 
ATOM      9  C   UNL     1     -35.388  23.301   3.364  0.00  0.00    +0.213 C 
ATOM     10  C   UNL     1     -34.094  25.174   4.002  0.00  0.00    +0.179 C 
ATOM     11  C   UNL     1     -33.496  25.237   2.585  0.00  0.00    +0.062 C 
ATOM     12  C   UNL     1     -35.304  26.076   4.219  0.00  0.00    +0.207 C 
ATOM     13  C   UNL     1     -34.438  24.572   1.559  0.00  0.00    +0.124 C 
ATOM     14  C   UNL     1     -37.807  23.632   2.560  0.00  0.00    +0.038 C 
ATOM     15  C   UNL     1     -35.610  21.840   3.761  0.00  0.00    +0.064 C 
ATOM     16  C   UNL     1     -33.097  26.659   2.193  0.00  0.00    +0.005 C 
ENDBRANCH   1  13
BRANCH   1  17
ATOM     17  C   UNL     1     -33.329  22.904   0.078  0.00  0.00    -0.028 C 
ATOM     18  C   UNL     1     -32.237  22.405  -0.541  0.00  0.00    -0.026 C 
ATOM     19  C   UNL     1     -31.202  23.248  -1.238  0.00  0.00    +0.031 C 
BRANCH  18  20
ATOM     20  C   UNL     1     -32.034  20.953  -0.534  0.00  0.00    -0.001 C 
ATOM     21  C   UNL     1     -32.419  20.092   0.427  0.00  0.00    +0.037 C 
BRANCH  21  25
ATOM     22  O   UNL     1     -32.025  15.691   0.314  0.00  0.00    -0.289 OA
ATOM     23  O   UNL     1     -35.087  19.251  -0.079  0.00  0.00    -0.270 OA
ATOM     24  N   UNL     1     -35.242  16.903  -0.202  0.00  0.00    -0.294 N 
ATOM     25  C   UNL     1     -32.202  18.656   0.406  0.00  0.00    +0.141 C 
ATOM     26  C   UNL     1     -33.198  17.783   0.194  0.00  0.00    +0.123 C 
ATOM     27  C   UNL     1     -33.062  16.313   0.157  0.00  0.00    +0.200 C 
ATOM     28  C   UNL     1     -34.609  18.133  -0.039  0.00  0.00    +0.252 C 
ATOM     29  C   UNL     1     -34.415  15.708  -0.106  0.00  0.00    +0.160 C 
ATOM     30  H   UNL     1     -36.209  16.844  -0.374  0.00  0.00    +0.150 HD
BRANCH  25  31
ATOM     31  O   UNL     1     -30.902  18.238   0.617  0.00  0.00    -0.505 OA
ATOM     32  H   UNL     1     -30.193  18.675   0.188  0.00  0.00    +0.292 HD
ENDBRANCH  25  31
ENDBRANCH  21  25
ENDBRANCH  18  20
ENDBRANCH   1  17
TORSDOF 5
ENDMDL
MODEL 4
REMARK VINA RESULT:      -6.6      7.711     11.631
REMARK  Name = 54717225
REMARK  5 active torsions:
REMARK  status: ('A' for Active; 'I' for Inactive)
REMARK    1  A    between atoms: C_1  and  C_13
REMARK    2  A    between atoms: C_1  and  C_17
REMARK    3  A    between atoms: C_18  and  C_20
REMARK    4  A    between atoms: C_21  and  C_25
REMARK    5  A    between atoms: C_25  and  O_31
REMARK                            x       y       z     vdW  Elec       q    Type
REMARK                         _______ _______ _______ _____ _____    ______ ____
ROOT
ATOM      1  C   UNL     1     -33.514  26.453   2.010  0.00  0.00    +0.049 C 
ATOM      2  C   UNL     1     -32.688  25.577   1.065  0.00  0.00    +0.007 C 
ENDROOT
BRANCH   1  13
ATOM      3  O   UNL     1     -37.507  22.791   3.478  0.00  0.00    -0.343 OA
ATOM      4  O   UNL     1     -36.462  25.067   4.645  0.00  0.00    -0.327 OA
ATOM      5  O   UNL     1     -34.403  24.814   3.480  0.00  0.00    -0.334 OA
ATOM      6  O   UNL     1     -38.914  25.499   2.187  0.00  0.00    -0.291 OA
ATOM      7  C   UNL     1     -36.184  23.213   3.122  0.00  0.00    +0.171 C 
ATOM      8  C   UNL     1     -37.393  23.718   2.387  0.00  0.00    +0.204 C 
ATOM      9  C   UNL     1     -35.513  24.142   4.094  0.00  0.00    +0.213 C 
ATOM     10  C   UNL     1     -37.016  25.908   3.637  0.00  0.00    +0.179 C 
ATOM     11  C   UNL     1     -35.884  26.685   2.941  0.00  0.00    +0.062 C 
ATOM     12  C   UNL     1     -37.884  25.077   2.699  0.00  0.00    +0.207 C 
ATOM     13  C   UNL     1     -34.785  25.725   2.439  0.00  0.00    +0.124 C 
ATOM     14  C   UNL     1     -35.375  22.135   2.493  0.00  0.00    +0.038 C 
ATOM     15  C   UNL     1     -34.945  23.364   5.283  0.00  0.00    +0.064 C 
ATOM     16  C   UNL     1     -36.411  27.611   1.847  0.00  0.00    +0.005 C 
ENDBRANCH   1  13
BRANCH   1  17
ATOM     17  C   UNL     1     -32.689  26.819   3.224  0.00  0.00    -0.028 C 
ATOM     18  C   UNL     1     -32.510  28.031   3.792  0.00  0.00    -0.026 C 
ATOM     19  C   UNL     1     -33.152  29.299   3.295  0.00  0.00    +0.031 C 
BRANCH  18  20
ATOM     20  C   UNL     1     -31.643  28.127   4.971  0.00  0.00    -0.001 C 
ATOM     21  C   UNL     1     -30.313  28.333   4.975  0.00  0.00    +0.037 C 
BRANCH  21  25
ATOM     22  O   UNL     1     -27.694  28.851   8.498  0.00  0.00    -0.289 OA
ATOM     23  O   UNL     1     -29.139  30.878   4.497  0.00  0.00    -0.270 OA
ATOM     24  N   UNL     1     -27.651  31.479   6.223  0.00  0.00    -0.294 N 
ATOM     25  C   UNL     1     -29.480  28.423   6.162  0.00  0.00    +0.141 C 
ATOM     26  C   UNL     1     -28.697  29.484   6.410  0.00  0.00    +0.123 C 
ATOM     27  C   UNL     1     -27.823  29.653   7.588  0.00  0.00    +0.200 C 
ATOM     28  C   UNL     1     -28.565  30.672   5.551  0.00  0.00    +0.252 C 
ATOM     29  C   UNL     1     -27.117  30.977   7.482  0.00  0.00    +0.160 C 
ATOM     30  H   UNL     1     -27.376  32.352   5.862  0.00  0.00    +0.150 HD
BRANCH  25  31
ATOM     31  O   UNL     1     -29.542  27.348   7.027  0.00  0.00    -0.505 OA
ATOM     32  H   UNL     1     -30.075  26.607   6.816  0.00  0.00    +0.292 HD
ENDBRANCH  25  31
ENDBRANCH  21  25
ENDBRANCH  18  20
ENDBRANCH   1  17
TORSDOF 5
ENDMDL
MODEL 5
REMARK VINA RESULT:      -6.6      7.038      9.934
REMARK  Name = 54717225
REMARK  5 active torsions:
REMARK  status: ('A' for Active; 'I' for Inactive)
REMARK    1  A    between atoms: C_1  and  C_13
REMARK    2  A    between atoms: C_1  and  C_17
REMARK    3  A    between atoms: C_18  and  C_20
REMARK    4  A    between atoms: C_21  and  C_25
REMARK    5  A    between atoms: C_25  and  O_31
REMARK                            x       y       z     vdW  Elec       q    Type
REMARK                         _______ _______ _______ _____ _____    ______ ____
ROOT
ATOM      1  C   UNL     1     -36.639  27.637   1.364  0.00  0.00    +0.049 C 
ATOM      2  C   UNL     1     -36.226  27.357  -0.083  0.00  0.00    +0.007 C 
ENDROOT
BRANCH   1  13
ATOM      3  O   UNL     1     -36.414  22.868   4.317  0.00  0.00    -0.343 OA
ATOM      4  O   UNL     1     -37.925  25.174   4.499  0.00  0.00    -0.327 OA
ATOM      5  O   UNL     1     -36.256  26.451   3.385  0.00  0.00    -0.334 OA
ATOM      6  O   UNL     1     -38.969  22.742   2.210  0.00  0.00    -0.291 OA
ATOM      7  C   UNL     1     -35.905  24.083   3.750  0.00  0.00    +0.171 C 
ATOM      8  C   UNL     1     -36.778  23.152   2.957  0.00  0.00    +0.204 C 
ATOM      9  C   UNL     1     -36.520  25.351   4.270  0.00  0.00    +0.213 C 
ATOM     10  C   UNL     1     -38.619  24.885   3.289  0.00  0.00    +0.179 C 
ATOM     11  C   UNL     1     -38.402  26.033   2.288  0.00  0.00    +0.062 C 
ATOM     12  C   UNL     1     -38.201  23.511   2.777  0.00  0.00    +0.207 C 
ATOM     13  C   UNL     1     -36.898  26.330   2.108  0.00  0.00    +0.124 C 
ATOM     14  C   UNL     1     -34.437  24.048   3.512  0.00  0.00    +0.038 C 
ATOM     15  C   UNL     1     -35.917  25.731   5.624  0.00  0.00    +0.064 C 
ATOM     16  C   UNL     1     -39.124  25.786   0.965  0.00  0.00    +0.005 C 
ENDBRANCH   1  13
BRANCH   1  17
ATOM     17  C   UNL     1     -35.554  28.427   2.062  0.00  0.00    -0.028 C 
ATOM     18  C   UNL     1     -35.407  29.766   2.153  0.00  0.00    -0.026 C 
ATOM     19  C   UNL     1     -36.361  30.763   1.550  0.00  0.00    +0.031 C 
BRANCH  18  20
ATOM     20  C   UNL     1     -34.251  30.293   2.885  0.00  0.00    -0.001 C 
ATOM     21  C   UNL     1     -33.093  29.650   3.128  0.00  0.00    +0.037 C 
BRANCH  21  25
ATOM     22  O   UNL     1     -29.687  31.119   5.532  0.00  0.00    -0.289 OA
ATOM     23  O   UNL     1     -32.975  27.756   5.245  0.00  0.00    -0.270 OA
ATOM     24  N   UNL     1     -31.230  28.251   6.749  0.00  0.00    -0.294 N 
ATOM     25  C   UNL     1     -31.964  30.200   3.860  0.00  0.00    +0.141 C 
ATOM     26  C   UNL     1     -31.498  29.639   4.985  0.00  0.00    +0.123 C 
ATOM     27  C   UNL     1     -30.359  30.133   5.786  0.00  0.00    +0.200 C 
ATOM     28  C   UNL     1     -32.037  28.430   5.628  0.00  0.00    +0.252 C 
ATOM     29  C   UNL     1     -30.165  29.221   6.966  0.00  0.00    +0.160 C 
ATOM     30  H   UNL     1     -31.374  27.501   7.369  0.00  0.00    +0.150 HD
BRANCH  25  31
ATOM     31  O   UNL     1     -31.395  31.339   3.325  0.00  0.00    -0.505 OA
ATOM     32  H   UNL     1     -30.481  31.355   3.119  0.00  0.00    +0.292 HD
ENDBRANCH  25  31
ENDBRANCH  21  25
ENDBRANCH  18  20
ENDBRANCH   1  17
TORSDOF 5
ENDMDL
MODEL 6
REMARK VINA RESULT:      -6.5      4.915      9.920
REMARK  Name = 54717225
REMARK  5 active torsions:
REMARK  status: ('A' for Active; 'I' for Inactive)
REMARK    1  A    between atoms: C_1  and  C_13
REMARK    2  A    between atoms: C_1  and  C_17
REMARK    3  A    between atoms: C_18  and  C_20
REMARK    4  A    between atoms: C_21  and  C_25
REMARK    5  A    between atoms: C_25  and  O_31
REMARK                            x       y       z     vdW  Elec       q    Type
REMARK                         _______ _______ _______ _____ _____    ______ ____
ROOT
ATOM      1  C   UNL     1     -34.807  23.701   2.193  0.00  0.00    +0.049 C 
ATOM      2  C   UNL     1     -34.107  23.763   0.834  0.00  0.00    +0.007 C 
ENDROOT
BRANCH   1  13
ATOM      3  O   UNL     1     -33.158  28.678   4.200  0.00  0.00    -0.343 OA
ATOM      4  O   UNL     1     -35.541  27.281   4.242  0.00  0.00    -0.327 OA
ATOM      5  O   UNL     1     -34.957  26.070   2.280  0.00  0.00    -0.334 OA
ATOM      6  O   UNL     1     -33.140  26.442   6.645  0.00  0.00    -0.291 OA
ATOM      7  C   UNL     1     -33.405  27.689   3.191  0.00  0.00    +0.171 C 
ATOM      8  C   UNL     1     -32.764  27.330   4.502  0.00  0.00    +0.204 C 
ATOM      9  C   UNL     1     -34.846  27.314   2.987  0.00  0.00    +0.213 C 
ATOM     10  C   UNL     1     -35.009  26.283   5.109  0.00  0.00    +0.179 C 
ATOM     11  C   UNL     1     -35.111  24.907   4.427  0.00  0.00    +0.062 C 
ATOM     12  C   UNL     1     -33.598  26.676   5.533  0.00  0.00    +0.207 C 
ATOM     13  C   UNL     1     -34.475  24.940   3.022  0.00  0.00    +0.124 C 
ATOM     14  C   UNL     1     -32.532  27.840   1.996  0.00  0.00    +0.038 C 
ATOM     15  C   UNL     1     -35.564  28.362   2.136  0.00  0.00    +0.064 C 
ATOM     16  C   UNL     1     -34.557  23.788   5.307  0.00  0.00    +0.005 C 
ENDBRANCH   1  13
BRANCH   1  17
ATOM     17  C   UNL     1     -36.303  23.592   1.997  0.00  0.00    -0.028 C 
ATOM     18  C   UNL     1     -37.084  22.491   2.036  0.00  0.00    -0.026 C 
ATOM     19  C   UNL     1     -36.572  21.102   2.315  0.00  0.00    +0.031 C 
BRANCH  18  20
ATOM     20  C   UNL     1     -38.522  22.648   1.800  0.00  0.00    -0.001 C 
ATOM     21  C   UNL     1     -39.151  23.763   1.383  0.00  0.00    +0.037 C 
BRANCH  21  25
ATOM     22  O   UNL     1     -43.491  24.386   0.820  0.00  0.00    -0.289 OA
ATOM     23  O   UNL     1     -39.557  26.328   2.541  0.00  0.00    -0.270 OA
ATOM     24  N   UNL     1     -41.816  26.985   2.410  0.00  0.00    -0.294 N 
ATOM     25  C   UNL     1     -40.581  23.887   1.158  0.00  0.00    +0.141 C 
ATOM     26  C   UNL     1     -41.276  24.969   1.542  0.00  0.00    +0.123 C 
ATOM     27  C   UNL     1     -42.726  25.173   1.352  0.00  0.00    +0.200 C 
ATOM     28  C   UNL     1     -40.718  26.149   2.224  0.00  0.00    +0.252 C 
ATOM     29  C   UNL     1     -43.105  26.512   1.925  0.00  0.00    +0.160 C 
ATOM     30  H   UNL     1     -41.725  27.860   2.852  0.00  0.00    +0.150 HD
BRANCH  25  31
ATOM     31  O   UNL     1     -41.188  22.822   0.522  0.00  0.00    -0.505 OA
ATOM     32  H   UNL     1     -42.120  22.727   0.551  0.00  0.00    +0.292 HD
ENDBRANCH  25  31
ENDBRANCH  21  25
ENDBRANCH  18  20
ENDBRANCH   1  17
TORSDOF 5
ENDMDL
MODEL 7
REMARK VINA RESULT:      -6.5      2.876      9.723
REMARK  Name = 54717225
REMARK  5 active torsions:
REMARK  status: ('A' for Active; 'I' for Inactive)
REMARK    1  A    between atoms: C_1  and  C_13
REMARK    2  A    between atoms: C_1  and  C_17
REMARK    3  A    between atoms: C_18  and  C_20
REMARK    4  A    between atoms: C_21  and  C_25
REMARK    5  A    between atoms: C_25  and  O_31
REMARK                            x       y       z     vdW  Elec       q    Type
REMARK                         _______ _______ _______ _____ _____    ______ ____
ROOT
ATOM      1  C   UNL     1     -39.008  25.435   1.483  0.00  0.00    +0.049 C 
ATOM      2  C   UNL     1     -38.605  26.440   0.402  0.00  0.00    +0.007 C 
ENDROOT
BRANCH   1  13
ATOM      3  O   UNL     1     -34.053  24.355   3.889  0.00  0.00    -0.343 OA
ATOM      4  O   UNL     1     -36.677  23.828   4.572  0.00  0.00    -0.327 OA
ATOM      5  O   UNL     1     -37.465  25.660   3.275  0.00  0.00    -0.334 OA
ATOM      6  O   UNL     1     -35.130  21.644   2.319  0.00  0.00    -0.291 OA
ATOM      7  C   UNL     1     -35.093  25.179   3.347  0.00  0.00    +0.171 C 
ATOM      8  C   UNL     1     -34.650  23.920   2.658  0.00  0.00    +0.204 C 
ATOM      9  C   UNL     1     -36.399  25.151   4.090  0.00  0.00    +0.213 C 
ATOM     10  C   UNL     1     -36.832  22.904   3.500  0.00  0.00    +0.179 C 
ATOM     11  C   UNL     1     -37.978  23.370   2.584  0.00  0.00    +0.062 C 
ATOM     12  C   UNL     1     -35.494  22.714   2.792  0.00  0.00    +0.207 C 
ATOM     13  C   UNL     1     -37.769  24.833   2.142  0.00  0.00    +0.124 C 
ATOM     14  C   UNL     1     -34.598  26.482   2.826  0.00  0.00    +0.038 C 
ATOM     15  C   UNL     1     -36.337  26.046   5.330  0.00  0.00    +0.064 C 
ATOM     16  C   UNL     1     -38.199  22.418   1.410  0.00  0.00    +0.005 C 
ENDBRANCH   1  13
BRANCH   1  17
ATOM     17  C   UNL     1     -39.870  26.117   2.523  0.00  0.00    -0.028 C 
ATOM     18  C   UNL     1     -41.217  26.203   2.582  0.00  0.00    -0.026 C 
ATOM     19  C   UNL     1     -42.147  25.585   1.572  0.00  0.00    +0.031 C 
BRANCH  18  20
ATOM     20  C   UNL     1     -41.820  26.937   3.698  0.00  0.00    -0.001 C 
ATOM     21  C   UNL     1     -42.744  27.912   3.612  0.00  0.00    +0.037 C 
BRANCH  21  25
ATOM     22  O   UNL     1     -44.734  29.929   7.005  0.00  0.00    -0.289 OA
ATOM     23  O   UNL     1     -45.298  26.664   3.654  0.00  0.00    -0.270 OA
ATOM     24  N   UNL     1     -46.650  27.524   5.382  0.00  0.00    -0.294 N 
ATOM     25  C   UNL     1     -43.324  28.623   4.739  0.00  0.00    +0.141 C 
ATOM     26  C   UNL     1     -44.569  28.383   5.174  0.00  0.00    +0.123 C 
ATOM     27  C   UNL     1     -45.231  29.060   6.308  0.00  0.00    +0.200 C 
ATOM     28  C   UNL     1     -45.505  27.403   4.599  0.00  0.00    +0.252 C 
ATOM     29  C   UNL     1     -46.619  28.500   6.463  0.00  0.00    +0.160 C 
ATOM     30  H   UNL     1     -47.447  26.973   5.212  0.00  0.00    +0.150 HD
BRANCH  25  31
ATOM     31  O   UNL     1     -42.512  29.565   5.341  0.00  0.00    -0.505 OA
ATOM     32  H   UNL     1     -42.681  30.479   5.215  0.00  0.00    +0.292 HD
ENDBRANCH  25  31
ENDBRANCH  21  25
ENDBRANCH  18  20
ENDBRANCH   1  17
TORSDOF 5
ENDMDL
MODEL 8
REMARK VINA RESULT:      -6.5      8.060     11.646
REMARK  Name = 54717225
REMARK  5 active torsions:
REMARK  status: ('A' for Active; 'I' for Inactive)
REMARK    1  A    between atoms: C_1  and  C_13
REMARK    2  A    between atoms: C_1  and  C_17
REMARK    3  A    between atoms: C_18  and  C_20
REMARK    4  A    between atoms: C_21  and  C_25
REMARK    5  A    between atoms: C_25  and  O_31
REMARK                            x       y       z     vdW  Elec       q    Type
REMARK                         _______ _______ _______ _____ _____    ______ ____
ROOT
ATOM      1  C   UNL     1     -34.993  22.651   0.598  0.00  0.00    +0.049 C 
ATOM      2  C   UNL     1     -36.370  22.372  -0.009  0.00  0.00    +0.007 C 
ENDROOT
BRANCH   1  13
ATOM      3  O   UNL     1     -35.019  25.241   5.578  0.00  0.00    -0.343 OA
ATOM      4  O   UNL     1     -36.943  23.955   4.070  0.00  0.00    -0.327 OA
ATOM      5  O   UNL     1     -35.751  24.368   2.053  0.00  0.00    -0.334 OA
ATOM      6  O   UNL     1     -34.846  21.964   6.040  0.00  0.00    -0.291 OA
ATOM      7  C   UNL     1     -34.834  25.130   4.161  0.00  0.00    +0.171 C 
ATOM      8  C   UNL     1     -34.352  24.062   5.100  0.00  0.00    +0.204 C 
ATOM      9  C   UNL     1     -36.078  24.856   3.363  0.00  0.00    +0.213 C 
ATOM     10  C   UNL     1     -36.328  22.684   4.262  0.00  0.00    +0.179 C 
ATOM     11  C   UNL     1     -35.963  22.081   2.894  0.00  0.00    +0.062 C 
ATOM     12  C   UNL     1     -35.154  22.826   5.225  0.00  0.00    +0.207 C 
ATOM     13  C   UNL     1     -35.129  23.075   2.058  0.00  0.00    +0.124 C 
ATOM     14  C   UNL     1     -33.841  26.097   3.622  0.00  0.00    +0.038 C 
ATOM     15  C   UNL     1     -36.885  26.139   3.158  0.00  0.00    +0.064 C 
ATOM     16  C   UNL     1     -35.299  20.711   3.029  0.00  0.00    +0.005 C 
ENDBRANCH   1  13
BRANCH   1  17
ATOM     17  C   UNL     1     -34.126  21.415   0.494  0.00  0.00    -0.028 C 
ATOM     18  C   UNL     1     -32.878  21.297  -0.008  0.00  0.00    -0.026 C 
ATOM     19  C   UNL     1     -32.082  22.444  -0.571  0.00  0.00    +0.031 C 
BRANCH  18  20
ATOM     20  C   UNL     1     -32.249  19.972  -0.006  0.00  0.00    -0.001 C 
ATOM     21  C   UNL     1     -32.682  18.878   0.648  0.00  0.00    +0.037 C 
BRANCH  21  25
ATOM     22  O   UNL     1     -30.895  14.842   0.413  0.00  0.00    -0.289 OA
ATOM     23  O   UNL     1     -34.338  17.586  -1.268  0.00  0.00    -0.270 OA
ATOM     24  N   UNL     1     -33.651  15.363  -1.641  0.00  0.00    -0.294 N 
ATOM     25  C   UNL     1     -32.034  17.577   0.631  0.00  0.00    +0.141 C 
ATOM     26  C   UNL     1     -32.462  16.573  -0.148  0.00  0.00    +0.123 C 
ATOM     27  C   UNL     1     -31.862  15.226  -0.223  0.00  0.00    +0.200 C 
ATOM     28  C   UNL     1     -33.609  16.631  -1.069  0.00  0.00    +0.252 C 
ATOM     29  C   UNL     1     -32.641  14.404  -1.214  0.00  0.00    +0.160 C 
ATOM     30  H   UNL     1     -34.335  15.123  -2.307  0.00  0.00    +0.150 HD
BRANCH  25  31
ATOM     31  O   UNL     1     -30.945  17.434   1.469  0.00  0.00    -0.505 OA
ATOM     32  H   UNL     1     -30.527  16.601   1.556  0.00  0.00    +0.292 HD
ENDBRANCH  25  31
ENDBRANCH  21  25
ENDBRANCH  18  20
ENDBRANCH   1  17
TORSDOF 5
ENDMDL
MODEL 9
REMARK VINA RESULT:      -6.5      7.154     10.412
REMARK  Name = 54717225
REMARK  5 active torsions:
REMARK  status: ('A' for Active; 'I' for Inactive)
REMARK    1  A    between atoms: C_1  and  C_13
REMARK    2  A    between atoms: C_1  and  C_17
REMARK    3  A    between atoms: C_18  and  C_20
REMARK    4  A    between atoms: C_21  and  C_25
REMARK    5  A    between atoms: C_25  and  O_31
REMARK                            x       y       z     vdW  Elec       q    Type
REMARK                         _______ _______ _______ _____ _____    ______ ____
ROOT
ATOM      1  C   UNL     1     -32.446  26.993   3.500  0.00  0.00    +0.049 C 
ATOM      2  C   UNL     1     -31.691  26.481   2.271  0.00  0.00    +0.007 C 
ENDROOT
BRANCH   1  13
ATOM      3  O   UNL     1     -32.627  32.542   2.668  0.00  0.00    -0.343 OA
ATOM      4  O   UNL     1     -33.599  30.859   4.632  0.00  0.00    -0.327 OA
ATOM      5  O   UNL     1     -33.645  29.010   3.135  0.00  0.00    -0.334 OA
ATOM      6  O   UNL     1     -30.246  31.832   4.860  0.00  0.00    -0.291 OA
ATOM      7  C   UNL     1     -32.857  31.162   2.353  0.00  0.00    +0.171 C 
ATOM      8  C   UNL     1     -31.543  31.631   2.910  0.00  0.00    +0.204 C 
ATOM      9  C   UNL     1     -33.791  30.431   3.275  0.00  0.00    +0.213 C 
ATOM     10  C   UNL     1     -32.288  30.548   5.096  0.00  0.00    +0.179 C 
ATOM     11  C   UNL     1     -32.058  29.029   4.997  0.00  0.00    +0.062 C 
ATOM     12  C   UNL     1     -31.266  31.393   4.343  0.00  0.00    +0.207 C 
ATOM     13  C   UNL     1     -32.372  28.516   3.576  0.00  0.00    +0.124 C 
ATOM     14  C   UNL     1     -32.952  30.902   0.891  0.00  0.00    +0.038 C 
ATOM     15  C   UNL     1     -35.249  30.752   2.937  0.00  0.00    +0.064 C 
ATOM     16  C   UNL     1     -30.666  28.627   5.483  0.00  0.00    +0.005 C 
ENDBRANCH   1  13
BRANCH   1  17
ATOM     17  C   UNL     1     -33.889  26.544   3.440  0.00  0.00    -0.028 C 
ATOM     18  C   UNL     1     -34.685  26.119   4.445  0.00  0.00    -0.026 C 
ATOM     19  C   UNL     1     -34.252  26.026   5.884  0.00  0.00    +0.031 C 
BRANCH  18  20
ATOM     20  C   UNL     1     -36.061  25.725   4.124  0.00  0.00    -0.001 C 
ATOM     21  C   UNL     1     -36.500  25.215   2.959  0.00  0.00    +0.037 C 
BRANCH  21  25
ATOM     22  O   UNL     1     -40.592  23.798   2.075  0.00  0.00    -0.289 OA
ATOM     23  O   UNL     1     -36.145  22.401   2.764  0.00  0.00    -0.270 OA
ATOM     24  N   UNL     1     -38.177  21.307   2.287  0.00  0.00    -0.294 N 
ATOM     25  C   UNL     1     -37.872  24.834   2.671  0.00  0.00    +0.141 C 
ATOM     26  C   UNL     1     -38.238  23.558   2.486  0.00  0.00    +0.123 C 
ATOM     27  C   UNL     1     -39.607  23.088   2.190  0.00  0.00    +0.200 C 
ATOM     28  C   UNL     1     -37.342  22.391   2.542  0.00  0.00    +0.252 C 
ATOM     29  C   UNL     1     -39.586  21.590   2.054  0.00  0.00    +0.160 C 
ATOM     30  H   UNL     1     -37.829  20.386   2.265  0.00  0.00    +0.150 HD
BRANCH  25  31
ATOM     31  O   UNL     1     -38.784  25.870   2.600  0.00  0.00    -0.505 OA
ATOM     32  H   UNL     1     -39.639  25.718   2.248  0.00  0.00    +0.292 HD
ENDBRANCH  25  31
ENDBRANCH  21  25
ENDBRANCH  18  20
ENDBRANCH   1  17
TORSDOF 5
ENDMDL
