MODEL 1
REMARK VINA RESULT:      -6.5      0.000      0.000
REMARK  Name = 53427668
REMARK  11 active torsions:
REMARK  status: ('A' for Active; 'I' for Inactive)
REMARK    1  A    between atoms: C_3  and  C_27
REMARK    2  A    between atoms: C_4  and  C_8
REMARK    3  A    between atoms: C_5  and  C_13
REMARK    4  A    between atoms: C_13  and  O_16
REMARK    5  A    between atoms: O_16  and  C_17
REMARK    6  A    between atoms: C_20  and  N_26
REMARK    7  A    between atoms: C_27  and  C_28
REMARK    8  A    between atoms: C_29  and  C_30
REMARK    9  A    between atoms: C_30  and  C_31
REMARK   10  A    between atoms: C_31  and  C_33
REMARK   11  A    between atoms: C_33  and  O_34
REMARK                            x       y       z     vdW  Elec       q    Type
REMARK                         _______ _______ _______ _____ _____    ______ ____
ROOT
ATOM      1  O   UNL     1     -35.097  23.057   3.052  0.00  0.00    -0.326 OA
ATOM      2  O   UNL     1     -37.203  23.814   3.837  0.00  0.00    -0.328 OA
ATOM      3  C   UNL     1     -37.129  22.309   1.931  0.00  0.00    +0.066 C 
ATOM      4  C   UNL     1     -35.630  22.655   1.782  0.00  0.00    +0.144 C 
ATOM      5  C   UNL     1     -35.833  24.147   3.608  0.00  0.00    +0.273 C 
ATOM      6  C   UNL     1     -37.853  23.477   2.614  0.00  0.00    +0.148 C 
ENDROOT
BRANCH   4   8
ATOM      7  N   UNL     1     -33.252  20.622  -0.362  0.00  0.00    -0.243 NA
ATOM      8  C   UNL     1     -34.790  21.498   1.285  0.00  0.00    +0.024 C 
ATOM      9  C   UNL     1     -34.765  20.285   1.963  0.00  0.00    +0.001 C 
ATOM     10  C   UNL     1     -34.022  21.614   0.137  0.00  0.00    +0.097 C 
ATOM     11  C   UNL     1     -33.986  19.240   1.481  0.00  0.00    +0.020 C 
ATOM     12  C   UNL     1     -33.254  19.457   0.326  0.00  0.00    +0.099 C 
ENDBRANCH   4   8
BRANCH   5  13
ATOM     13  C   UNL     1     -35.208  24.494   4.947  0.00  0.00    +0.185 C 
ATOM     14  C   UNL     1     -35.931  25.672   5.607  0.00  0.00    +0.049 C 
ATOM     15  C   UNL     1     -35.207  23.282   5.880  0.00  0.00    +0.049 C 
BRANCH  13  16
ATOM     16  O   UNL     1     -33.842  24.868   4.738  0.00  0.00    -0.478 OA
BRANCH  16  17
ATOM     17  C   UNL     1     -33.627  26.041   4.071  0.00  0.00    +0.140 C 
ATOM     18  C   UNL     1     -33.026  27.116   4.725  0.00  0.00    +0.061 C 
ATOM     19  C   UNL     1     -34.010  26.164   2.735  0.00  0.00    +0.037 C 
ATOM     20  C   UNL     1     -32.809  28.314   4.044  0.00  0.00    +0.142 C 
ATOM     21  C   UNL     1     -33.793  27.361   2.053  0.00  0.00    +0.000 C 
ATOM     22  C   UNL     1     -33.192  28.436   2.708  0.00  0.00    +0.001 C 
ATOM     23  C   UNL     1     -32.973  29.705   1.949  0.00  0.00    +0.033 C 
BRANCH  20  26
ATOM     24  O   UNL     1     -32.922  30.288   5.231  0.00  0.00    -0.126 OA
ATOM     25  O   UNL     1     -30.945  29.429   4.818  0.00  0.00    -0.126 OA
ATOM     26  N   UNL     1     -32.195  29.398   4.731  0.00  0.00    +0.057 N 
ENDBRANCH  20  26
ENDBRANCH  16  17
ENDBRANCH  13  16
ENDBRANCH   5  13
BRANCH   3  27
ATOM     27  C   UNL     1     -37.796  21.980   0.597  0.00  0.00    +0.031 C 
BRANCH  27  28
ATOM     28  C   UNL     1     -38.142  20.523   0.504  0.00  0.00    -0.031 C 
ATOM     29  C   UNL     1     -37.699  19.712  -0.468  0.00  0.00    -0.030 C 
BRANCH  29  30
ATOM     30  C   UNL     1     -38.055  18.257  -0.566  0.00  0.00    +0.037 C 
BRANCH  30  31
ATOM     31  C   UNL     1     -36.823  17.370  -0.389  0.00  0.00    +0.114 C 
BRANCH  31  33
ATOM     32  O   UNL     1     -38.289  15.458  -0.042  0.00  0.00    -0.250 OA
ATOM     33  C   UNL     1     -37.190  15.982   0.081  0.00  0.00    +0.314 C 
BRANCH  33  34
ATOM     34  O   UNL     1     -36.135  15.364   0.673  0.00  0.00    -0.480 OA
ATOM     35  H   UNL     1     -36.161  14.440   0.832  0.00  0.00    +0.295 HD
ENDBRANCH  33  34
ENDBRANCH  31  33
ENDBRANCH  30  31
ENDBRANCH  29  30
ENDBRANCH  27  28
ENDBRANCH   3  27
TORSDOF 11
ENDMDL
MODEL 2
REMARK VINA RESULT:      -6.4      2.930      9.311
REMARK  Name = 53427668
REMARK  11 active torsions:
REMARK  status: ('A' for Active; 'I' for Inactive)
REMARK    1  A    between atoms: C_3  and  C_27
REMARK    2  A    between atoms: C_4  and  C_8
REMARK    3  A    between atoms: C_5  and  C_13
REMARK    4  A    between atoms: C_13  and  O_16
REMARK    5  A    between atoms: O_16  and  C_17
REMARK    6  A    between atoms: C_20  and  N_26
REMARK    7  A    between atoms: C_27  and  C_28
REMARK    8  A    between atoms: C_29  and  C_30
REMARK    9  A    between atoms: C_30  and  C_31
REMARK   10  A    between atoms: C_31  and  C_33
REMARK   11  A    between atoms: C_33  and  O_34
REMARK                            x       y       z     vdW  Elec       q    Type
REMARK                         _______ _______ _______ _____ _____    ______ ____
ROOT
ATOM      1  O   UNL     1     -36.219  22.346   1.832  0.00  0.00    -0.326 OA
ATOM      2  O   UNL     1     -35.225  20.602   3.095  0.00  0.00    -0.328 OA
ATOM      3  C   UNL     1     -36.135  22.528   4.263  0.00  0.00    +0.066 C 
ATOM      4  C   UNL     1     -36.128  23.284   2.915  0.00  0.00    +0.144 C 
ATOM      5  C   UNL     1     -35.177  21.372   1.894  0.00  0.00    +0.273 C 
ATOM      6  C   UNL     1     -35.057  21.437   4.238  0.00  0.00    +0.148 C 
ENDROOT
BRANCH   4   8
ATOM      7  N   UNL     1     -38.014  26.524   2.341  0.00  0.00    -0.243 NA
ATOM      8  C   UNL     1     -37.273  24.262   2.764  0.00  0.00    +0.024 C 
ATOM      9  C   UNL     1     -38.593  23.848   2.900  0.00  0.00    +0.001 C 
ATOM     10  C   UNL     1     -37.039  25.600   2.487  0.00  0.00    +0.097 C 
ATOM     11  C   UNL     1     -39.624  24.769   2.758  0.00  0.00    +0.020 C 
ATOM     12  C   UNL     1     -39.285  26.084   2.481  0.00  0.00    +0.099 C 
ENDBRANCH   4   8
BRANCH   5  13
ATOM     13  C   UNL     1     -35.361  20.422   0.723  0.00  0.00    +0.185 C 
ATOM     14  C   UNL     1     -36.810  20.426   0.230  0.00  0.00    +0.049 C 
ATOM     15  C   UNL     1     -34.410  20.774  -0.422  0.00  0.00    +0.049 C 
BRANCH  13  16
ATOM     16  O   UNL     1     -35.036  19.094   1.149  0.00  0.00    -0.478 OA
BRANCH  16  17
ATOM     17  C   UNL     1     -34.029  18.467   0.470  0.00  0.00    +0.140 C 
ATOM     18  C   UNL     1     -32.706  18.630   0.878  0.00  0.00    +0.061 C 
ATOM     19  C   UNL     1     -34.326  17.664  -0.631  0.00  0.00    +0.037 C 
ATOM     20  C   UNL     1     -31.678  17.991   0.184  0.00  0.00    +0.142 C 
ATOM     21  C   UNL     1     -33.299  17.024  -1.325  0.00  0.00    +0.000 C 
ATOM     22  C   UNL     1     -31.975  17.188  -0.917  0.00  0.00    +0.001 C 
ATOM     23  C   UNL     1     -30.898  16.488  -1.682  0.00  0.00    +0.033 C 
BRANCH  20  26
ATOM     24  O   UNL     1     -29.876  17.409   1.499  0.00  0.00    -0.126 OA
ATOM     25  O   UNL     1     -29.651  19.088   0.104  0.00  0.00    -0.126 OA
ATOM     26  N   UNL     1     -30.335  18.172   0.618  0.00  0.00    +0.057 N 
ENDBRANCH  20  26
ENDBRANCH  16  17
ENDBRANCH  13  16
ENDBRANCH   5  13
BRANCH   3  27
ATOM     27  C   UNL     1     -35.927  23.453   5.461  0.00  0.00    +0.031 C 
BRANCH  27  28
ATOM     28  C   UNL     1     -34.762  24.372   5.245  0.00  0.00    -0.031 C 
ATOM     29  C   UNL     1     -34.772  25.676   5.561  0.00  0.00    -0.030 C 
BRANCH  29  30
ATOM     30  C   UNL     1     -33.609  26.598   5.336  0.00  0.00    +0.037 C 
BRANCH  30  31
ATOM     31  C   UNL     1     -32.936  26.976   6.654  0.00  0.00    +0.114 C 
BRANCH  31  33
ATOM     32  O   UNL     1     -32.225  29.253   6.165  0.00  0.00    -0.250 OA
ATOM     33  C   UNL     1     -31.945  28.104   6.479  0.00  0.00    +0.314 C 
BRANCH  33  34
ATOM     34  O   UNL     1     -30.673  27.687   6.713  0.00  0.00    -0.480 OA
ATOM     35  H   UNL     1     -30.082  28.232   7.194  0.00  0.00    +0.295 HD
ENDBRANCH  33  34
ENDBRANCH  31  33
ENDBRANCH  30  31
ENDBRANCH  29  30
ENDBRANCH  27  28
ENDBRANCH   3  27
TORSDOF 11
ENDMDL
MODEL 3
REMARK VINA RESULT:      -6.4      1.462      1.686
REMARK  Name = 53427668
REMARK  11 active torsions:
REMARK  status: ('A' for Active; 'I' for Inactive)
REMARK    1  A    between atoms: C_3  and  C_27
REMARK    2  A    between atoms: C_4  and  C_8
REMARK    3  A    between atoms: C_5  and  C_13
REMARK    4  A    between atoms: C_13  and  O_16
REMARK    5  A    between atoms: O_16  and  C_17
REMARK    6  A    between atoms: C_20  and  N_26
REMARK    7  A    between atoms: C_27  and  C_28
REMARK    8  A    between atoms: C_29  and  C_30
REMARK    9  A    between atoms: C_30  and  C_31
REMARK   10  A    between atoms: C_31  and  C_33
REMARK   11  A    between atoms: C_33  and  O_34
REMARK                            x       y       z     vdW  Elec       q    Type
REMARK                         _______ _______ _______ _____ _____    ______ ____
ROOT
ATOM      1  O   UNL     1     -35.140  22.791   3.064  0.00  0.00    -0.326 OA
ATOM      2  O   UNL     1     -37.320  23.397   3.774  0.00  0.00    -0.328 OA
ATOM      3  C   UNL     1     -37.071  21.987   1.812  0.00  0.00    +0.066 C 
ATOM      4  C   UNL     1     -35.589  22.419   1.753  0.00  0.00    +0.144 C 
ATOM      5  C   UNL     1     -35.962  23.814   3.628  0.00  0.00    +0.273 C 
ATOM      6  C   UNL     1     -37.891  23.082   2.506  0.00  0.00    +0.148 C 
ENDROOT
BRANCH   4   8
ATOM      7  N   UNL     1     -33.042  20.595  -0.386  0.00  0.00    -0.243 NA
ATOM      8  C   UNL     1     -34.663  21.332   1.250  0.00  0.00    +0.024 C 
ATOM      9  C   UNL     1     -34.563  20.112   1.908  0.00  0.00    +0.001 C 
ATOM     10  C   UNL     1     -33.887  21.522   0.117  0.00  0.00    +0.097 C 
ATOM     11  C   UNL     1     -33.705  19.133   1.422  0.00  0.00    +0.020 C 
ATOM     12  C   UNL     1     -32.973  19.420   0.282  0.00  0.00    +0.099 C 
ENDBRANCH   4   8
BRANCH   5  13
ATOM     13  C   UNL     1     -35.422  24.133   5.011  0.00  0.00    +0.185 C 
ATOM     14  C   UNL     1     -36.084  25.387   5.588  0.00  0.00    +0.049 C 
ATOM     15  C   UNL     1     -35.614  22.948   5.959  0.00  0.00    +0.049 C 
BRANCH  13  16
ATOM     16  O   UNL     1     -34.014  24.374   4.915  0.00  0.00    -0.478 OA
BRANCH  16  17
ATOM     17  C   UNL     1     -33.636  25.642   4.575  0.00  0.00    +0.140 C 
ATOM     18  C   UNL     1     -33.604  26.026   3.235  0.00  0.00    +0.061 C 
ATOM     19  C   UNL     1     -33.283  26.554   5.570  0.00  0.00    +0.037 C 
ATOM     20  C   UNL     1     -33.216  27.321   2.889  0.00  0.00    +0.142 C 
ATOM     21  C   UNL     1     -32.896  27.849   5.225  0.00  0.00    +0.000 C 
ATOM     22  C   UNL     1     -32.863  28.232   3.884  0.00  0.00    +0.001 C 
ATOM     23  C   UNL     1     -32.444  29.627   3.547  0.00  0.00    +0.033 C 
BRANCH  20  26
ATOM     24  O   UNL     1     -34.220  28.184   1.001  0.00  0.00    -0.126 OA
ATOM     25  O   UNL     1     -32.136  27.510   0.860  0.00  0.00    -0.126 OA
ATOM     26  N   UNL     1     -33.190  27.689   1.515  0.00  0.00    +0.057 N 
ENDBRANCH  20  26
ENDBRANCH  16  17
ENDBRANCH  13  16
ENDBRANCH   5  13
BRANCH   3  27
ATOM     27  C   UNL     1     -37.654  21.683   0.432  0.00  0.00    +0.031 C 
BRANCH  27  28
ATOM     28  C   UNL     1     -37.979  20.226   0.285  0.00  0.00    -0.031 C 
ATOM     29  C   UNL     1     -37.185  19.344  -0.339  0.00  0.00    -0.030 C 
BRANCH  29  30
ATOM     30  C   UNL     1     -37.516  17.888  -0.495  0.00  0.00    +0.037 C 
BRANCH  30  31
ATOM     31  C   UNL     1     -36.257  17.053  -0.723  0.00  0.00    +0.114 C 
BRANCH  31  33
ATOM     32  O   UNL     1     -37.385  14.900  -0.854  0.00  0.00    -0.250 OA
ATOM     33  C   UNL     1     -36.483  15.593  -0.405  0.00  0.00    +0.314 C 
BRANCH  33  34
ATOM     34  O   UNL     1     -35.547  15.124   0.461  0.00  0.00    -0.480 OA
ATOM     35  H   UNL     1     -35.455  14.201   0.598  0.00  0.00    +0.295 HD
ENDBRANCH  33  34
ENDBRANCH  31  33
ENDBRANCH  30  31
ENDBRANCH  29  30
ENDBRANCH  27  28
ENDBRANCH   3  27
TORSDOF 11
ENDMDL
MODEL 4
REMARK VINA RESULT:      -6.4      3.101      9.940
REMARK  Name = 53427668
REMARK  11 active torsions:
REMARK  status: ('A' for Active; 'I' for Inactive)
REMARK    1  A    between atoms: C_3  and  C_27
REMARK    2  A    between atoms: C_4  and  C_8
REMARK    3  A    between atoms: C_5  and  C_13
REMARK    4  A    between atoms: C_13  and  O_16
REMARK    5  A    between atoms: O_16  and  C_17
REMARK    6  A    between atoms: C_20  and  N_26
REMARK    7  A    between atoms: C_27  and  C_28
REMARK    8  A    between atoms: C_29  and  C_30
REMARK    9  A    between atoms: C_30  and  C_31
REMARK   10  A    between atoms: C_31  and  C_33
REMARK   11  A    between atoms: C_33  and  O_34
REMARK                            x       y       z     vdW  Elec       q    Type
REMARK                         _______ _______ _______ _____ _____    ______ ____
ROOT
ATOM      1  O   UNL     1     -33.688  27.568   4.136  0.00  0.00    -0.326 OA
ATOM      2  O   UNL     1     -33.425  26.827   6.374  0.00  0.00    -0.328 OA
ATOM      3  C   UNL     1     -32.350  28.894   5.684  0.00  0.00    +0.066 C 
ATOM      4  C   UNL     1     -32.564  28.455   4.218  0.00  0.00    +0.144 C 
ATOM      5  C   UNL     1     -33.532  26.443   5.002  0.00  0.00    +0.273 C 
ATOM      6  C   UNL     1     -32.279  27.650   6.580  0.00  0.00    +0.148 C 
ENDROOT
BRANCH   4   8
ATOM      7  N   UNL     1     -32.400  30.677   1.148  0.00  0.00    -0.243 NA
ATOM      8  C   UNL     1     -32.828  29.609   3.275  0.00  0.00    +0.024 C 
ATOM      9  C   UNL     1     -33.698  30.636   3.623  0.00  0.00    +0.001 C 
ATOM     10  C   UNL     1     -32.210  29.677   2.036  0.00  0.00    +0.097 C 
ATOM     11  C   UNL     1     -33.920  31.684   2.737  0.00  0.00    +0.020 C 
ATOM     12  C   UNL     1     -33.253  31.658   1.523  0.00  0.00    +0.099 C 
ENDBRANCH   4   8
BRANCH   5  13
ATOM     13  C   UNL     1     -34.768  25.572   4.858  0.00  0.00    +0.185 C 
ATOM     14  C   UNL     1     -34.476  24.126   5.268  0.00  0.00    +0.049 C 
ATOM     15  C   UNL     1     -35.930  26.132   5.679  0.00  0.00    +0.049 C 
BRANCH  13  16
ATOM     16  O   UNL     1     -35.179  25.575   3.487  0.00  0.00    -0.478 OA
BRANCH  16  17
ATOM     17  C   UNL     1     -36.095  24.627   3.125  0.00  0.00    +0.140 C 
ATOM     18  C   UNL     1     -35.668  23.370   2.698  0.00  0.00    +0.061 C 
ATOM     19  C   UNL     1     -37.458  24.918   3.183  0.00  0.00    +0.037 C 
ATOM     20  C   UNL     1     -36.604  22.404   2.328  0.00  0.00    +0.142 C 
ATOM     21  C   UNL     1     -38.395  23.953   2.813  0.00  0.00    +0.000 C 
ATOM     22  C   UNL     1     -37.967  22.696   2.386  0.00  0.00    +0.001 C 
ATOM     23  C   UNL     1     -38.996  21.683   1.997  0.00  0.00    +0.033 C 
BRANCH  20  26
ATOM     24  O   UNL     1     -35.923  20.242   2.752  0.00  0.00    -0.126 OA
ATOM     25  O   UNL     1     -35.979  20.930   0.668  0.00  0.00    -0.126 OA
ATOM     26  N   UNL     1     -36.145  21.129   1.895  0.00  0.00    +0.057 N 
ENDBRANCH  20  26
ENDBRANCH  16  17
ENDBRANCH  13  16
ENDBRANCH   5  13
BRANCH   3  27
ATOM     27  C   UNL     1     -31.100  29.752   5.869  0.00  0.00    +0.031 C 
BRANCH  27  28
ATOM     28  C   UNL     1     -29.935  28.929   6.334  0.00  0.00    -0.031 C 
ATOM     29  C   UNL     1     -29.038  29.350   7.238  0.00  0.00    -0.030 C 
BRANCH  29  30
ATOM     30  C   UNL     1     -27.867  28.530   7.695  0.00  0.00    +0.037 C 
BRANCH  30  31
ATOM     31  C   UNL     1     -27.019  28.064   6.513  0.00  0.00    +0.114 C 
BRANCH  31  33
ATOM     32  O   UNL     1     -27.570  26.254   4.981  0.00  0.00    -0.250 OA
ATOM     33  C   UNL     1     -27.334  26.640   6.118  0.00  0.00    +0.314 C 
BRANCH  33  34
ATOM     34  O   UNL     1     -27.328  25.814   7.196  0.00  0.00    -0.480 OA
ATOM     35  H   UNL     1     -26.731  25.968   7.903  0.00  0.00    +0.295 HD
ENDBRANCH  33  34
ENDBRANCH  31  33
ENDBRANCH  30  31
ENDBRANCH  29  30
ENDBRANCH  27  28
ENDBRANCH   3  27
TORSDOF 11
ENDMDL
MODEL 5
REMARK VINA RESULT:      -6.3      2.960      5.866
REMARK  Name = 53427668
REMARK  11 active torsions:
REMARK  status: ('A' for Active; 'I' for Inactive)
REMARK    1  A    between atoms: C_3  and  C_27
REMARK    2  A    between atoms: C_4  and  C_8
REMARK    3  A    between atoms: C_5  and  C_13
REMARK    4  A    between atoms: C_13  and  O_16
REMARK    5  A    between atoms: O_16  and  C_17
REMARK    6  A    between atoms: C_20  and  N_26
REMARK    7  A    between atoms: C_27  and  C_28
REMARK    8  A    between atoms: C_29  and  C_30
REMARK    9  A    between atoms: C_30  and  C_31
REMARK   10  A    between atoms: C_31  and  C_33
REMARK   11  A    between atoms: C_33  and  O_34
REMARK                            x       y       z     vdW  Elec       q    Type
REMARK                         _______ _______ _______ _____ _____    ______ ____
ROOT
ATOM      1  O   UNL     1     -33.991  28.356   3.505  0.00  0.00    -0.326 OA
ATOM      2  O   UNL     1     -33.264  29.227   1.423  0.00  0.00    -0.328 OA
ATOM      3  C   UNL     1     -33.576  26.828   1.651  0.00  0.00    +0.066 C 
ATOM      4  C   UNL     1     -33.564  27.024   3.183  0.00  0.00    +0.144 C 
ATOM      5  C   UNL     1     -33.191  29.337   2.845  0.00  0.00    +0.273 C 
ATOM      6  C   UNL     1     -32.778  27.959   0.988  0.00  0.00    +0.148 C 
ENDROOT
BRANCH   4   8
ATOM      7  N   UNL     1     -36.718  25.318   4.419  0.00  0.00    -0.243 NA
ATOM      8  C   UNL     1     -34.473  26.066   3.922  0.00  0.00    +0.024 C 
ATOM      9  C   UNL     1     -33.954  25.084   4.758  0.00  0.00    +0.001 C 
ATOM     10  C   UNL     1     -35.851  26.140   3.788  0.00  0.00    +0.097 C 
ATOM     11  C   UNL     1     -34.814  24.219   5.425  0.00  0.00    +0.020 C 
ATOM     12  C   UNL     1     -36.175  24.376   5.224  0.00  0.00    +0.099 C 
ENDBRANCH   4   8
BRANCH   5  13
ATOM     13  C   UNL     1     -33.722  30.706   3.233  0.00  0.00    +0.185 C 
ATOM     14  C   UNL     1     -33.194  31.791   2.291  0.00  0.00    +0.049 C 
ATOM     15  C   UNL     1     -35.251  30.715   3.249  0.00  0.00    +0.049 C 
BRANCH  13  16
ATOM     16  O   UNL     1     -33.283  31.013   4.561  0.00  0.00    -0.478 OA
BRANCH  16  17
ATOM     17  C   UNL     1     -31.934  30.980   4.779  0.00  0.00    +0.140 C 
ATOM     18  C   UNL     1     -31.380  29.978   5.575  0.00  0.00    +0.061 C 
ATOM     19  C   UNL     1     -31.111  31.948   4.204  0.00  0.00    +0.037 C 
ATOM     20  C   UNL     1     -30.004  29.945   5.799  0.00  0.00    +0.142 C 
ATOM     21  C   UNL     1     -29.735  31.916   4.426  0.00  0.00    +0.000 C 
ATOM     22  C   UNL     1     -29.181  30.914   5.224  0.00  0.00    +0.001 C 
ATOM     23  C   UNL     1     -27.702  30.908   5.442  0.00  0.00    +0.033 C 
BRANCH  20  26
ATOM     24  O   UNL     1     -29.063  29.202   7.768  0.00  0.00    -0.126 OA
ATOM     25  O   UNL     1     -29.399  27.749   6.158  0.00  0.00    -0.126 OA
ATOM     26  N   UNL     1     -29.461  28.915   6.615  0.00  0.00    +0.057 N 
ENDBRANCH  20  26
ENDBRANCH  16  17
ENDBRANCH  13  16
ENDBRANCH   5  13
BRANCH   3  27
ATOM     27  C   UNL     1     -33.025  25.469   1.224  0.00  0.00    +0.031 C 
BRANCH  27  28
ATOM     28  C   UNL     1     -34.125  24.536   0.817  0.00  0.00    -0.031 C 
ATOM     29  C   UNL     1     -34.463  23.435   1.505  0.00  0.00    -0.030 C 
BRANCH  29  30
ATOM     30  C   UNL     1     -35.558  22.495   1.092  0.00  0.00    +0.037 C 
BRANCH  30  31
ATOM     31  C   UNL     1     -35.170  21.041   1.354  0.00  0.00    +0.114 C 
BRANCH  31  33
ATOM     32  O   UNL     1     -35.278  20.805   3.775  0.00  0.00    -0.250 OA
ATOM     33  C   UNL     1     -35.724  20.537   2.667  0.00  0.00    +0.314 C 
BRANCH  33  34
ATOM     34  O   UNL     1     -36.799  19.730   2.475  0.00  0.00    -0.480 OA
ATOM     35  H   UNL     1     -37.086  19.159   3.161  0.00  0.00    +0.295 HD
ENDBRANCH  33  34
ENDBRANCH  31  33
ENDBRANCH  30  31
ENDBRANCH  29  30
ENDBRANCH  27  28
ENDBRANCH   3  27
TORSDOF 11
ENDMDL
MODEL 6
REMARK VINA RESULT:      -6.3      3.077      5.513
REMARK  Name = 53427668
REMARK  11 active torsions:
REMARK  status: ('A' for Active; 'I' for Inactive)
REMARK    1  A    between atoms: C_3  and  C_27
REMARK    2  A    between atoms: C_4  and  C_8
REMARK    3  A    between atoms: C_5  and  C_13
REMARK    4  A    between atoms: C_13  and  O_16
REMARK    5  A    between atoms: O_16  and  C_17
REMARK    6  A    between atoms: C_20  and  N_26
REMARK    7  A    between atoms: C_27  and  C_28
REMARK    8  A    between atoms: C_29  and  C_30
REMARK    9  A    between atoms: C_30  and  C_31
REMARK   10  A    between atoms: C_31  and  C_33
REMARK   11  A    between atoms: C_33  and  O_34
REMARK                            x       y       z     vdW  Elec       q    Type
REMARK                         _______ _______ _______ _____ _____    ______ ____
ROOT
ATOM      1  O   UNL     1     -34.296  27.373   3.476  0.00  0.00    -0.326 OA
ATOM      2  O   UNL     1     -32.952  27.208   5.423  0.00  0.00    -0.328 OA
ATOM      3  C   UNL     1     -34.506  25.413   4.911  0.00  0.00    +0.066 C 
ATOM      4  C   UNL     1     -35.221  26.379   3.939  0.00  0.00    +0.144 C 
ATOM      5  C   UNL     1     -33.694  28.075   4.564  0.00  0.00    +0.273 C 
ATOM      6  C   UNL     1     -33.803  26.225   6.006  0.00  0.00    +0.148 C 
ENDROOT
BRANCH   4   8
ATOM      7  N   UNL     1     -37.740  25.063   1.426  0.00  0.00    -0.243 NA
ATOM      8  C   UNL     1     -35.795  25.692   2.718  0.00  0.00    +0.024 C 
ATOM      9  C   UNL     1     -34.968  25.073   1.787  0.00  0.00    +0.001 C 
ATOM     10  C   UNL     1     -37.162  25.659   2.493  0.00  0.00    +0.097 C 
ATOM     11  C   UNL     1     -35.524  24.449   0.677  0.00  0.00    +0.020 C 
ATOM     12  C   UNL     1     -36.903  24.472   0.543  0.00  0.00    +0.099 C 
ENDBRANCH   4   8
BRANCH   5  13
ATOM     13  C   UNL     1     -32.728  29.092   3.982  0.00  0.00    +0.185 C 
ATOM     14  C   UNL     1     -31.317  28.901   4.546  0.00  0.00    +0.049 C 
ATOM     15  C   UNL     1     -32.704  29.011   2.455  0.00  0.00    +0.049 C 
BRANCH  13  16
ATOM     16  O   UNL     1     -33.174  30.407   4.329  0.00  0.00    -0.478 OA
BRANCH  16  17
ATOM     17  C   UNL     1     -33.730  31.146   3.322  0.00  0.00    +0.140 C 
ATOM     18  C   UNL     1     -35.069  30.965   2.980  0.00  0.00    +0.061 C 
ATOM     19  C   UNL     1     -32.956  32.083   2.636  0.00  0.00    +0.037 C 
ATOM     20  C   UNL     1     -35.635  31.718   1.951  0.00  0.00    +0.142 C 
ATOM     21  C   UNL     1     -33.521  32.837   1.608  0.00  0.00    +0.000 C 
ATOM     22  C   UNL     1     -34.861  32.655   1.266  0.00  0.00    +0.001 C 
ATOM     23  C   UNL     1     -35.436  33.479   0.159  0.00  0.00    +0.033 C 
BRANCH  20  26
ATOM     24  O   UNL     1     -37.312  30.544   0.889  0.00  0.00    -0.126 OA
ATOM     25  O   UNL     1     -37.860  32.313   2.067  0.00  0.00    -0.126 OA
ATOM     26  N   UNL     1     -37.004  31.515   1.619  0.00  0.00    +0.057 N 
ENDBRANCH  20  26
ENDBRANCH  16  17
ENDBRANCH  13  16
ENDBRANCH   5  13
BRANCH   3  27
ATOM     27  C   UNL     1     -35.456  24.392   5.534  0.00  0.00    +0.031 C 
BRANCH  27  28
ATOM     28  C   UNL     1     -35.118  22.996   5.102  0.00  0.00    -0.031 C 
ATOM     29  C   UNL     1     -35.658  22.395   4.031  0.00  0.00    -0.030 C 
BRANCH  29  30
ATOM     30  C   UNL     1     -35.327  20.995   3.604  0.00  0.00    +0.037 C 
BRANCH  30  31
ATOM     31  C   UNL     1     -35.361  20.854   2.084  0.00  0.00    +0.114 C 
BRANCH  31  33
ATOM     32  O   UNL     1     -37.676  21.082   1.367  0.00  0.00    -0.250 OA
ATOM     33  C   UNL     1     -36.705  20.372   1.591  0.00  0.00    +0.314 C 
BRANCH  33  34
ATOM     34  O   UNL     1     -36.716  19.024   1.420  0.00  0.00    -0.480 OA
ATOM     35  H   UNL     1     -37.271  18.637   0.771  0.00  0.00    +0.295 HD
ENDBRANCH  33  34
ENDBRANCH  31  33
ENDBRANCH  30  31
ENDBRANCH  29  30
ENDBRANCH  27  28
ENDBRANCH   3  27
TORSDOF 11
ENDMDL
MODEL 7
REMARK VINA RESULT:      -6.3      3.094      5.765
REMARK  Name = 53427668
REMARK  11 active torsions:
REMARK  status: ('A' for Active; 'I' for Inactive)
REMARK    1  A    between atoms: C_3  and  C_27
REMARK    2  A    between atoms: C_4  and  C_8
REMARK    3  A    between atoms: C_5  and  C_13
REMARK    4  A    between atoms: C_13  and  O_16
REMARK    5  A    between atoms: O_16  and  C_17
REMARK    6  A    between atoms: C_20  and  N_26
REMARK    7  A    between atoms: C_27  and  C_28
REMARK    8  A    between atoms: C_29  and  C_30
REMARK    9  A    between atoms: C_30  and  C_31
REMARK   10  A    between atoms: C_31  and  C_33
REMARK   11  A    between atoms: C_33  and  O_34
REMARK                            x       y       z     vdW  Elec       q    Type
REMARK                         _______ _______ _______ _____ _____    ______ ____
ROOT
ATOM      1  O   UNL     1     -32.732  27.600   4.159  0.00  0.00    -0.326 OA
ATOM      2  O   UNL     1     -32.125  27.281   6.429  0.00  0.00    -0.328 OA
ATOM      3  C   UNL     1     -33.943  25.964   5.501  0.00  0.00    +0.066 C 
ATOM      4  C   UNL     1     -34.012  26.975   4.335  0.00  0.00    +0.144 C 
ATOM      5  C   UNL     1     -32.282  28.220   5.364  0.00  0.00    +0.273 C 
ATOM      6  C   UNL     1     -33.369  26.660   6.742  0.00  0.00    +0.148 C 
ENDROOT
BRANCH   4   8
ATOM      7  N   UNL     1     -35.985  26.152   1.201  0.00  0.00    -0.243 NA
ATOM      8  C   UNL     1     -34.394  26.347   3.012  0.00  0.00    +0.024 C 
ATOM      9  C   UNL     1     -33.564  25.420   2.391  0.00  0.00    +0.001 C 
ATOM     10  C   UNL     1     -35.583  26.676   2.381  0.00  0.00    +0.097 C 
ATOM     11  C   UNL     1     -33.942  24.859   1.177  0.00  0.00    +0.020 C 
ATOM     12  C   UNL     1     -35.151  25.254   0.628  0.00  0.00    +0.099 C 
ENDBRANCH   4   8
BRANCH   5  13
ATOM     13  C   UNL     1     -30.924  28.840   5.087  0.00  0.00    +0.185 C 
ATOM     14  C   UNL     1     -29.850  28.256   6.009  0.00  0.00    +0.049 C 
ATOM     15  C   UNL     1     -30.525  28.652   3.622  0.00  0.00    +0.049 C 
BRANCH  13  16
ATOM     16  O   UNL     1     -31.000  30.249   5.326  0.00  0.00    -0.478 OA
BRANCH  16  17
ATOM     17  C   UNL     1     -31.657  30.991   4.385  0.00  0.00    +0.140 C 
ATOM     18  C   UNL     1     -32.901  30.575   3.911  0.00  0.00    +0.061 C 
ATOM     19  C   UNL     1     -31.083  32.165   3.897  0.00  0.00    +0.037 C 
ATOM     20  C   UNL     1     -33.570  31.332   2.949  0.00  0.00    +0.142 C 
ATOM     21  C   UNL     1     -31.751  32.923   2.936  0.00  0.00    +0.000 C 
ATOM     22  C   UNL     1     -32.995  32.506   2.462  0.00  0.00    +0.001 C 
ATOM     23  C   UNL     1     -33.687  33.341   1.432  0.00  0.00    +0.033 C 
BRANCH  20  26
ATOM     24  O   UNL     1     -34.880  30.064   1.537  0.00  0.00    -0.126 OA
ATOM     25  O   UNL     1     -35.875  31.332   3.026  0.00  0.00    -0.126 OA
ATOM     26  N   UNL     1     -34.838  30.888   2.480  0.00  0.00    +0.057 N 
ENDBRANCH  20  26
ENDBRANCH  16  17
ENDBRANCH  13  16
ENDBRANCH   5  13
BRANCH   3  27
ATOM     27  C   UNL     1     -35.299  25.339   5.823  0.00  0.00    +0.031 C 
BRANCH  27  28
ATOM     28  C   UNL     1     -35.481  24.031   5.112  0.00  0.00    -0.031 C 
ATOM     29  C   UNL     1     -35.039  22.857   5.587  0.00  0.00    -0.030 C 
BRANCH  29  30
ATOM     30  C   UNL     1     -35.211  21.549   4.871  0.00  0.00    +0.037 C 
BRANCH  30  31
ATOM     31  C   UNL     1     -35.589  21.763   3.406  0.00  0.00    +0.114 C 
BRANCH  31  33
ATOM     32  O   UNL     1     -34.564  20.042   2.022  0.00  0.00    -0.250 OA
ATOM     33  C   UNL     1     -35.542  20.475   2.617  0.00  0.00    +0.314 C 
BRANCH  33  34
ATOM     34  O   UNL     1     -36.739  19.834   2.642  0.00  0.00    -0.480 OA
ATOM     35  H   UNL     1     -37.303  19.920   3.386  0.00  0.00    +0.295 HD
ENDBRANCH  33  34
ENDBRANCH  31  33
ENDBRANCH  30  31
ENDBRANCH  29  30
ENDBRANCH  27  28
ENDBRANCH   3  27
TORSDOF 11
ENDMDL
MODEL 8
REMARK VINA RESULT:      -6.3      5.242     10.409
REMARK  Name = 53427668
REMARK  11 active torsions:
REMARK  status: ('A' for Active; 'I' for Inactive)
REMARK    1  A    between atoms: C_3  and  C_27
REMARK    2  A    between atoms: C_4  and  C_8
REMARK    3  A    between atoms: C_5  and  C_13
REMARK    4  A    between atoms: C_13  and  O_16
REMARK    5  A    between atoms: O_16  and  C_17
REMARK    6  A    between atoms: C_20  and  N_26
REMARK    7  A    between atoms: C_27  and  C_28
REMARK    8  A    between atoms: C_29  and  C_30
REMARK    9  A    between atoms: C_30  and  C_31
REMARK   10  A    between atoms: C_31  and  C_33
REMARK   11  A    between atoms: C_33  and  O_34
REMARK                            x       y       z     vdW  Elec       q    Type
REMARK                         _______ _______ _______ _____ _____    ______ ____
ROOT
ATOM      1  O   UNL     1     -35.386  28.795   1.371  0.00  0.00    -0.326 OA
ATOM      2  O   UNL     1     -35.112  30.110   3.326  0.00  0.00    -0.328 OA
ATOM      3  C   UNL     1     -36.624  30.884   1.590  0.00  0.00    +0.066 C 
ATOM      4  C   UNL     1     -35.946  29.885   0.625  0.00  0.00    +0.144 C 
ATOM      5  C   UNL     1     -34.478  29.257   2.372  0.00  0.00    +0.273 C 
ATOM      6  C   UNL     1     -35.633  31.277   2.693  0.00  0.00    +0.148 C 
ENDROOT
BRANCH   4   8
ATOM      7  N   UNL     1     -37.521  29.027  -2.717  0.00  0.00    -0.243 NA
ATOM      8  C   UNL     1     -36.892  29.295  -0.398  0.00  0.00    +0.024 C 
ATOM      9  C   UNL     1     -37.970  28.507  -0.008  0.00  0.00    +0.001 C 
ATOM     10  C   UNL     1     -36.714  29.523  -1.753  0.00  0.00    +0.097 C 
ATOM     11  C   UNL     1     -38.823  27.980  -0.969  0.00  0.00    +0.020 C 
ATOM     12  C   UNL     1     -38.558  28.266  -2.299  0.00  0.00    +0.099 C 
ENDBRANCH   4   8
BRANCH   5  13
ATOM     13  C   UNL     1     -33.948  28.043   3.114  0.00  0.00    +0.185 C 
ATOM     14  C   UNL     1     -33.762  26.854   2.167  0.00  0.00    +0.049 C 
ATOM     15  C   UNL     1     -32.632  28.366   3.823  0.00  0.00    +0.049 C 
BRANCH  13  16
ATOM     16  O   UNL     1     -34.891  27.668   4.123  0.00  0.00    -0.478 OA
BRANCH  16  17
ATOM     17  C   UNL     1     -35.028  26.329   4.361  0.00  0.00    +0.140 C 
ATOM     18  C   UNL     1     -35.946  25.580   3.626  0.00  0.00    +0.061 C 
ATOM     19  C   UNL     1     -34.249  25.712   5.340  0.00  0.00    +0.037 C 
ATOM     20  C   UNL     1     -36.086  24.213   3.870  0.00  0.00    +0.142 C 
ATOM     21  C   UNL     1     -34.388  24.346   5.585  0.00  0.00    +0.000 C 
ATOM     22  C   UNL     1     -35.307  23.597   4.850  0.00  0.00    +0.001 C 
ATOM     23  C   UNL     1     -35.432  22.135   5.136  0.00  0.00    +0.033 C 
BRANCH  20  26
ATOM     24  O   UNL     1     -38.251  23.617   3.345  0.00  0.00    -0.126 OA
ATOM     25  O   UNL     1     -36.610  22.688   2.221  0.00  0.00    -0.126 OA
ATOM     26  N   UNL     1     -37.029  23.469   3.108  0.00  0.00    +0.057 N 
ENDBRANCH  20  26
ENDBRANCH  16  17
ENDBRANCH  13  16
ENDBRANCH   5  13
BRANCH   3  27
ATOM     27  C   UNL     1     -37.147  32.131   0.878  0.00  0.00    +0.031 C 
BRANCH  27  28
ATOM     28  C   UNL     1     -37.918  33.013   1.815  0.00  0.00    -0.031 C 
ATOM     29  C   UNL     1     -38.034  34.340   1.664  0.00  0.00    -0.030 C 
BRANCH  29  30
ATOM     30  C   UNL     1     -38.797  35.224   2.608  0.00  0.00    +0.037 C 
BRANCH  30  31
ATOM     31  C   UNL     1     -40.105  35.706   1.983  0.00  0.00    +0.114 C 
BRANCH  31  33
ATOM     32  O   UNL     1     -42.024  34.282   2.448  0.00  0.00    -0.250 OA
ATOM     33  C   UNL     1     -41.311  35.227   2.757  0.00  0.00    +0.314 C 
BRANCH  33  34
ATOM     34  O   UNL     1     -41.522  35.984   3.865  0.00  0.00    -0.480 OA
ATOM     35  H   UNL     1     -40.896  35.980   4.563  0.00  0.00    +0.295 HD
ENDBRANCH  33  34
ENDBRANCH  31  33
ENDBRANCH  30  31
ENDBRANCH  29  30
ENDBRANCH  27  28
ENDBRANCH   3  27
TORSDOF 11
ENDMDL
MODEL 9
REMARK VINA RESULT:      -6.3      3.204      5.221
REMARK  Name = 53427668
REMARK  11 active torsions:
REMARK  status: ('A' for Active; 'I' for Inactive)
REMARK    1  A    between atoms: C_3  and  C_27
REMARK    2  A    between atoms: C_4  and  C_8
REMARK    3  A    between atoms: C_5  and  C_13
REMARK    4  A    between atoms: C_13  and  O_16
REMARK    5  A    between atoms: O_16  and  C_17
REMARK    6  A    between atoms: C_20  and  N_26
REMARK    7  A    between atoms: C_27  and  C_28
REMARK    8  A    between atoms: C_29  and  C_30
REMARK    9  A    between atoms: C_30  and  C_31
REMARK   10  A    between atoms: C_31  and  C_33
REMARK   11  A    between atoms: C_33  and  O_34
REMARK                            x       y       z     vdW  Elec       q    Type
REMARK                         _______ _______ _______ _____ _____    ______ ____
ROOT
ATOM      1  O   UNL     1     -34.004  26.970   3.293  0.00  0.00    -0.326 OA
ATOM      2  O   UNL     1     -33.085  26.713   5.464  0.00  0.00    -0.328 OA
ATOM      3  C   UNL     1     -34.511  24.959   4.575  0.00  0.00    +0.066 C 
ATOM      4  C   UNL     1     -35.008  25.971   3.518  0.00  0.00    +0.144 C 
ATOM      5  C   UNL     1     -33.632  27.622   4.508  0.00  0.00    +0.273 C 
ATOM      6  C   UNL     1     -34.042  25.719   5.822  0.00  0.00    +0.148 C 
ENDROOT
BRANCH   4   8
ATOM      7  N   UNL     1     -36.958  24.835   0.469  0.00  0.00    -0.243 NA
ATOM      8  C   UNL     1     -35.325  25.339   2.179  0.00  0.00    +0.024 C 
ATOM      9  C   UNL     1     -34.340  24.699   1.436  0.00  0.00    +0.001 C 
ATOM     10  C   UNL     1     -36.608  25.379   1.655  0.00  0.00    +0.097 C 
ATOM     11  C   UNL     1     -34.661  24.127   0.211  0.00  0.00    +0.020 C 
ATOM     12  C   UNL     1     -35.972  24.221  -0.225  0.00  0.00    +0.099 C 
ENDBRANCH   4   8
BRANCH   5  13
ATOM     13  C   UNL     1     -32.563  28.648   4.176  0.00  0.00    +0.185 C 
ATOM     14  C   UNL     1     -31.228  27.971   3.852  0.00  0.00    +0.049 C 
ATOM     15  C   UNL     1     -33.002  29.538   3.012  0.00  0.00    +0.049 C 
BRANCH  13  16
ATOM     16  O   UNL     1     -32.370  29.500   5.310  0.00  0.00    -0.478 OA
BRANCH  16  17
ATOM     17  C   UNL     1     -31.087  29.905   5.555  0.00  0.00    +0.140 C 
ATOM     18  C   UNL     1     -30.351  29.312   6.580  0.00  0.00    +0.061 C 
ATOM     19  C   UNL     1     -30.515  30.913   4.778  0.00  0.00    +0.037 C 
ATOM     20  C   UNL     1     -29.043  29.727   6.830  0.00  0.00    +0.142 C 
ATOM     21  C   UNL     1     -29.207  31.328   5.027  0.00  0.00    +0.000 C 
ATOM     22  C   UNL     1     -28.471  30.735   6.053  0.00  0.00    +0.001 C 
ATOM     23  C   UNL     1     -27.071  31.203   6.294  0.00  0.00    +0.033 C 
BRANCH  20  26
ATOM     24  O   UNL     1     -28.265  29.672   9.000  0.00  0.00    -0.126 OA
ATOM     25  O   UNL     1     -27.736  28.017   7.658  0.00  0.00    -0.126 OA
ATOM     26  N   UNL     1     -28.311  29.108   7.881  0.00  0.00    +0.057 N 
ENDBRANCH  20  26
ENDBRANCH  16  17
ENDBRANCH  13  16
ENDBRANCH   5  13
BRANCH   3  27
ATOM     27  C   UNL     1     -35.573  23.927   4.951  0.00  0.00    +0.031 C 
BRANCH  27  28
ATOM     28  C   UNL     1     -35.323  22.614   4.271  0.00  0.00    -0.031 C 
ATOM     29  C   UNL     1     -36.127  22.096   3.330  0.00  0.00    -0.030 C 
BRANCH  29  30
ATOM     30  C   UNL     1     -35.883  20.777   2.657  0.00  0.00    +0.037 C 
BRANCH  30  31
ATOM     31  C   UNL     1     -34.551  20.773   1.909  0.00  0.00    +0.114 C 
BRANCH  31  33
ATOM     32  O   UNL     1     -33.061  18.887   1.521  0.00  0.00    -0.250 OA
ATOM     33  C   UNL     1     -34.174  19.387   1.436  0.00  0.00    +0.314 C 
BRANCH  33  34
ATOM     34  O   UNL     1     -35.238  18.743   0.891  0.00  0.00    -0.480 OA
ATOM     35  H   UNL     1     -35.195  17.821   0.728  0.00  0.00    +0.295 HD
ENDBRANCH  33  34
ENDBRANCH  31  33
ENDBRANCH  30  31
ENDBRANCH  29  30
ENDBRANCH  27  28
ENDBRANCH   3  27
TORSDOF 11
ENDMDL
