MODEL 1
REMARK VINA RESULT:      -6.6      0.000      0.000
REMARK  Name = 5353962
REMARK  9 active torsions:
REMARK  status: ('A' for Active; 'I' for Inactive)
REMARK    1  A    between atoms: C_1  and  C_21
REMARK    2  A    between atoms: C_2  and  O_7
REMARK    3  A    between atoms: C_3  and  C_9
REMARK    4  A    between atoms: C_5  and  O_18
REMARK    5  A    between atoms: C_10  and  C_13
REMARK    6  A    between atoms: C_10  and  C_17
REMARK    7  A    between atoms: O_18  and  C_19
REMARK    8  A    between atoms: C_21  and  S_22
REMARK    9  A    between atoms: S_22  and  C_23
REMARK                            x       y       z     vdW  Elec       q    Type
REMARK                         _______ _______ _______ _____ _____    ______ ____
ROOT
ATOM      1  C   UNL     1     -36.071  22.392   3.164  0.00  0.00    +0.026 C 
ATOM      2  C   UNL     1     -37.379  22.838   2.979  0.00  0.00    +0.164 C 
ATOM      3  C   UNL     1     -35.635  24.274   4.616  0.00  0.00    +0.004 C 
ATOM      4  C   UNL     1     -35.198  23.110   3.983  0.00  0.00    -0.000 C 
ATOM      5  C   UNL     1     -37.816  24.001   3.613  0.00  0.00    +0.172 C 
ATOM      6  C   UNL     1     -36.944  24.719   4.431  0.00  0.00    +0.040 C 
ENDROOT
BRANCH   2   7
ATOM      7  O   UNL     1     -38.235  22.140   2.180  0.00  0.00    -0.503 OA
ATOM      8  H   UNL     1     -38.689  22.576   1.486  0.00  0.00    +0.292 HD
ENDBRANCH   2   7
BRANCH   3   9
ATOM      9  C   UNL     1     -34.725  25.023   5.470  0.00  0.00    +0.015 C 
ATOM     10  C   UNL     1     -34.046  26.145   5.126  0.00  0.00    +0.121 C 
BRANCH  10  13
ATOM     11  O   UNL     1     -33.690  26.227   2.753  0.00  0.00    -0.270 OA
ATOM     12  N   UNL     1     -35.158  27.729   3.656  0.00  0.00    -0.325 N 
ATOM     13  C   UNL     1     -34.265  26.683   3.739  0.00  0.00    +0.252 C 
ATOM     14  H   UNL     1     -35.356  28.137   2.783  0.00  0.00    +0.145 HD
ATOM     15  H   UNL     1     -35.596  28.066   4.470  0.00  0.00    +0.145 HD
ENDBRANCH  10  13
BRANCH  10  17
ATOM     16  N   UNL     1     -32.465  27.331   6.797  0.00  0.00    -0.191 NA
ATOM     17  C   UNL     1     -33.176  26.800   6.049  0.00  0.00    +0.105 C 
ENDBRANCH  10  17
ENDBRANCH   3   9
BRANCH   5  18
ATOM     18  O   UNL     1     -39.092  24.447   3.441  0.00  0.00    -0.472 OA
BRANCH  18  19
ATOM     19  C   UNL     1     -39.257  25.721   2.822  0.00  0.00    +0.206 C 
ATOM     20  C   UNL     1     -40.675  26.200   3.046  0.00  0.00    +0.051 C 
ENDBRANCH  18  19
ENDBRANCH   5  18
BRANCH   1  21
ATOM     21  C   UNL     1     -35.586  21.150   2.495  0.00  0.00    +0.092 C 
BRANCH  21  22
ATOM     22  S   UNL     1     -34.906  21.472   0.839  0.00  0.00    -0.109 S 
BRANCH  22  23
ATOM     23  C   UNL     1     -33.546  20.311   0.784  0.00  0.00    +0.026 C 
ATOM     24  C   UNL     1     -33.651  19.092   1.446  0.00  0.00    +0.006 C 
ATOM     25  C   UNL     1     -32.390  20.634   0.080  0.00  0.00    +0.006 C 
ATOM     26  C   UNL     1     -32.591  18.186   1.403  0.00  0.00    +0.001 C 
ATOM     27  C   UNL     1     -31.329  19.729   0.037  0.00  0.00    +0.001 C 
ATOM     28  C   UNL     1     -31.430  18.505   0.699  0.00  0.00    +0.000 C 
ENDBRANCH  22  23
ENDBRANCH  21  22
ENDBRANCH   1  21
TORSDOF 9
ENDMDL
MODEL 2
REMARK VINA RESULT:      -6.2      1.562      1.756
REMARK  Name = 5353962
REMARK  9 active torsions:
REMARK  status: ('A' for Active; 'I' for Inactive)
REMARK    1  A    between atoms: C_1  and  C_21
REMARK    2  A    between atoms: C_2  and  O_7
REMARK    3  A    between atoms: C_3  and  C_9
REMARK    4  A    between atoms: C_5  and  O_18
REMARK    5  A    between atoms: C_10  and  C_13
REMARK    6  A    between atoms: C_10  and  C_17
REMARK    7  A    between atoms: O_18  and  C_19
REMARK    8  A    between atoms: C_21  and  S_22
REMARK    9  A    between atoms: S_22  and  C_23
REMARK                            x       y       z     vdW  Elec       q    Type
REMARK                         _______ _______ _______ _____ _____    ______ ____
ROOT
ATOM      1  C   UNL     1     -36.048  22.002   2.590  0.00  0.00    +0.026 C 
ATOM      2  C   UNL     1     -37.438  22.101   2.531  0.00  0.00    +0.164 C 
ATOM      3  C   UNL     1     -35.880  24.412   2.645  0.00  0.00    +0.004 C 
ATOM      4  C   UNL     1     -35.269  23.158   2.647  0.00  0.00    -0.000 C 
ATOM      5  C   UNL     1     -38.049  23.355   2.530  0.00  0.00    +0.172 C 
ATOM      6  C   UNL     1     -37.270  24.510   2.587  0.00  0.00    +0.040 C 
ENDROOT
BRANCH   2   7
ATOM      7  O   UNL     1     -38.204  20.974   2.475  0.00  0.00    -0.503 OA
ATOM      8  H   UNL     1     -38.286  20.426   3.231  0.00  0.00    +0.292 HD
ENDBRANCH   2   7
BRANCH   3   9
ATOM      9  C   UNL     1     -35.067  25.617   2.706  0.00  0.00    +0.015 C 
ATOM     10  C   UNL     1     -34.773  26.330   3.822  0.00  0.00    +0.121 C 
BRANCH  10  13
ATOM     11  O   UNL     1     -34.775  24.919   5.765  0.00  0.00    -0.270 OA
ATOM     12  N   UNL     1     -36.476  26.432   5.552  0.00  0.00    -0.325 N 
ATOM     13  C   UNL     1     -35.318  25.818   5.126  0.00  0.00    +0.252 C 
ATOM     14  H   UNL     1     -36.897  26.154   6.398  0.00  0.00    +0.145 HD
ATOM     15  H   UNL     1     -36.881  27.147   5.011  0.00  0.00    +0.145 HD
ENDBRANCH  10  13
BRANCH  10  17
ATOM     16  N   UNL     1     -33.305  28.459   3.715  0.00  0.00    -0.191 NA
ATOM     17  C   UNL     1     -33.962  27.502   3.764  0.00  0.00    +0.105 C 
ENDBRANCH  10  17
ENDBRANCH   3   9
BRANCH   5  18
ATOM     18  O   UNL     1     -39.406  23.465   2.473  0.00  0.00    -0.472 OA
BRANCH  18  19
ATOM     19  C   UNL     1     -39.971  24.723   2.835  0.00  0.00    +0.206 C 
ATOM     20  C   UNL     1     -40.864  25.205   1.711  0.00  0.00    +0.051 C 
ENDBRANCH  18  19
ENDBRANCH   5  18
BRANCH   1  21
ATOM     21  C   UNL     1     -35.377  20.669   2.592  0.00  0.00    +0.092 C 
BRANCH  21  22
ATOM     22  S   UNL     1     -35.357  19.898   0.945  0.00  0.00    -0.109 S 
BRANCH  22  23
ATOM     23  C   UNL     1     -33.619  19.519   0.755  0.00  0.00    +0.026 C 
ATOM     24  C   UNL     1     -33.108  18.337   1.282  0.00  0.00    +0.006 C 
ATOM     25  C   UNL     1     -32.788  20.407   0.079  0.00  0.00    +0.006 C 
ATOM     26  C   UNL     1     -31.753  18.041   1.133  0.00  0.00    +0.001 C 
ATOM     27  C   UNL     1     -31.433  20.112  -0.069  0.00  0.00    +0.001 C 
ATOM     28  C   UNL     1     -30.915  18.929   0.458  0.00  0.00    +0.000 C 
ENDBRANCH  22  23
ENDBRANCH  21  22
ENDBRANCH   1  21
TORSDOF 9
ENDMDL
MODEL 3
REMARK VINA RESULT:      -6.0      3.423      7.137
REMARK  Name = 5353962
REMARK  9 active torsions:
REMARK  status: ('A' for Active; 'I' for Inactive)
REMARK    1  A    between atoms: C_1  and  C_21
REMARK    2  A    between atoms: C_2  and  O_7
REMARK    3  A    between atoms: C_3  and  C_9
REMARK    4  A    between atoms: C_5  and  O_18
REMARK    5  A    between atoms: C_10  and  C_13
REMARK    6  A    between atoms: C_10  and  C_17
REMARK    7  A    between atoms: O_18  and  C_19
REMARK    8  A    between atoms: C_21  and  S_22
REMARK    9  A    between atoms: S_22  and  C_23
REMARK                            x       y       z     vdW  Elec       q    Type
REMARK                         _______ _______ _______ _____ _____    ______ ____
ROOT
ATOM      1  C   UNL     1     -35.055  25.111   3.931  0.00  0.00    +0.026 C 
ATOM      2  C   UNL     1     -36.407  25.247   4.244  0.00  0.00    +0.164 C 
ATOM      3  C   UNL     1     -35.609  23.464   2.252  0.00  0.00    +0.004 C 
ATOM      4  C   UNL     1     -34.655  24.219   2.935  0.00  0.00    -0.000 C 
ATOM      5  C   UNL     1     -37.361  24.493   3.560  0.00  0.00    +0.172 C 
ATOM      6  C   UNL     1     -36.962  23.601   2.564  0.00  0.00    +0.040 C 
ENDROOT
BRANCH   2   7
ATOM      7  O   UNL     1     -36.802  26.117   5.216  0.00  0.00    -0.503 OA
ATOM      8  H   UNL     1     -37.303  26.876   4.990  0.00  0.00    +0.292 HD
ENDBRANCH   2   7
BRANCH   3   9
ATOM      9  C   UNL     1     -35.192  22.534   1.213  0.00  0.00    +0.015 C 
ATOM     10  C   UNL     1     -35.221  21.181   1.292  0.00  0.00    +0.121 C 
BRANCH  10  13
ATOM     11  O   UNL     1     -35.150  20.651   3.633  0.00  0.00    -0.270 OA
ATOM     12  N   UNL     1     -36.963  19.933   2.439  0.00  0.00    -0.325 N 
ATOM     13  C   UNL     1     -35.752  20.578   2.563  0.00  0.00    +0.252 C 
ATOM     14  H   UNL     1     -37.378  19.512   3.225  0.00  0.00    +0.145 HD
ATOM     15  H   UNL     1     -37.412  19.895   1.564  0.00  0.00    +0.145 HD
ENDBRANCH  10  13
BRANCH  10  17
ATOM     16  N   UNL     1     -34.436  19.699  -0.680  0.00  0.00    -0.191 NA
ATOM     17  C   UNL     1     -34.787  20.363   0.206  0.00  0.00    +0.105 C 
ENDBRANCH  10  17
ENDBRANCH   3   9
BRANCH   5  18
ATOM     18  O   UNL     1     -38.684  24.617   3.856  0.00  0.00    -0.472 OA
BRANCH  18  19
ATOM     19  C   UNL     1     -39.613  24.323   2.814  0.00  0.00    +0.206 C 
ATOM     20  C   UNL     1     -40.272  25.608   2.362  0.00  0.00    +0.051 C 
ENDBRANCH  18  19
ENDBRANCH   5  18
BRANCH   1  21
ATOM     21  C   UNL     1     -34.020  25.910   4.652  0.00  0.00    +0.092 C 
BRANCH  21  22
ATOM     22  S   UNL     1     -33.037  26.948   3.528  0.00  0.00    -0.109 S 
BRANCH  22  23
ATOM     23  C   UNL     1     -32.534  28.272   4.621  0.00  0.00    +0.026 C 
ATOM     24  C   UNL     1     -32.197  27.988   5.941  0.00  0.00    +0.006 C 
ATOM     25  C   UNL     1     -32.482  29.578   4.145  0.00  0.00    +0.006 C 
ATOM     26  C   UNL     1     -31.805  29.020   6.793  0.00  0.00    +0.001 C 
ATOM     27  C   UNL     1     -32.091  30.611   4.997  0.00  0.00    +0.001 C 
ATOM     28  C   UNL     1     -31.752  30.332   6.321  0.00  0.00    +0.000 C 
ENDBRANCH  22  23
ENDBRANCH  21  22
ENDBRANCH   1  21
TORSDOF 9
ENDMDL
MODEL 4
REMARK VINA RESULT:      -5.9      2.342      2.968
REMARK  Name = 5353962
REMARK  9 active torsions:
REMARK  status: ('A' for Active; 'I' for Inactive)
REMARK    1  A    between atoms: C_1  and  C_21
REMARK    2  A    between atoms: C_2  and  O_7
REMARK    3  A    between atoms: C_3  and  C_9
REMARK    4  A    between atoms: C_5  and  O_18
REMARK    5  A    between atoms: C_10  and  C_13
REMARK    6  A    between atoms: C_10  and  C_17
REMARK    7  A    between atoms: O_18  and  C_19
REMARK    8  A    between atoms: C_21  and  S_22
REMARK    9  A    between atoms: S_22  and  C_23
REMARK                            x       y       z     vdW  Elec       q    Type
REMARK                         _______ _______ _______ _____ _____    ______ ____
ROOT
ATOM      1  C   UNL     1     -35.285  22.930   1.680  0.00  0.00    +0.026 C 
ATOM      2  C   UNL     1     -35.952  22.651   2.873  0.00  0.00    +0.164 C 
ATOM      3  C   UNL     1     -34.099  24.734   2.765  0.00  0.00    +0.004 C 
ATOM      4  C   UNL     1     -34.358  23.971   1.626  0.00  0.00    -0.000 C 
ATOM      5  C   UNL     1     -35.692  23.413   4.012  0.00  0.00    +0.172 C 
ATOM      6  C   UNL     1     -34.766  24.454   3.958  0.00  0.00    +0.040 C 
ENDROOT
BRANCH   2   7
ATOM      7  O   UNL     1     -36.858  21.634   2.930  0.00  0.00    -0.503 OA
ATOM      8  H   UNL     1     -36.630  20.785   2.605  0.00  0.00    +0.292 HD
ENDBRANCH   2   7
BRANCH   3   9
ATOM      9  C   UNL     1     -33.132  25.820   2.709  0.00  0.00    +0.015 C 
ATOM     10  C   UNL     1     -33.414  27.133   2.522  0.00  0.00    +0.121 C 
BRANCH  10  13
ATOM     11  O   UNL     1     -35.466  27.432   1.311  0.00  0.00    -0.270 OA
ATOM     12  N   UNL     1     -35.463  27.958   3.535  0.00  0.00    -0.325 N 
ATOM     13  C   UNL     1     -34.862  27.512   2.379  0.00  0.00    +0.252 C 
ATOM     14  H   UNL     1     -36.410  28.225   3.526  0.00  0.00    +0.145 HD
ATOM     15  H   UNL     1     -34.944  28.009   4.371  0.00  0.00    +0.145 HD
ENDBRANCH  10  13
BRANCH  10  17
ATOM     16  N   UNL     1     -31.543  28.921   2.455  0.00  0.00    -0.191 NA
ATOM     17  C   UNL     1     -32.381  28.117   2.484  0.00  0.00    +0.105 C 
ENDBRANCH  10  17
ENDBRANCH   3   9
BRANCH   5  18
ATOM     18  O   UNL     1     -36.336  23.151   5.183  0.00  0.00    -0.472 OA
BRANCH  18  19
ATOM     19  C   UNL     1     -35.539  22.707   6.279  0.00  0.00    +0.206 C 
ATOM     20  C   UNL     1     -34.978  21.338   5.960  0.00  0.00    +0.051 C 
ENDBRANCH  18  19
ENDBRANCH   5  18
BRANCH   1  21
ATOM     21  C   UNL     1     -35.549  22.125   0.451  0.00  0.00    +0.092 C 
BRANCH  21  22
ATOM     22  S   UNL     1     -34.094  22.014  -0.633  0.00  0.00    -0.109 S 
BRANCH  22  23
ATOM     23  C   UNL     1     -33.250  20.593   0.054  0.00  0.00    +0.026 C 
ATOM     24  C   UNL     1     -33.935  19.724   0.898  0.00  0.00    +0.006 C 
ATOM     25  C   UNL     1     -31.914  20.365  -0.261  0.00  0.00    +0.006 C 
ATOM     26  C   UNL     1     -33.277  18.617   1.433  0.00  0.00    +0.001 C 
ATOM     27  C   UNL     1     -31.256  19.258   0.275  0.00  0.00    +0.001 C 
ATOM     28  C   UNL     1     -31.938  18.384   1.122  0.00  0.00    +0.000 C 
ENDBRANCH  22  23
ENDBRANCH  21  22
ENDBRANCH   1  21
TORSDOF 9
ENDMDL
MODEL 5
REMARK VINA RESULT:      -5.9      2.260      6.943
REMARK  Name = 5353962
REMARK  9 active torsions:
REMARK  status: ('A' for Active; 'I' for Inactive)
REMARK    1  A    between atoms: C_1  and  C_21
REMARK    2  A    between atoms: C_2  and  O_7
REMARK    3  A    between atoms: C_3  and  C_9
REMARK    4  A    between atoms: C_5  and  O_18
REMARK    5  A    between atoms: C_10  and  C_13
REMARK    6  A    between atoms: C_10  and  C_17
REMARK    7  A    between atoms: O_18  and  C_19
REMARK    8  A    between atoms: C_21  and  S_22
REMARK    9  A    between atoms: S_22  and  C_23
REMARK                            x       y       z     vdW  Elec       q    Type
REMARK                         _______ _______ _______ _____ _____    ______ ____
ROOT
ATOM      1  C   UNL     1     -37.915  23.143   2.351  0.00  0.00    +0.026 C 
ATOM      2  C   UNL     1     -37.241  21.923   2.367  0.00  0.00    +0.164 C 
ATOM      3  C   UNL     1     -35.807  24.309   2.537  0.00  0.00    +0.004 C 
ATOM      4  C   UNL     1     -37.198  24.337   2.436  0.00  0.00    -0.000 C 
ATOM      5  C   UNL     1     -35.850  21.895   2.467  0.00  0.00    +0.172 C 
ATOM      6  C   UNL     1     -35.133  23.087   2.553  0.00  0.00    +0.040 C 
ENDROOT
BRANCH   2   7
ATOM      7  O   UNL     1     -37.938  20.754   2.284  0.00  0.00    -0.503 OA
ATOM      8  H   UNL     1     -37.618  20.055   1.748  0.00  0.00    +0.292 HD
ENDBRANCH   2   7
BRANCH   3   9
ATOM      9  C   UNL     1     -35.059  25.554   2.625  0.00  0.00    +0.015 C 
ATOM     10  C   UNL     1     -34.847  26.283   3.750  0.00  0.00    +0.121 C 
BRANCH  10  13
ATOM     11  O   UNL     1     -34.911  24.811   5.646  0.00  0.00    -0.270 OA
ATOM     12  N   UNL     1     -36.560  26.384   5.470  0.00  0.00    -0.325 N 
ATOM     13  C   UNL     1     -35.419  25.748   5.033  0.00  0.00    +0.252 C 
ATOM     14  H   UNL     1     -36.997  26.093   6.303  0.00  0.00    +0.145 HD
ATOM     15  H   UNL     1     -36.937  27.130   4.950  0.00  0.00    +0.145 HD
ENDBRANCH  10  13
BRANCH  10  17
ATOM     16  N   UNL     1     -33.481  28.481   3.692  0.00  0.00    -0.191 NA
ATOM     17  C   UNL     1     -34.094  27.494   3.720  0.00  0.00    +0.105 C 
ENDBRANCH  10  17
ENDBRANCH   3   9
BRANCH   5  18
ATOM     18  O   UNL     1     -35.180  20.709   2.484  0.00  0.00    -0.472 OA
BRANCH  18  19
ATOM     19  C   UNL     1     -34.615  20.264   1.252  0.00  0.00    +0.206 C 
ATOM     20  C   UNL     1     -33.621  19.159   1.535  0.00  0.00    +0.051 C 
ENDBRANCH  18  19
ENDBRANCH   5  18
BRANCH   1  21
ATOM     21  C   UNL     1     -39.403  23.193   2.244  0.00  0.00    +0.092 C 
BRANCH  21  22
ATOM     22  S   UNL     1     -39.969  24.361   0.971  0.00  0.00    -0.109 S 
BRANCH  22  23
ATOM     23  C   UNL     1     -41.154  25.338   1.890  0.00  0.00    +0.026 C 
ATOM     24  C   UNL     1     -40.764  25.969   3.067  0.00  0.00    +0.006 C 
ATOM     25  C   UNL     1     -42.458  25.461   1.421  0.00  0.00    +0.006 C 
ATOM     26  C   UNL     1     -41.687  26.730   3.783  0.00  0.00    +0.001 C 
ATOM     27  C   UNL     1     -43.382  26.221   2.138  0.00  0.00    +0.001 C 
ATOM     28  C   UNL     1     -42.997  26.856   3.319  0.00  0.00    +0.000 C 
ENDBRANCH  22  23
ENDBRANCH  21  22
ENDBRANCH   1  21
TORSDOF 9
ENDMDL
MODEL 6
REMARK VINA RESULT:      -5.9      3.877      6.061
REMARK  Name = 5353962
REMARK  9 active torsions:
REMARK  status: ('A' for Active; 'I' for Inactive)
REMARK    1  A    between atoms: C_1  and  C_21
REMARK    2  A    between atoms: C_2  and  O_7
REMARK    3  A    between atoms: C_3  and  C_9
REMARK    4  A    between atoms: C_5  and  O_18
REMARK    5  A    between atoms: C_10  and  C_13
REMARK    6  A    between atoms: C_10  and  C_17
REMARK    7  A    between atoms: O_18  and  C_19
REMARK    8  A    between atoms: C_21  and  S_22
REMARK    9  A    between atoms: S_22  and  C_23
REMARK                            x       y       z     vdW  Elec       q    Type
REMARK                         _______ _______ _______ _____ _____    ______ ____
ROOT
ATOM      1  C   UNL     1     -34.722  27.474   3.155  0.00  0.00    +0.026 C 
ATOM      2  C   UNL     1     -35.109  28.671   2.552  0.00  0.00    +0.164 C 
ATOM      3  C   UNL     1     -32.522  28.389   3.560  0.00  0.00    +0.004 C 
ATOM      4  C   UNL     1     -33.429  27.333   3.659  0.00  0.00    -0.000 C 
ATOM      5  C   UNL     1     -34.203  29.727   2.453  0.00  0.00    +0.172 C 
ATOM      6  C   UNL     1     -32.910  29.586   2.957  0.00  0.00    +0.040 C 
ENDROOT
BRANCH   2   7
ATOM      7  O   UNL     1     -36.372  28.813   2.058  0.00  0.00    -0.503 OA
ATOM      8  H   UNL     1     -36.934  28.066   1.989  0.00  0.00    +0.292 HD
ENDBRANCH   2   7
BRANCH   3   9
ATOM      9  C   UNL     1     -31.174  28.242   4.085  0.00  0.00    +0.015 C 
ATOM     10  C   UNL     1     -30.773  28.521   5.351  0.00  0.00    +0.121 C 
BRANCH  10  13
ATOM     11  O   UNL     1     -32.161  30.188   6.381  0.00  0.00    -0.270 OA
ATOM     12  N   UNL     1     -32.375  28.033   7.112  0.00  0.00    -0.325 N 
ATOM     13  C   UNL     1     -31.822  29.008   6.311  0.00  0.00    +0.252 C 
ATOM     14  H   UNL     1     -33.070  28.271   7.768  0.00  0.00    +0.145 HD
ATOM     15  H   UNL     1     -32.076  27.099   7.027  0.00  0.00    +0.145 HD
ENDBRANCH  10  13
BRANCH  10  17
ATOM     16  N   UNL     1     -28.315  28.190   6.088  0.00  0.00    -0.191 NA
ATOM     17  C   UNL     1     -29.419  28.338   5.760  0.00  0.00    +0.105 C 
ENDBRANCH  10  17
ENDBRANCH   3   9
BRANCH   5  18
ATOM     18  O   UNL     1     -34.568  30.901   1.867  0.00  0.00    -0.472 OA
BRANCH  18  19
ATOM     19  C   UNL     1     -33.952  32.091   2.355  0.00  0.00    +0.206 C 
ATOM     20  C   UNL     1     -34.426  33.267   1.529  0.00  0.00    +0.051 C 
ENDBRANCH  18  19
ENDBRANCH   5  18
BRANCH   1  21
ATOM     21  C   UNL     1     -35.678  26.334   3.270  0.00  0.00    +0.092 C 
BRANCH  21  22
ATOM     22  S   UNL     1     -35.978  25.850   4.997  0.00  0.00    -0.109 S 
BRANCH  22  23
ATOM     23  C   UNL     1     -35.686  24.087   4.925  0.00  0.00    +0.026 C 
ATOM     24  C   UNL     1     -35.309  23.401   6.076  0.00  0.00    +0.006 C 
ATOM     25  C   UNL     1     -35.839  23.410   3.719  0.00  0.00    +0.006 C 
ATOM     26  C   UNL     1     -35.082  22.026   6.021  0.00  0.00    +0.001 C 
ATOM     27  C   UNL     1     -35.611  22.035   3.663  0.00  0.00    +0.001 C 
ATOM     28  C   UNL     1     -35.232  21.343   4.814  0.00  0.00    +0.000 C 
ENDBRANCH  22  23
ENDBRANCH  21  22
ENDBRANCH   1  21
TORSDOF 9
ENDMDL
MODEL 7
REMARK VINA RESULT:      -5.8      4.269      6.860
REMARK  Name = 5353962
REMARK  9 active torsions:
REMARK  status: ('A' for Active; 'I' for Inactive)
REMARK    1  A    between atoms: C_1  and  C_21
REMARK    2  A    between atoms: C_2  and  O_7
REMARK    3  A    between atoms: C_3  and  C_9
REMARK    4  A    between atoms: C_5  and  O_18
REMARK    5  A    between atoms: C_10  and  C_13
REMARK    6  A    between atoms: C_10  and  C_17
REMARK    7  A    between atoms: O_18  and  C_19
REMARK    8  A    between atoms: C_21  and  S_22
REMARK    9  A    between atoms: S_22  and  C_23
REMARK                            x       y       z     vdW  Elec       q    Type
REMARK                         _______ _______ _______ _____ _____    ______ ____
ROOT
ATOM      1  C   UNL     1     -33.051  27.760   4.307  0.00  0.00    +0.026 C 
ATOM      2  C   UNL     1     -33.413  28.811   3.466  0.00  0.00    +0.164 C 
ATOM      3  C   UNL     1     -31.688  29.272   5.609  0.00  0.00    +0.004 C 
ATOM      4  C   UNL     1     -32.188  27.990   5.379  0.00  0.00    -0.000 C 
ATOM      5  C   UNL     1     -32.914  30.093   3.696  0.00  0.00    +0.172 C 
ATOM      6  C   UNL     1     -32.051  30.323   4.767  0.00  0.00    +0.040 C 
ENDROOT
BRANCH   2   7
ATOM      7  O   UNL     1     -34.256  28.590   2.416  0.00  0.00    -0.503 OA
ATOM      8  H   UNL     1     -33.998  28.016   1.722  0.00  0.00    +0.292 HD
ENDBRANCH   2   7
BRANCH   3   9
ATOM      9  C   UNL     1     -30.789  29.512   6.728  0.00  0.00    +0.015 C 
ATOM     10  C   UNL     1     -29.455  29.269   6.749  0.00  0.00    +0.121 C 
BRANCH  10  13
ATOM     11  O   UNL     1     -28.720  27.513   5.285  0.00  0.00    -0.270 OA
ATOM     12  N   UNL     1     -28.408  29.669   4.592  0.00  0.00    -0.325 N 
ATOM     13  C   UNL     1     -28.837  28.719   5.493  0.00  0.00    +0.252 C 
ATOM     14  H   UNL     1     -27.992  29.390   3.744  0.00  0.00    +0.145 HD
ATOM     15  H   UNL     1     -28.518  30.625   4.796  0.00  0.00    +0.145 HD
ENDBRANCH  10  13
BRANCH  10  17
ATOM     16  N   UNL     1     -28.025  29.773   8.846  0.00  0.00    -0.191 NA
ATOM     17  C   UNL     1     -28.667  29.545   7.906  0.00  0.00    +0.105 C 
ENDBRANCH  10  17
ENDBRANCH   3   9
BRANCH   5  18
ATOM     18  O   UNL     1     -33.260  31.128   2.881  0.00  0.00    -0.472 OA
BRANCH  18  19
ATOM     19  C   UNL     1     -32.337  32.210   2.777  0.00  0.00    +0.206 C 
ATOM     20  C   UNL     1     -33.081  33.454   2.343  0.00  0.00    +0.051 C 
ENDBRANCH  18  19
ENDBRANCH   5  18
BRANCH   1  21
ATOM     21  C   UNL     1     -33.575  26.381   4.077  0.00  0.00    +0.092 C 
BRANCH  21  22
ATOM     22  S   UNL     1     -34.845  25.909   5.290  0.00  0.00    -0.109 S 
BRANCH  22  23
ATOM     23  C   UNL     1     -35.084  24.180   4.895  0.00  0.00    +0.026 C 
ATOM     24  C   UNL     1     -35.285  23.795   3.574  0.00  0.00    +0.006 C 
ATOM     25  C   UNL     1     -35.066  23.231   5.912  0.00  0.00    +0.006 C 
ATOM     26  C   UNL     1     -35.471  22.447   3.265  0.00  0.00    +0.001 C 
ATOM     27  C   UNL     1     -35.253  21.883   5.605  0.00  0.00    +0.001 C 
ATOM     28  C   UNL     1     -35.456  21.491   4.281  0.00  0.00    +0.000 C 
ENDBRANCH  22  23
ENDBRANCH  21  22
ENDBRANCH   1  21
TORSDOF 9
ENDMDL
MODEL 8
REMARK VINA RESULT:      -5.7      1.910      6.711
REMARK  Name = 5353962
REMARK  9 active torsions:
REMARK  status: ('A' for Active; 'I' for Inactive)
REMARK    1  A    between atoms: C_1  and  C_21
REMARK    2  A    between atoms: C_2  and  O_7
REMARK    3  A    between atoms: C_3  and  C_9
REMARK    4  A    between atoms: C_5  and  O_18
REMARK    5  A    between atoms: C_10  and  C_13
REMARK    6  A    between atoms: C_10  and  C_17
REMARK    7  A    between atoms: O_18  and  C_19
REMARK    8  A    between atoms: C_21  and  S_22
REMARK    9  A    between atoms: S_22  and  C_23
REMARK                            x       y       z     vdW  Elec       q    Type
REMARK                         _______ _______ _______ _____ _____    ______ ____
ROOT
ATOM      1  C   UNL     1     -37.907  22.555   2.547  0.00  0.00    +0.026 C 
ATOM      2  C   UNL     1     -37.273  21.377   2.155  0.00  0.00    +0.164 C 
ATOM      3  C   UNL     1     -36.000  23.128   3.916  0.00  0.00    +0.004 C 
ATOM      4  C   UNL     1     -37.271  23.431   3.427  0.00  0.00    -0.000 C 
ATOM      5  C   UNL     1     -36.001  21.074   2.643  0.00  0.00    +0.172 C 
ATOM      6  C   UNL     1     -35.365  21.949   3.523  0.00  0.00    +0.040 C 
ENDROOT
BRANCH   2   7
ATOM      7  O   UNL     1     -37.891  20.518   1.295  0.00  0.00    -0.503 OA
ATOM      8  H   UNL     1     -37.401  20.111   0.608  0.00  0.00    +0.292 HD
ENDBRANCH   2   7
BRANCH   3   9
ATOM      9  C   UNL     1     -35.336  24.041   4.833  0.00  0.00    +0.015 C 
ATOM     10  C   UNL     1     -34.661  25.167   4.493  0.00  0.00    +0.121 C 
BRANCH  10  13
ATOM     11  O   UNL     1     -33.813  25.001   2.253  0.00  0.00    -0.270 OA
ATOM     12  N   UNL     1     -35.517  26.477   2.634  0.00  0.00    -0.325 N 
ATOM     13  C   UNL     1     -34.608  25.522   3.033  0.00  0.00    +0.252 C 
ATOM     14  H   UNL     1     -35.547  26.765   1.693  0.00  0.00    +0.145 HD
ATOM     15  H   UNL     1     -36.136  26.871   3.290  0.00  0.00    +0.145 HD
ENDBRANCH  10  13
BRANCH  10  17
ATOM     16  N   UNL     1     -33.547  26.667   6.284  0.00  0.00    -0.191 NA
ATOM     17  C   UNL     1     -34.046  25.992   5.481  0.00  0.00    +0.105 C 
ENDBRANCH  10  17
ENDBRANCH   3   9
BRANCH   5  18
ATOM     18  O   UNL     1     -35.370  19.927   2.267  0.00  0.00    -0.472 OA
BRANCH  18  19
ATOM     19  C   UNL     1     -34.328  20.044   1.302  0.00  0.00    +0.206 C 
ATOM     20  C   UNL     1     -33.371  18.882   1.463  0.00  0.00    +0.051 C 
ENDBRANCH  18  19
ENDBRANCH   5  18
BRANCH   1  21
ATOM     21  C   UNL     1     -39.267  22.896   2.036  0.00  0.00    +0.092 C 
BRANCH  21  22
ATOM     22  S   UNL     1     -39.289  24.459   1.106  0.00  0.00    -0.109 S 
BRANCH  22  23
ATOM     23  C   UNL     1     -40.687  25.292   1.848  0.00  0.00    +0.026 C 
ATOM     24  C   UNL     1     -41.933  25.234   1.231  0.00  0.00    +0.006 C 
ATOM     25  C   UNL     1     -40.521  25.993   3.038  0.00  0.00    +0.006 C 
ATOM     26  C   UNL     1     -43.023  25.884   1.810  0.00  0.00    +0.001 C 
ATOM     27  C   UNL     1     -41.610  26.644   3.617  0.00  0.00    +0.001 C 
ATOM     28  C   UNL     1     -42.862  26.589   3.002  0.00  0.00    +0.000 C 
ENDBRANCH  22  23
ENDBRANCH  21  22
ENDBRANCH   1  21
TORSDOF 9
ENDMDL
MODEL 9
REMARK VINA RESULT:      -5.7      2.767      3.924
REMARK  Name = 5353962
REMARK  9 active torsions:
REMARK  status: ('A' for Active; 'I' for Inactive)
REMARK    1  A    between atoms: C_1  and  C_21
REMARK    2  A    between atoms: C_2  and  O_7
REMARK    3  A    between atoms: C_3  and  C_9
REMARK    4  A    between atoms: C_5  and  O_18
REMARK    5  A    between atoms: C_10  and  C_13
REMARK    6  A    between atoms: C_10  and  C_17
REMARK    7  A    between atoms: O_18  and  C_19
REMARK    8  A    between atoms: C_21  and  S_22
REMARK    9  A    between atoms: S_22  and  C_23
REMARK                            x       y       z     vdW  Elec       q    Type
REMARK                         _______ _______ _______ _____ _____    ______ ____
ROOT
ATOM      1  C   UNL     1     -35.598  22.075   2.783  0.00  0.00    +0.026 C 
ATOM      2  C   UNL     1     -35.974  22.725   3.958  0.00  0.00    +0.164 C 
ATOM      3  C   UNL     1     -35.640  24.184   1.603  0.00  0.00    +0.004 C 
ATOM      4  C   UNL     1     -35.430  22.804   1.605  0.00  0.00    -0.000 C 
ATOM      5  C   UNL     1     -36.182  24.105   3.956  0.00  0.00    +0.172 C 
ATOM      6  C   UNL     1     -36.015  24.834   2.779  0.00  0.00    +0.040 C 
ENDROOT
BRANCH   2   7
ATOM      7  O   UNL     1     -36.138  22.017   5.111  0.00  0.00    -0.503 OA
ATOM      8  H   UNL     1     -35.499  21.380   5.365  0.00  0.00    +0.292 HD
ENDBRANCH   2   7
BRANCH   3   9
ATOM      9  C   UNL     1     -35.465  24.944   0.375  0.00  0.00    +0.015 C 
ATOM     10  C   UNL     1     -34.288  25.397  -0.125  0.00  0.00    +0.121 C 
BRANCH  10  13
ATOM     11  O   UNL     1     -32.726  25.657   1.680  0.00  0.00    -0.270 OA
ATOM     12  N   UNL     1     -32.274  24.058   0.110  0.00  0.00    -0.325 N 
ATOM     13  C   UNL     1     -33.041  25.068   0.647  0.00  0.00    +0.252 C 
ATOM     14  H   UNL     1     -31.441  23.782   0.556  0.00  0.00    +0.145 HD
ATOM     15  H   UNL     1     -32.560  23.612  -0.720  0.00  0.00    +0.145 HD
ENDBRANCH  10  13
BRANCH  10  17
ATOM     16  N   UNL     1     -34.190  26.742  -2.335  0.00  0.00    -0.191 NA
ATOM     17  C   UNL     1     -34.234  26.137  -1.344  0.00  0.00    +0.105 C 
ENDBRANCH  10  17
ENDBRANCH   3   9
BRANCH   5  18
ATOM     18  O   UNL     1     -36.550  24.752   5.097  0.00  0.00    -0.472 OA
BRANCH  18  19
ATOM     19  C   UNL     1     -35.963  26.029   5.338  0.00  0.00    +0.206 C 
ATOM     20  C   UNL     1     -34.559  25.835   5.869  0.00  0.00    +0.051 C 
ENDBRANCH  18  19
ENDBRANCH   5  18
BRANCH   1  21
ATOM     21  C   UNL     1     -35.370  20.600   2.766  0.00  0.00    +0.092 C 
BRANCH  21  22
ATOM     22  S   UNL     1     -35.397  19.913   1.083  0.00  0.00    -0.109 S 
BRANCH  22  23
ATOM     23  C   UNL     1     -33.663  19.565   0.816  0.00  0.00    +0.026 C 
ATOM     24  C   UNL     1     -32.878  20.469   0.107  0.00  0.00    +0.006 C 
ATOM     25  C   UNL     1     -33.108  18.392   1.318  0.00  0.00    +0.006 C 
ATOM     26  C   UNL     1     -31.525  20.199  -0.101  0.00  0.00    +0.001 C 
ATOM     27  C   UNL     1     -31.756  18.120   1.109  0.00  0.00    +0.001 C 
ATOM     28  C   UNL     1     -30.965  19.023   0.400  0.00  0.00    +0.000 C 
ENDBRANCH  22  23
ENDBRANCH  21  22
ENDBRANCH   1  21
TORSDOF 9
ENDMDL
