MODEL 1
REMARK VINA RESULT:      -6.0      0.000      0.000
REMARK  Name = 192314
REMARK  9 active torsions:
REMARK  status: ('A' for Active; 'I' for Inactive)
REMARK    1  A    between atoms: C_1  and  C_19
REMARK    2  A    between atoms: C_4  and  C_7
REMARK    3  A    between atoms: C_8  and  C_17
REMARK    4  A    between atoms: C_19  and  N_20
REMARK    5  A    between atoms: N_20  and  C_31
REMARK    6  A    between atoms: C_24  and  C_28
REMARK    7  A    between atoms: C_28  and  O_29
REMARK    8  A    between atoms: C_31  and  C_32
REMARK    9  A    between atoms: C_32  and  C_33
REMARK                            x       y       z     vdW  Elec       q    Type
REMARK                         _______ _______ _______ _____ _____    ______ ____
ROOT
ATOM      1  C   UNL     1     -44.609  33.462   2.682  0.00  0.00    -0.002 C 
ATOM      2  C   UNL     1     -45.590  32.478   2.674  0.00  0.00    -0.003 C 
ATOM      3  C   UNL     1     -43.929  33.779   3.850  0.00  0.00    -0.003 C 
ATOM      4  C   UNL     1     -45.220  32.115   5.033  0.00  0.00    +0.001 C 
ATOM      5  C   UNL     1     -45.897  31.802   3.855  0.00  0.00    -0.000 C 
ATOM      6  C   UNL     1     -44.236  33.104   5.030  0.00  0.00    -0.000 C 
ENDROOT
BRANCH   4   7
ATOM      7  C   UNL     1     -45.536  31.413   6.258  0.00  0.00    +0.009 C 
ATOM      8  C   UNL     1     -44.989  30.161   6.549  0.00  0.00    +0.065 C 
ATOM      9  C   UNL     1     -46.413  32.013   7.164  0.00  0.00    +0.001 C 
ATOM     10  C   UNL     1     -45.317  29.513   7.741  0.00  0.00    +0.010 C 
ATOM     11  C   UNL     1     -46.740  31.366   8.357  0.00  0.00    +0.000 C 
ATOM     12  C   UNL     1     -46.192  30.116   8.644  0.00  0.00    +0.001 C 
BRANCH   8  17
ATOM     13  N   UNL     1     -44.459  28.548   4.797  0.00  0.00    -0.110 NA
ATOM     14  N   UNL     1     -42.761  29.820   5.588  0.00  0.00    -0.087 NA
ATOM     15  N   UNL     1     -43.275  28.299   4.219  0.00  0.00    -0.140 N 
ATOM     16  N   UNL     1     -42.240  29.030   4.657  0.00  0.00    -0.022 NA
ATOM     17  C   UNL     1     -44.082  29.504   5.643  0.00  0.00    +0.073 C 
ATOM     18  H   UNL     1     -43.171  27.619   3.516  0.00  0.00    +0.197 HD
ENDBRANCH   8  17
ENDBRANCH   4   7
BRANCH   1  19
ATOM     19  C   UNL     1     -44.278  34.190   1.409  0.00  0.00    +0.119 C 
BRANCH  19  20
ATOM     20  N   UNL     1     -43.221  33.488   0.676  0.00  0.00    -0.289 N 
ATOM     21  N   UNL     1     -44.259  33.047  -1.409  0.00  0.00    -0.209 NA
ATOM     22  N   UNL     1     -44.217  30.825  -2.343  0.00  0.00    -0.222 NA
ATOM     23  C   UNL     1     -43.557  32.587  -0.343  0.00  0.00    +0.141 C 
ATOM     24  C   UNL     1     -43.160  31.262  -0.224  0.00  0.00    +0.126 C 
ATOM     25  C   UNL     1     -43.519  30.423  -1.259  0.00  0.00    +0.110 C 
ATOM     26  C   UNL     1     -44.548  32.130  -2.353  0.00  0.00    +0.200 C 
BRANCH  24  28
ATOM     27  O   UNL     1     -41.178  30.673   0.978  0.00  0.00    -0.245 OA
ATOM     28  C   UNL     1     -42.409  30.754   0.912  0.00  0.00    +0.342 C 
BRANCH  28  29
ATOM     29  O   UNL     1     -43.215  30.361   1.935  0.00  0.00    -0.477 OA
ATOM     30  H   UNL     1     -44.034  29.944   1.753  0.00  0.00    +0.295 HD
ENDBRANCH  28  29
ENDBRANCH  24  28
BRANCH  20  31
ATOM     31  C   UNL     1     -41.848  33.738   1.039  0.00  0.00    +0.092 C 
BRANCH  31  32
ATOM     32  C   UNL     1     -41.588  35.236   1.177  0.00  0.00    +0.021 C 
BRANCH  32  33
ATOM     33  C   UNL     1     -40.898  35.597   2.495  0.00  0.00    +0.002 C 
ATOM     34  C   UNL     1     -39.385  35.502   2.372  0.00  0.00    +0.000 C 
ENDBRANCH  32  33
ENDBRANCH  31  32
ENDBRANCH  20  31
ENDBRANCH  19  20
ENDBRANCH   1  19
TORSDOF 9
ENDMDL
MODEL 2
REMARK VINA RESULT:      -5.9     12.340     15.094
REMARK  Name = 192314
REMARK  9 active torsions:
REMARK  status: ('A' for Active; 'I' for Inactive)
REMARK    1  A    between atoms: C_1  and  C_19
REMARK    2  A    between atoms: C_4  and  C_7
REMARK    3  A    between atoms: C_8  and  C_17
REMARK    4  A    between atoms: C_19  and  N_20
REMARK    5  A    between atoms: N_20  and  C_31
REMARK    6  A    between atoms: C_24  and  C_28
REMARK    7  A    between atoms: C_28  and  O_29
REMARK    8  A    between atoms: C_31  and  C_32
REMARK    9  A    between atoms: C_32  and  C_33
REMARK                            x       y       z     vdW  Elec       q    Type
REMARK                         _______ _______ _______ _____ _____    ______ ____
ROOT
ATOM      1  C   UNL     1     -35.806  21.308   1.799  0.00  0.00    -0.002 C 
ATOM      2  C   UNL     1     -35.158  20.259   2.439  0.00  0.00    -0.003 C 
ATOM      3  C   UNL     1     -35.351  21.786   0.577  0.00  0.00    -0.003 C 
ATOM      4  C   UNL     1     -33.572  20.152   0.621  0.00  0.00    +0.001 C 
ATOM      5  C   UNL     1     -34.037  19.678   1.847  0.00  0.00    -0.000 C 
ATOM      6  C   UNL     1     -34.229  21.206  -0.014  0.00  0.00    -0.000 C 
ENDROOT
BRANCH   4   7
ATOM      7  C   UNL     1     -32.410  19.548   0.005  0.00  0.00    +0.009 C 
ATOM      8  C   UNL     1     -32.445  18.254  -0.520  0.00  0.00    +0.065 C 
ATOM      9  C   UNL     1     -31.229  20.289  -0.060  0.00  0.00    +0.001 C 
ATOM     10  C   UNL     1     -31.304  17.705  -1.107  0.00  0.00    +0.010 C 
ATOM     11  C   UNL     1     -30.088  19.741  -0.647  0.00  0.00    +0.000 C 
ATOM     12  C   UNL     1     -30.126  18.448  -1.170  0.00  0.00    +0.001 C 
BRANCH   8  17
ATOM     13  N   UNL     1     -33.803  16.428   0.360  0.00  0.00    -0.110 NA
ATOM     14  N   UNL     1     -34.703  17.692  -1.289  0.00  0.00    -0.087 NA
ATOM     15  N   UNL     1     -35.039  16.054  -0.002  0.00  0.00    -0.140 N 
ATOM     16  N   UNL     1     -35.611  16.776  -0.977  0.00  0.00    -0.022 NA
ATOM     17  C   UNL     1     -33.642  17.453  -0.474  0.00  0.00    +0.073 C 
ATOM     18  H   UNL     1     -35.499  15.295   0.422  0.00  0.00    +0.197 HD
ENDBRANCH   8  17
ENDBRANCH   4   7
BRANCH   1  19
ATOM     19  C   UNL     1     -37.015  21.934   2.437  0.00  0.00    +0.119 C 
BRANCH  19  20
ATOM     20  N   UNL     1     -36.668  23.224   3.039  0.00  0.00    -0.289 N 
ATOM     21  N   UNL     1     -38.789  24.253   3.285  0.00  0.00    -0.209 NA
ATOM     22  N   UNL     1     -39.151  26.498   2.484  0.00  0.00    -0.222 NA
ATOM     23  C   UNL     1     -37.506  24.331   2.850  0.00  0.00    +0.141 C 
ATOM     24  C   UNL     1     -36.994  25.461   2.229  0.00  0.00    +0.126 C 
ATOM     25  C   UNL     1     -37.866  26.519   2.073  0.00  0.00    +0.110 C 
ATOM     26  C   UNL     1     -39.540  25.351   3.074  0.00  0.00    +0.200 C 
BRANCH  24  28
ATOM     27  O   UNL     1     -35.183  25.054   0.720  0.00  0.00    -0.245 OA
ATOM     28  C   UNL     1     -35.622  25.560   1.758  0.00  0.00    +0.342 C 
BRANCH  28  29
ATOM     29  O   UNL     1     -34.835  26.288   2.596  0.00  0.00    -0.477 OA
ATOM     30  H   UNL     1     -34.272  26.952   2.252  0.00  0.00    +0.295 HD
ENDBRANCH  28  29
ENDBRANCH  24  28
BRANCH  20  31
ATOM     31  C   UNL     1     -35.451  23.322   3.807  0.00  0.00    +0.092 C 
BRANCH  31  32
ATOM     32  C   UNL     1     -35.740  23.823   5.219  0.00  0.00    +0.021 C 
BRANCH  32  33
ATOM     33  C   UNL     1     -35.168  22.904   6.301  0.00  0.00    +0.002 C 
ATOM     34  C   UNL     1     -35.135  21.456   5.838  0.00  0.00    +0.000 C 
ENDBRANCH  32  33
ENDBRANCH  31  32
ENDBRANCH  20  31
ENDBRANCH  19  20
ENDBRANCH   1  19
TORSDOF 9
ENDMDL
MODEL 3
REMARK VINA RESULT:      -5.8      9.469     12.382
REMARK  Name = 192314
REMARK  9 active torsions:
REMARK  status: ('A' for Active; 'I' for Inactive)
REMARK    1  A    between atoms: C_1  and  C_19
REMARK    2  A    between atoms: C_4  and  C_7
REMARK    3  A    between atoms: C_8  and  C_17
REMARK    4  A    between atoms: C_19  and  N_20
REMARK    5  A    between atoms: N_20  and  C_31
REMARK    6  A    between atoms: C_24  and  C_28
REMARK    7  A    between atoms: C_28  and  O_29
REMARK    8  A    between atoms: C_31  and  C_32
REMARK    9  A    between atoms: C_32  and  C_33
REMARK                            x       y       z     vdW  Elec       q    Type
REMARK                         _______ _______ _______ _____ _____    ______ ____
ROOT
ATOM      1  C   UNL     1     -37.658  21.376   1.261  0.00  0.00    -0.002 C 
ATOM      2  C   UNL     1     -37.713  22.037   0.040  0.00  0.00    -0.003 C 
ATOM      3  C   UNL     1     -38.703  21.472   2.170  0.00  0.00    -0.003 C 
ATOM      4  C   UNL     1     -39.886  22.912   0.632  0.00  0.00    +0.001 C 
ATOM      5  C   UNL     1     -38.832  22.809  -0.275  0.00  0.00    -0.000 C 
ATOM      6  C   UNL     1     -39.821  22.243   1.855  0.00  0.00    -0.000 C 
ENDROOT
BRANCH   4   7
ATOM      7  C   UNL     1     -41.047  23.710   0.305  0.00  0.00    +0.009 C 
ATOM      8  C   UNL     1     -41.213  25.005   0.802  0.00  0.00    +0.065 C 
ATOM      9  C   UNL     1     -42.020  23.160  -0.533  0.00  0.00    +0.001 C 
ATOM     10  C   UNL     1     -42.346  25.745   0.464  0.00  0.00    +0.010 C 
ATOM     11  C   UNL     1     -43.153  23.901  -0.872  0.00  0.00    +0.000 C 
ATOM     12  C   UNL     1     -43.316  25.194  -0.372  0.00  0.00    +0.001 C 
BRANCH   8  17
ATOM     13  N   UNL     1     -40.333  25.606   2.997  0.00  0.00    -0.110 NA
ATOM     14  N   UNL     1     -39.130  26.239   1.185  0.00  0.00    -0.087 NA
ATOM     15  N   UNL     1     -39.209  26.276   3.294  0.00  0.00    -0.140 N 
ATOM     16  N   UNL     1     -38.466  26.670   2.250  0.00  0.00    -0.022 NA
ATOM     17  C   UNL     1     -40.235  25.611   1.669  0.00  0.00    +0.073 C 
ATOM     18  H   UNL     1     -38.947  26.466   4.222  0.00  0.00    +0.197 HD
ENDBRANCH   8  17
ENDBRANCH   4   7
BRANCH   1  19
ATOM     19  C   UNL     1     -36.453  20.544   1.600  0.00  0.00    +0.119 C 
BRANCH  19  20
ATOM     20  N   UNL     1     -35.349  21.398   2.046  0.00  0.00    -0.289 N 
ATOM     21  N   UNL     1     -35.237  20.909   4.363  0.00  0.00    -0.209 NA
ATOM     22  N   UNL     1     -35.201  22.694   5.982  0.00  0.00    -0.222 NA
ATOM     23  C   UNL     1     -35.299  21.838   3.376  0.00  0.00    +0.141 C 
ATOM     24  C   UNL     1     -35.315  23.202   3.632  0.00  0.00    +0.126 C 
ATOM     25  C   UNL     1     -35.264  23.573   4.960  0.00  0.00    +0.110 C 
ATOM     26  C   UNL     1     -35.191  21.398   5.617  0.00  0.00    +0.200 C 
BRANCH  24  28
ATOM     27  O   UNL     1     -34.411  24.757   2.055  0.00  0.00    -0.245 OA
ATOM     28  C   UNL     1     -35.383  24.209   2.586  0.00  0.00    +0.342 C 
BRANCH  28  29
ATOM     29  O   UNL     1     -36.663  24.505   2.230  0.00  0.00    -0.477 OA
ATOM     30  H   UNL     1     -37.378  24.055   2.635  0.00  0.00    +0.295 HD
ENDBRANCH  28  29
ENDBRANCH  24  28
BRANCH  20  31
ATOM     31  C   UNL     1     -34.340  21.778   1.088  0.00  0.00    +0.092 C 
BRANCH  31  32
ATOM     32  C   UNL     1     -33.987  20.604   0.178  0.00  0.00    +0.021 C 
BRANCH  32  33
ATOM     33  C   UNL     1     -32.753  19.837   0.657  0.00  0.00    +0.002 C 
ATOM     34  C   UNL     1     -33.142  18.594   1.443  0.00  0.00    +0.000 C 
ENDBRANCH  32  33
ENDBRANCH  31  32
ENDBRANCH  20  31
ENDBRANCH  19  20
ENDBRANCH   1  19
TORSDOF 9
ENDMDL
MODEL 4
REMARK VINA RESULT:      -5.8      9.634     12.101
REMARK  Name = 192314
REMARK  9 active torsions:
REMARK  status: ('A' for Active; 'I' for Inactive)
REMARK    1  A    between atoms: C_1  and  C_19
REMARK    2  A    between atoms: C_4  and  C_7
REMARK    3  A    between atoms: C_8  and  C_17
REMARK    4  A    between atoms: C_19  and  N_20
REMARK    5  A    between atoms: N_20  and  C_31
REMARK    6  A    between atoms: C_24  and  C_28
REMARK    7  A    between atoms: C_28  and  O_29
REMARK    8  A    between atoms: C_31  and  C_32
REMARK    9  A    between atoms: C_32  and  C_33
REMARK                            x       y       z     vdW  Elec       q    Type
REMARK                         _______ _______ _______ _____ _____    ______ ____
ROOT
ATOM      1  C   UNL     1     -35.824  23.983   4.240  0.00  0.00    -0.002 C 
ATOM      2  C   UNL     1     -36.232  24.886   5.214  0.00  0.00    -0.003 C 
ATOM      3  C   UNL     1     -34.596  24.123   3.608  0.00  0.00    -0.003 C 
ATOM      4  C   UNL     1     -34.161  26.098   4.930  0.00  0.00    +0.001 C 
ATOM      5  C   UNL     1     -35.396  25.949   5.560  0.00  0.00    -0.000 C 
ATOM      6  C   UNL     1     -33.761  25.185   3.954  0.00  0.00    -0.000 C 
ENDROOT
BRANCH   4   7
ATOM      7  C   UNL     1     -33.294  27.199   5.290  0.00  0.00    +0.009 C 
ATOM      8  C   UNL     1     -33.076  28.276   4.427  0.00  0.00    +0.065 C 
ATOM      9  C   UNL     1     -32.664  27.172   6.536  0.00  0.00    +0.001 C 
ATOM     10  C   UNL     1     -32.233  29.320   4.809  0.00  0.00    +0.010 C 
ATOM     11  C   UNL     1     -31.822  28.216   6.919  0.00  0.00    +0.000 C 
ATOM     12  C   UNL     1     -31.606  29.290   6.054  0.00  0.00    +0.001 C 
BRANCH   8  17
ATOM     13  N   UNL     1     -34.960  28.747   2.950  0.00  0.00    -0.110 NA
ATOM     14  N   UNL     1     -33.049  27.997   1.993  0.00  0.00    -0.087 NA
ATOM     15  N   UNL     1     -35.029  28.622   1.616  0.00  0.00    -0.140 N 
ATOM     16  N   UNL     1     -33.919  28.180   1.007  0.00  0.00    -0.022 NA
ATOM     17  C   UNL     1     -33.704  28.344   3.132  0.00  0.00    +0.073 C 
ATOM     18  H   UNL     1     -35.846  28.841   1.114  0.00  0.00    +0.197 HD
ENDBRANCH   8  17
ENDBRANCH   4   7
BRANCH   1  19
ATOM     19  C   UNL     1     -36.724  22.837   3.868  0.00  0.00    +0.119 C 
BRANCH  19  20
ATOM     20  N   UNL     1     -37.267  23.029   2.520  0.00  0.00    -0.289 N 
ATOM     21  N   UNL     1     -38.348  25.130   2.705  0.00  0.00    -0.209 NA
ATOM     22  N   UNL     1     -40.626  25.394   1.962  0.00  0.00    -0.222 NA
ATOM     23  C   UNL     1     -38.403  23.827   2.331  0.00  0.00    +0.141 C 
ATOM     24  C   UNL     1     -39.537  23.256   1.771  0.00  0.00    +0.126 C 
ATOM     25  C   UNL     1     -40.623  24.092   1.609  0.00  0.00    +0.110 C 
ATOM     26  C   UNL     1     -39.473  25.841   2.495  0.00  0.00    +0.200 C 
BRANCH  24  28
ATOM     27  O   UNL     1     -39.437  21.438   0.219  0.00  0.00    -0.245 OA
ATOM     28  C   UNL     1     -39.611  21.862   1.366  0.00  0.00    +0.342 C 
BRANCH  28  29
ATOM     29  O   UNL     1     -39.902  21.033   2.406  0.00  0.00    -0.477 OA
ATOM     30  H   UNL     1     -40.704  20.551   2.411  0.00  0.00    +0.295 HD
ENDBRANCH  28  29
ENDBRANCH  24  28
BRANCH  20  31
ATOM     31  C   UNL     1     -36.615  22.370   1.415  0.00  0.00    +0.092 C 
BRANCH  31  32
ATOM     32  C   UNL     1     -35.954  21.072   1.871  0.00  0.00    +0.021 C 
BRANCH  32  33
ATOM     33  C   UNL     1     -34.568  20.867   1.254  0.00  0.00    +0.002 C 
ATOM     34  C   UNL     1     -34.021  19.482   1.565  0.00  0.00    +0.000 C 
ENDBRANCH  32  33
ENDBRANCH  31  32
ENDBRANCH  20  31
ENDBRANCH  19  20
ENDBRANCH   1  19
TORSDOF 9
ENDMDL
MODEL 5
REMARK VINA RESULT:      -5.8     11.933     14.489
REMARK  Name = 192314
REMARK  9 active torsions:
REMARK  status: ('A' for Active; 'I' for Inactive)
REMARK    1  A    between atoms: C_1  and  C_19
REMARK    2  A    between atoms: C_4  and  C_7
REMARK    3  A    between atoms: C_8  and  C_17
REMARK    4  A    between atoms: C_19  and  N_20
REMARK    5  A    between atoms: N_20  and  C_31
REMARK    6  A    between atoms: C_24  and  C_28
REMARK    7  A    between atoms: C_28  and  O_29
REMARK    8  A    between atoms: C_31  and  C_32
REMARK    9  A    between atoms: C_32  and  C_33
REMARK                            x       y       z     vdW  Elec       q    Type
REMARK                         _______ _______ _______ _____ _____    ______ ____
ROOT
ATOM      1  C   UNL     1     -35.242  22.364   1.538  0.00  0.00    -0.002 C 
ATOM      2  C   UNL     1     -34.566  22.226   0.331  0.00  0.00    -0.003 C 
ATOM      3  C   UNL     1     -35.334  21.301   2.428  0.00  0.00    -0.003 C 
ATOM      4  C   UNL     1     -34.064  19.931   0.896  0.00  0.00    +0.001 C 
ATOM      5  C   UNL     1     -33.975  21.004   0.010  0.00  0.00    -0.000 C 
ATOM      6  C   UNL     1     -34.744  20.080   2.105  0.00  0.00    -0.000 C 
ENDROOT
BRANCH   4   7
ATOM      7  C   UNL     1     -33.449  18.665   0.563  0.00  0.00    +0.009 C 
ATOM      8  C   UNL     1     -34.105  17.712  -0.220  0.00  0.00    +0.065 C 
ATOM      9  C   UNL     1     -32.165  18.400   1.043  0.00  0.00    +0.001 C 
ATOM     10  C   UNL     1     -33.480  16.501  -0.521  0.00  0.00    +0.010 C 
ATOM     11  C   UNL     1     -31.539  17.190   0.742  0.00  0.00    +0.000 C 
ATOM     12  C   UNL     1     -32.197  16.240  -0.040  0.00  0.00    +0.001 C 
BRANCH   8  17
ATOM     13  N   UNL     1     -35.666  18.469  -1.935  0.00  0.00    -0.110 NA
ATOM     14  N   UNL     1     -36.546  17.634  -0.023  0.00  0.00    -0.087 NA
ATOM     15  N   UNL     1     -37.007  18.463  -1.908  0.00  0.00    -0.140 N 
ATOM     16  N   UNL     1     -37.572  17.977  -0.794  0.00  0.00    -0.022 NA
ATOM     17  C   UNL     1     -35.431  17.943  -0.736  0.00  0.00    +0.073 C 
ATOM     18  H   UNL     1     -37.545  18.796  -2.662  0.00  0.00    +0.197 HD
ENDBRANCH   8  17
ENDBRANCH   4   7
BRANCH   1  19
ATOM     19  C   UNL     1     -35.878  23.681   1.885  0.00  0.00    +0.119 C 
BRANCH  19  20
ATOM     20  N   UNL     1     -37.119  23.469   2.636  0.00  0.00    -0.289 N 
ATOM     21  N   UNL     1     -38.408  22.173   1.126  0.00  0.00    -0.209 NA
ATOM     22  N   UNL     1     -40.675  22.808   0.608  0.00  0.00    -0.222 NA
ATOM     23  C   UNL     1     -38.321  23.247   1.951  0.00  0.00    +0.141 C 
ATOM     24  C   UNL     1     -39.374  24.131   2.142  0.00  0.00    +0.126 C 
ATOM     25  C   UNL     1     -40.531  23.860   1.442  0.00  0.00    +0.110 C 
ATOM     26  C   UNL     1     -39.590  22.017   0.500  0.00  0.00    +0.200 C 
BRANCH  24  28
ATOM     27  O   UNL     1     -38.637  26.308   2.805  0.00  0.00    -0.245 OA
ATOM     28  C   UNL     1     -39.296  25.286   3.021  0.00  0.00    +0.342 C 
BRANCH  28  29
ATOM     29  O   UNL     1     -40.044  25.133   4.148  0.00  0.00    -0.477 OA
ATOM     30  H   UNL     1     -40.069  25.814   4.790  0.00  0.00    +0.295 HD
ENDBRANCH  28  29
ENDBRANCH  24  28
BRANCH  20  31
ATOM     31  C   UNL     1     -37.068  23.509   4.077  0.00  0.00    +0.092 C 
BRANCH  31  32
ATOM     32  C   UNL     1     -35.920  24.395   4.554  0.00  0.00    +0.021 C 
BRANCH  32  33
ATOM     33  C   UNL     1     -34.887  23.627   5.383  0.00  0.00    +0.002 C 
ATOM     34  C   UNL     1     -35.494  22.380   6.008  0.00  0.00    +0.000 C 
ENDBRANCH  32  33
ENDBRANCH  31  32
ENDBRANCH  20  31
ENDBRANCH  19  20
ENDBRANCH   1  19
TORSDOF 9
ENDMDL
MODEL 6
REMARK VINA RESULT:      -5.7     10.596     13.380
REMARK  Name = 192314
REMARK  9 active torsions:
REMARK  status: ('A' for Active; 'I' for Inactive)
REMARK    1  A    between atoms: C_1  and  C_19
REMARK    2  A    between atoms: C_4  and  C_7
REMARK    3  A    between atoms: C_8  and  C_17
REMARK    4  A    between atoms: C_19  and  N_20
REMARK    5  A    between atoms: N_20  and  C_31
REMARK    6  A    between atoms: C_24  and  C_28
REMARK    7  A    between atoms: C_28  and  O_29
REMARK    8  A    between atoms: C_31  and  C_32
REMARK    9  A    between atoms: C_32  and  C_33
REMARK                            x       y       z     vdW  Elec       q    Type
REMARK                         _______ _______ _______ _____ _____    ______ ____
ROOT
ATOM      1  C   UNL     1     -35.363  24.592  -0.126  0.00  0.00    -0.002 C 
ATOM      2  C   UNL     1     -35.838  23.418  -0.697  0.00  0.00    -0.003 C 
ATOM      3  C   UNL     1     -34.167  24.608   0.580  0.00  0.00    -0.003 C 
ATOM      4  C   UNL     1     -33.902  22.245   0.148  0.00  0.00    +0.001 C 
ATOM      5  C   UNL     1     -35.104  22.239  -0.560  0.00  0.00    -0.000 C 
ATOM      6  C   UNL     1     -33.434  23.429   0.718  0.00  0.00    -0.000 C 
ENDROOT
BRANCH   4   7
ATOM      7  C   UNL     1     -33.140  21.023   0.289  0.00  0.00    +0.009 C 
ATOM      8  C   UNL     1     -33.620  19.939   1.027  0.00  0.00    +0.065 C 
ATOM      9  C   UNL     1     -31.894  20.939  -0.335  0.00  0.00    +0.001 C 
ATOM     10  C   UNL     1     -32.856  18.776   1.141  0.00  0.00    +0.010 C 
ATOM     11  C   UNL     1     -31.130  19.776  -0.223  0.00  0.00    +0.000 C 
ATOM     12  C   UNL     1     -31.612  18.695   0.516  0.00  0.00    +0.001 C 
BRANCH   8  17
ATOM     13  N   UNL     1     -36.011  19.473   1.162  0.00  0.00    -0.110 NA
ATOM     14  N   UNL     1     -35.062  20.556   2.910  0.00  0.00    -0.087 NA
ATOM     15  N   UNL     1     -36.868  19.774   2.149  0.00  0.00    -0.140 N 
ATOM     16  N   UNL     1     -36.349  20.416   3.205  0.00  0.00    -0.022 NA
ATOM     17  C   UNL     1     -34.899  19.983   1.688  0.00  0.00    +0.073 C 
ATOM     18  H   UNL     1     -37.822  19.538   2.100  0.00  0.00    +0.197 HD
ENDBRANCH   8  17
ENDBRANCH   4   7
BRANCH   1  19
ATOM     19  C   UNL     1     -36.154  25.862  -0.275  0.00  0.00    +0.119 C 
BRANCH  19  20
ATOM     20  N   UNL     1     -36.897  26.151   0.955  0.00  0.00    -0.289 N 
ATOM     21  N   UNL     1     -35.434  27.628   2.094  0.00  0.00    -0.209 NA
ATOM     22  N   UNL     1     -34.854  27.228   4.399  0.00  0.00    -0.222 NA
ATOM     23  C   UNL     1     -36.207  26.513   2.120  0.00  0.00    +0.141 C 
ATOM     24  C   UNL     1     -36.340  25.721   3.251  0.00  0.00    +0.126 C 
ATOM     25  C   UNL     1     -35.638  26.129   4.367  0.00  0.00    +0.110 C 
ATOM     26  C   UNL     1     -34.800  27.920   3.245  0.00  0.00    +0.200 C 
BRANCH  24  28
ATOM     27  O   UNL     1     -38.324  24.467   3.716  0.00  0.00    -0.245 OA
ATOM     28  C   UNL     1     -37.164  24.524   3.294  0.00  0.00    +0.342 C 
BRANCH  28  29
ATOM     29  O   UNL     1     -36.516  23.429   2.810  0.00  0.00    -0.477 OA
ATOM     30  H   UNL     1     -36.849  22.982   2.058  0.00  0.00    +0.295 HD
ENDBRANCH  28  29
ENDBRANCH  24  28
BRANCH  20  31
ATOM     31  C   UNL     1     -38.335  26.038   0.934  0.00  0.00    +0.092 C 
BRANCH  31  32
ATOM     32  C   UNL     1     -38.846  25.895  -0.497  0.00  0.00    +0.021 C 
BRANCH  32  33
ATOM     33  C   UNL     1     -39.620  24.593  -0.719  0.00  0.00    +0.002 C 
ATOM     34  C   UNL     1     -39.405  23.617   0.427  0.00  0.00    +0.000 C 
ENDBRANCH  32  33
ENDBRANCH  31  32
ENDBRANCH  20  31
ENDBRANCH  19  20
ENDBRANCH   1  19
TORSDOF 9
ENDMDL
MODEL 7
REMARK VINA RESULT:      -5.7     11.983     14.479
REMARK  Name = 192314
REMARK  9 active torsions:
REMARK  status: ('A' for Active; 'I' for Inactive)
REMARK    1  A    between atoms: C_1  and  C_19
REMARK    2  A    between atoms: C_4  and  C_7
REMARK    3  A    between atoms: C_8  and  C_17
REMARK    4  A    between atoms: C_19  and  N_20
REMARK    5  A    between atoms: N_20  and  C_31
REMARK    6  A    between atoms: C_24  and  C_28
REMARK    7  A    between atoms: C_28  and  O_29
REMARK    8  A    between atoms: C_31  and  C_32
REMARK    9  A    between atoms: C_32  and  C_33
REMARK                            x       y       z     vdW  Elec       q    Type
REMARK                         _______ _______ _______ _____ _____    ______ ____
ROOT
ATOM      1  C   UNL     1     -35.328  22.958   1.828  0.00  0.00    -0.002 C 
ATOM      2  C   UNL     1     -35.654  21.862   2.617  0.00  0.00    -0.003 C 
ATOM      3  C   UNL     1     -34.529  22.813   0.702  0.00  0.00    -0.003 C 
ATOM      4  C   UNL     1     -34.366  20.444   1.145  0.00  0.00    +0.001 C 
ATOM      5  C   UNL     1     -35.170  20.599   2.273  0.00  0.00    -0.000 C 
ATOM      6  C   UNL     1     -34.045  21.551   0.359  0.00  0.00    -0.000 C 
ENDROOT
BRANCH   4   7
ATOM      7  C   UNL     1     -33.866  19.134   0.787  0.00  0.00    +0.009 C 
ATOM      8  C   UNL     1     -34.645  18.219   0.075  0.00  0.00    +0.065 C 
ATOM      9  C   UNL     1     -32.568  18.788   1.170  0.00  0.00    +0.001 C 
ATOM     10  C   UNL     1     -34.129  16.965  -0.253  0.00  0.00    +0.010 C 
ATOM     11  C   UNL     1     -32.051  17.534   0.841  0.00  0.00    +0.000 C 
ATOM     12  C   UNL     1     -32.833  16.622   0.130  0.00  0.00    +0.001 C 
BRANCH   8  17
ATOM     13  N   UNL     1     -37.069  18.172   0.350  0.00  0.00    -0.110 NA
ATOM     14  N   UNL     1     -36.250  19.231  -1.477  0.00  0.00    -0.087 NA
ATOM     15  N   UNL     1     -38.012  18.697  -0.446  0.00  0.00    -0.140 N 
ATOM     16  N   UNL     1     -37.572  19.333  -1.541  0.00  0.00    -0.022 NA
ATOM     17  C   UNL     1     -35.989  18.534  -0.339  0.00  0.00    +0.073 C 
ATOM     18  H   UNL     1     -38.971  18.618  -0.239  0.00  0.00    +0.197 HD
ENDBRANCH   8  17
ENDBRANCH   4   7
BRANCH   1  19
ATOM     19  C   UNL     1     -35.850  24.319   2.198  0.00  0.00    +0.119 C 
BRANCH  19  20
ATOM     20  N   UNL     1     -34.795  25.120   2.824  0.00  0.00    -0.289 N 
ATOM     21  N   UNL     1     -35.597  27.331   2.527  0.00  0.00    -0.209 NA
ATOM     22  N   UNL     1     -34.163  29.029   1.593  0.00  0.00    -0.222 NA
ATOM     23  C   UNL     1     -34.580  26.441   2.407  0.00  0.00    +0.141 C 
ATOM     24  C   UNL     1     -33.340  26.787   1.889  0.00  0.00    +0.126 C 
ATOM     25  C   UNL     1     -33.188  28.101   1.497  0.00  0.00    +0.110 C 
ATOM     26  C   UNL     1     -35.324  28.582   2.109  0.00  0.00    +0.200 C 
BRANCH  24  28
ATOM     27  O   UNL     1     -32.122  25.008   0.853  0.00  0.00    -0.245 OA
ATOM     28  C   UNL     1     -32.241  25.844   1.754  0.00  0.00    +0.342 C 
BRANCH  28  29
ATOM     29  O   UNL     1     -31.320  25.973   2.748  0.00  0.00    -0.477 OA
ATOM     30  H   UNL     1     -31.393  26.671   3.367  0.00  0.00    +0.295 HD
ENDBRANCH  28  29
ENDBRANCH  24  28
BRANCH  20  31
ATOM     31  C   UNL     1     -33.988  24.514   3.855  0.00  0.00    +0.092 C 
BRANCH  31  32
ATOM     32  C   UNL     1     -34.546  24.838   5.239  0.00  0.00    +0.021 C 
BRANCH  32  33
ATOM     33  C   UNL     1     -35.627  23.851   5.685  0.00  0.00    +0.002 C 
ATOM     34  C   UNL     1     -35.028  22.507   6.068  0.00  0.00    +0.000 C 
ENDBRANCH  32  33
ENDBRANCH  31  32
ENDBRANCH  20  31
ENDBRANCH  19  20
ENDBRANCH   1  19
TORSDOF 9
ENDMDL
MODEL 8
REMARK VINA RESULT:      -5.7     11.226     13.597
REMARK  Name = 192314
REMARK  9 active torsions:
REMARK  status: ('A' for Active; 'I' for Inactive)
REMARK    1  A    between atoms: C_1  and  C_19
REMARK    2  A    between atoms: C_4  and  C_7
REMARK    3  A    between atoms: C_8  and  C_17
REMARK    4  A    between atoms: C_19  and  N_20
REMARK    5  A    between atoms: N_20  and  C_31
REMARK    6  A    between atoms: C_24  and  C_28
REMARK    7  A    between atoms: C_28  and  O_29
REMARK    8  A    between atoms: C_31  and  C_32
REMARK    9  A    between atoms: C_32  and  C_33
REMARK                            x       y       z     vdW  Elec       q    Type
REMARK                         _______ _______ _______ _____ _____    ______ ____
ROOT
ATOM      1  C   UNL     1     -35.015  20.638   1.074  0.00  0.00    -0.002 C 
ATOM      2  C   UNL     1     -35.492  20.406   2.358  0.00  0.00    -0.003 C 
ATOM      3  C   UNL     1     -34.657  21.917   0.667  0.00  0.00    -0.003 C 
ATOM      4  C   UNL     1     -35.259  22.759   2.850  0.00  0.00    +0.001 C 
ATOM      5  C   UNL     1     -35.614  21.472   3.250  0.00  0.00    -0.000 C 
ATOM      6  C   UNL     1     -34.780  22.982   1.558  0.00  0.00    -0.000 C 
ENDROOT
BRANCH   4   7
ATOM      7  C   UNL     1     -35.384  23.865   3.775  0.00  0.00    +0.009 C 
ATOM      8  C   UNL     1     -36.518  24.681   3.797  0.00  0.00    +0.065 C 
ATOM      9  C   UNL     1     -34.337  24.111   4.666  0.00  0.00    +0.001 C 
ATOM     10  C   UNL     1     -36.603  25.738   4.704  0.00  0.00    +0.010 C 
ATOM     11  C   UNL     1     -34.422  25.167   5.574  0.00  0.00    +0.000 C 
ATOM     12  C   UNL     1     -35.556  25.980   5.592  0.00  0.00    +0.001 C 
BRANCH   8  17
ATOM     13  N   UNL     1     -38.612  23.612   3.147  0.00  0.00    -0.110 NA
ATOM     14  N   UNL     1     -37.726  25.123   1.711  0.00  0.00    -0.087 NA
ATOM     15  N   UNL     1     -39.334  23.795   2.031  0.00  0.00    -0.140 N 
ATOM     16  N   UNL     1     -38.846  24.681   1.152  0.00  0.00    -0.022 NA
ATOM     17  C   UNL     1     -37.621  24.464   2.896  0.00  0.00    +0.073 C 
ATOM     18  H   UNL     1     -40.172  23.306   1.867  0.00  0.00    +0.197 HD
ENDBRANCH   8  17
ENDBRANCH   4   7
BRANCH   1  19
ATOM     19  C   UNL     1     -34.883  19.489   0.113  0.00  0.00    +0.119 C 
BRANCH  19  20
ATOM     20  N   UNL     1     -36.169  19.206  -0.529  0.00  0.00    -0.289 N 
ATOM     21  N   UNL     1     -35.801  19.950  -2.749  0.00  0.00    -0.209 NA
ATOM     22  N   UNL     1     -37.376  21.434  -3.811  0.00  0.00    -0.222 NA
ATOM     23  C   UNL     1     -36.579  19.960  -1.637  0.00  0.00    +0.141 C 
ATOM     24  C   UNL     1     -37.759  20.684  -1.555  0.00  0.00    +0.126 C 
ATOM     25  C   UNL     1     -38.110  21.406  -2.678  0.00  0.00    +0.110 C 
ATOM     26  C   UNL     1     -36.251  20.694  -3.777  0.00  0.00    +0.200 C 
BRANCH  24  28
ATOM     27  O   UNL     1     -39.576  19.971  -0.172  0.00  0.00    -0.245 OA
ATOM     28  C   UNL     1     -38.602  20.705  -0.371  0.00  0.00    +0.342 C 
BRANCH  28  29
ATOM     29  O   UNL     1     -38.206  21.642   0.533  0.00  0.00    -0.477 OA
ATOM     30  H   UNL     1     -38.582  21.654   1.391  0.00  0.00    +0.295 HD
ENDBRANCH  28  29
ENDBRANCH  24  28
BRANCH  20  31
ATOM     31  C   UNL     1     -36.994  18.155   0.015  0.00  0.00    +0.092 C 
BRANCH  31  32
ATOM     32  C   UNL     1     -37.202  17.044  -1.012  0.00  0.00    +0.021 C 
BRANCH  32  33
ATOM     33  C   UNL     1     -38.682  16.756  -1.278  0.00  0.00    +0.002 C 
ATOM     34  C   UNL     1     -39.128  15.471  -0.598  0.00  0.00    +0.000 C 
ENDBRANCH  32  33
ENDBRANCH  31  32
ENDBRANCH  20  31
ENDBRANCH  19  20
ENDBRANCH   1  19
TORSDOF 9
ENDMDL
MODEL 9
REMARK VINA RESULT:      -5.6     10.128     12.542
REMARK  Name = 192314
REMARK  9 active torsions:
REMARK  status: ('A' for Active; 'I' for Inactive)
REMARK    1  A    between atoms: C_1  and  C_19
REMARK    2  A    between atoms: C_4  and  C_7
REMARK    3  A    between atoms: C_8  and  C_17
REMARK    4  A    between atoms: C_19  and  N_20
REMARK    5  A    between atoms: N_20  and  C_31
REMARK    6  A    between atoms: C_24  and  C_28
REMARK    7  A    between atoms: C_28  and  O_29
REMARK    8  A    between atoms: C_31  and  C_32
REMARK    9  A    between atoms: C_32  and  C_33
REMARK                            x       y       z     vdW  Elec       q    Type
REMARK                         _______ _______ _______ _____ _____    ______ ____
ROOT
ATOM      1  C   UNL     1     -36.108  23.891   4.183  0.00  0.00    -0.002 C 
ATOM      2  C   UNL     1     -34.809  23.534   4.525  0.00  0.00    -0.003 C 
ATOM      3  C   UNL     1     -36.519  25.217   4.234  0.00  0.00    -0.003 C 
ATOM      4  C   UNL     1     -34.311  25.853   4.982  0.00  0.00    +0.001 C 
ATOM      5  C   UNL     1     -33.908  24.520   4.926  0.00  0.00    -0.000 C 
ATOM      6  C   UNL     1     -35.618  26.201   4.636  0.00  0.00    -0.000 C 
ENDROOT
BRANCH   4   7
ATOM      7  C   UNL     1     -33.376  26.876   5.395  0.00  0.00    +0.009 C 
ATOM      8  C   UNL     1     -32.767  27.732   4.474  0.00  0.00    +0.065 C 
ATOM      9  C   UNL     1     -33.082  27.002   6.755  0.00  0.00    +0.001 C 
ATOM     10  C   UNL     1     -31.869  28.707   4.910  0.00  0.00    +0.010 C 
ATOM     11  C   UNL     1     -32.186  27.977   7.192  0.00  0.00    +0.000 C 
ATOM     12  C   UNL     1     -31.579  28.830   6.268  0.00  0.00    +0.001 C 
BRANCH   8  17
ATOM     13  N   UNL     1     -32.413  26.785   2.253  0.00  0.00    -0.110 NA
ATOM     14  N   UNL     1     -33.966  28.421   2.451  0.00  0.00    -0.087 NA
ATOM     15  N   UNL     1     -33.022  27.103   1.101  0.00  0.00    -0.140 N 
ATOM     16  N   UNL     1     -33.950  28.068   1.172  0.00  0.00    -0.022 NA
ATOM     17  C   UNL     1     -33.039  27.637   3.062  0.00  0.00    +0.073 C 
ATOM     18  H   UNL     1     -32.800  26.655   0.254  0.00  0.00    +0.197 HD
ENDBRANCH   8  17
ENDBRANCH   4   7
BRANCH   1  19
ATOM     19  C   UNL     1     -37.080  22.829   3.750  0.00  0.00    +0.119 C 
BRANCH  19  20
ATOM     20  N   UNL     1     -36.982  22.602   2.306  0.00  0.00    -0.289 N 
ATOM     21  N   UNL     1     -35.637  20.654   2.190  0.00  0.00    -0.209 NA
ATOM     22  N   UNL     1     -33.708  20.592   0.746  0.00  0.00    -0.222 NA
ATOM     23  C   UNL     1     -35.875  21.924   1.778  0.00  0.00    +0.141 C 
ATOM     24  C   UNL     1     -35.068  22.576   0.856  0.00  0.00    +0.126 C 
ATOM     25  C   UNL     1     -33.994  21.857   0.372  0.00  0.00    +0.110 C 
ATOM     26  C   UNL     1     -34.559  20.059   1.644  0.00  0.00    +0.200 C 
BRANCH  24  28
ATOM     27  O   UNL     1     -35.957  24.254  -0.598  0.00  0.00    -0.245 OA
ATOM     28  C   UNL     1     -35.309  23.936   0.405  0.00  0.00    +0.342 C 
BRANCH  28  29
ATOM     29  O   UNL     1     -34.736  24.864   1.220  0.00  0.00    -0.477 OA
ATOM     30  H   UNL     1     -34.390  24.608   2.052  0.00  0.00    +0.295 HD
ENDBRANCH  28  29
ENDBRANCH  24  28
BRANCH  20  31
ATOM     31  C   UNL     1     -38.036  23.101   1.457  0.00  0.00    +0.092 C 
BRANCH  31  32
ATOM     32  C   UNL     1     -39.304  23.364   2.265  0.00  0.00    +0.021 C 
BRANCH  32  33
ATOM     33  C   UNL     1     -39.703  24.841   2.274  0.00  0.00    +0.002 C 
ATOM     34  C   UNL     1     -38.808  25.664   1.360  0.00  0.00    +0.000 C 
ENDBRANCH  32  33
ENDBRANCH  31  32
ENDBRANCH  20  31
ENDBRANCH  19  20
ENDBRANCH   1  19
TORSDOF 9
ENDMDL
