MODEL 1
REMARK VINA RESULT:      -6.7      0.000      0.000
REMARK  Name = 191941
REMARK  13 active torsions:
REMARK  status: ('A' for Active; 'I' for Inactive)
REMARK    1  A    between atoms: N_1  and  S_3
REMARK    2  A    between atoms: N_1  and  C_19
REMARK    3  A    between atoms: S_3  and  C_6
REMARK    4  A    between atoms: C_9  and  N_16
REMARK    5  A    between atoms: C_19  and  C_21
REMARK    6  A    between atoms: C_19  and  C_22
REMARK    7  A    between atoms: C_22  and  O_23
REMARK    8  A    between atoms: C_22  and  C_25
REMARK    9  A    between atoms: C_25  and  O_26
REMARK   10  A    between atoms: C_25  and  C_28
REMARK   11  A    between atoms: C_28  and  O_29
REMARK   12  A    between atoms: C_28  and  C_31
REMARK   13  A    between atoms: C_31  and  O_32
REMARK                            x       y       z     vdW  Elec       q    Type
REMARK                         _______ _______ _______ _____ _____    ______ ____
ROOT
ATOM      1  N   UNL     1     -35.221  22.806   3.065  0.00  0.00    -0.171 NA
ATOM      2  H   UNL     1     -35.116  23.626   2.467  0.00  0.00    +0.149 HD
ENDROOT
BRANCH   1   3
ATOM      3  S   UNL     1     -35.555  21.491   2.041  0.00  0.00    +0.061 S 
ATOM      4  O   UNL     1     -36.720  21.794   1.233  0.00  0.00    -0.153 OA
ATOM      5  O   UNL     1     -35.504  20.268   2.820  0.00  0.00    -0.153 OA
BRANCH   3   6
ATOM      6  C   UNL     1     -34.141  21.487   0.982  0.00  0.00    +0.122 C 
ATOM      7  C   UNL     1     -33.319  20.365   0.830  0.00  0.00    +0.020 C 
ATOM      8  C   UNL     1     -32.205  20.445  -0.040  0.00  0.00    +0.015 C 
ATOM      9  C   UNL     1     -31.375  19.323  -0.198  0.00  0.00    +0.048 C 
ATOM     10  C   UNL     1     -33.884  22.671   0.298  0.00  0.00    +0.020 C 
ATOM     11  C   UNL     1     -33.570  19.166   1.516  0.00  0.00    +0.001 C 
ATOM     12  C   UNL     1     -31.954  21.644  -0.726  0.00  0.00    +0.001 C 
ATOM     13  C   UNL     1     -32.790  22.749  -0.558  0.00  0.00    +0.001 C 
ATOM     14  C   UNL     1     -31.640  18.140   0.492  0.00  0.00    +0.015 C 
ATOM     15  C   UNL     1     -32.734  18.061   1.347  0.00  0.00    +0.001 C 
BRANCH   9  16
ATOM     16  N   UNL     1     -30.248  19.349  -1.056  0.00  0.00    -0.304 N 
ATOM     17  C   UNL     1     -30.383  18.976  -2.446  0.00  0.00    +0.112 C 
ATOM     18  C   UNL     1     -28.958  19.763  -0.549  0.00  0.00    +0.112 C 
ENDBRANCH   9  16
ENDBRANCH   3   6
ENDBRANCH   1   3
BRANCH   1  19
ATOM     19  C   UNL     1     -36.183  23.174   4.129  0.00  0.00    +0.169 C 
BRANCH  19  21
ATOM     20  O   UNL     1     -36.010  22.168   6.336  0.00  0.00    -0.287 OA
ATOM     21  C   UNL     1     -35.491  22.806   5.425  0.00  0.00    +0.227 C 
ENDBRANCH  19  21
BRANCH  19  22
ATOM     22  C   UNL     1     -36.555  24.660   4.043  0.00  0.00    +0.163 C 
BRANCH  22  23
ATOM     23  O   UNL     1     -37.950  24.802   4.347  0.00  0.00    -0.380 OA
ATOM     24  H   UNL     1     -38.379  23.933   4.313  0.00  0.00    +0.211 HD
ENDBRANCH  22  23
BRANCH  22  25
ATOM     25  C   UNL     1     -35.773  25.588   4.995  0.00  0.00    +0.168 C 
BRANCH  25  26
ATOM     26  O   UNL     1     -36.665  26.641   5.387  0.00  0.00    -0.379 OA
ATOM     27  H   UNL     1     -36.806  26.605   6.346  0.00  0.00    +0.211 HD
ENDBRANCH  25  26
BRANCH  25  28
ATOM     28  C   UNL     1     -34.491  26.208   4.417  0.00  0.00    +0.169 C 
BRANCH  28  29
ATOM     29  O   UNL     1     -33.859  27.033   5.396  0.00  0.00    -0.379 OA
ATOM     30  H   UNL     1     -33.030  26.618   5.684  0.00  0.00    +0.211 HD
ENDBRANCH  28  29
BRANCH  28  31
ATOM     31  C   UNL     1     -34.776  27.083   3.197  0.00  0.00    +0.169 C 
BRANCH  31  32
ATOM     32  O   UNL     1     -35.099  28.398   3.638  0.00  0.00    -0.379 OA
ATOM     33  H   UNL     1     -34.833  29.040   2.962  0.00  0.00    +0.211 HD
ENDBRANCH  31  32
ENDBRANCH  28  31
ENDBRANCH  25  28
ENDBRANCH  22  25
ENDBRANCH  19  22
ENDBRANCH   1  19
TORSDOF 13
ENDMDL
MODEL 2
REMARK VINA RESULT:      -6.6      2.570      3.711
REMARK  Name = 191941
REMARK  13 active torsions:
REMARK  status: ('A' for Active; 'I' for Inactive)
REMARK    1  A    between atoms: N_1  and  S_3
REMARK    2  A    between atoms: N_1  and  C_19
REMARK    3  A    between atoms: S_3  and  C_6
REMARK    4  A    between atoms: C_9  and  N_16
REMARK    5  A    between atoms: C_19  and  C_21
REMARK    6  A    between atoms: C_19  and  C_22
REMARK    7  A    between atoms: C_22  and  O_23
REMARK    8  A    between atoms: C_22  and  C_25
REMARK    9  A    between atoms: C_25  and  O_26
REMARK   10  A    between atoms: C_25  and  C_28
REMARK   11  A    between atoms: C_28  and  O_29
REMARK   12  A    between atoms: C_28  and  C_31
REMARK   13  A    between atoms: C_31  and  O_32
REMARK                            x       y       z     vdW  Elec       q    Type
REMARK                         _______ _______ _______ _____ _____    ______ ____
ROOT
ATOM      1  N   UNL     1     -37.080  22.451   2.661  0.00  0.00    -0.171 NA
ATOM      2  H   UNL     1     -37.363  22.399   3.640  0.00  0.00    +0.149 HD
ENDROOT
BRANCH   1   3
ATOM      3  S   UNL     1     -35.601  21.624   2.532  0.00  0.00    +0.061 S 
ATOM      4  O   UNL     1     -35.295  20.986   3.798  0.00  0.00    -0.153 OA
ATOM      5  O   UNL     1     -34.630  22.498   1.901  0.00  0.00    -0.153 OA
BRANCH   3   6
ATOM      6  C   UNL     1     -35.992  20.359   1.362  0.00  0.00    +0.122 C 
ATOM      7  C   UNL     1     -35.084  19.356   1.009  0.00  0.00    +0.020 C 
ATOM      8  C   UNL     1     -35.477  18.378   0.064  0.00  0.00    +0.015 C 
ATOM      9  C   UNL     1     -34.571  17.367  -0.296  0.00  0.00    +0.048 C 
ATOM     10  C   UNL     1     -37.265  20.413   0.805  0.00  0.00    +0.020 C 
ATOM     11  C   UNL     1     -33.796  19.293   1.566  0.00  0.00    +0.001 C 
ATOM     12  C   UNL     1     -36.764  18.441  -0.494  0.00  0.00    +0.001 C 
ATOM     13  C   UNL     1     -37.653  19.452  -0.124  0.00  0.00    +0.001 C 
ATOM     14  C   UNL     1     -33.297  17.321   0.267  0.00  0.00    +0.015 C 
ATOM     15  C   UNL     1     -32.909  18.282   1.197  0.00  0.00    +0.001 C 
BRANCH   9  16
ATOM     16  N   UNL     1     -34.913  16.365  -1.237  0.00  0.00    -0.304 N 
ATOM     17  C   UNL     1     -35.488  15.115  -0.792  0.00  0.00    +0.112 C 
ATOM     18  C   UNL     1     -34.703  16.591  -2.650  0.00  0.00    +0.112 C 
ENDBRANCH   9  16
ENDBRANCH   3   6
ENDBRANCH   1   3
BRANCH   1  19
ATOM     19  C   UNL     1     -37.164  23.877   2.267  0.00  0.00    +0.169 C 
BRANCH  19  21
ATOM     20  O   UNL     1     -39.059  25.038   1.282  0.00  0.00    -0.287 OA
ATOM     21  C   UNL     1     -38.455  23.988   1.484  0.00  0.00    +0.227 C 
ENDBRANCH  19  21
BRANCH  19  22
ATOM     22  C   UNL     1     -37.123  24.791   3.499  0.00  0.00    +0.163 C 
BRANCH  22  23
ATOM     23  O   UNL     1     -38.378  24.690   4.186  0.00  0.00    -0.380 OA
ATOM     24  H   UNL     1     -38.453  25.411   4.831  0.00  0.00    +0.211 HD
ENDBRANCH  22  23
BRANCH  22  25
ATOM     25  C   UNL     1     -36.007  24.471   4.514  0.00  0.00    +0.168 C 
BRANCH  25  26
ATOM     26  O   UNL     1     -36.442  23.339   5.279  0.00  0.00    -0.379 OA
ATOM     27  H   UNL     1     -36.316  22.530   4.760  0.00  0.00    +0.211 HD
ENDBRANCH  25  26
BRANCH  25  28
ATOM     28  C   UNL     1     -35.635  25.612   5.475  0.00  0.00    +0.169 C 
BRANCH  28  29
ATOM     29  O   UNL     1     -36.540  26.706   5.313  0.00  0.00    -0.379 OA
ATOM     30  H   UNL     1     -37.367  26.387   4.920  0.00  0.00    +0.211 HD
ENDBRANCH  28  29
BRANCH  28  31
ATOM     31  C   UNL     1     -34.225  26.143   5.217  0.00  0.00    +0.169 C 
BRANCH  31  32
ATOM     32  O   UNL     1     -33.431  25.095   4.668  0.00  0.00    -0.379 OA
ATOM     33  H   UNL     1     -32.539  25.428   4.484  0.00  0.00    +0.211 HD
ENDBRANCH  31  32
ENDBRANCH  28  31
ENDBRANCH  25  28
ENDBRANCH  22  25
ENDBRANCH  19  22
ENDBRANCH   1  19
TORSDOF 13
ENDMDL
MODEL 3
REMARK VINA RESULT:      -6.5      3.825      5.755
REMARK  Name = 191941
REMARK  13 active torsions:
REMARK  status: ('A' for Active; 'I' for Inactive)
REMARK    1  A    between atoms: N_1  and  S_3
REMARK    2  A    between atoms: N_1  and  C_19
REMARK    3  A    between atoms: S_3  and  C_6
REMARK    4  A    between atoms: C_9  and  N_16
REMARK    5  A    between atoms: C_19  and  C_21
REMARK    6  A    between atoms: C_19  and  C_22
REMARK    7  A    between atoms: C_22  and  O_23
REMARK    8  A    between atoms: C_22  and  C_25
REMARK    9  A    between atoms: C_25  and  O_26
REMARK   10  A    between atoms: C_25  and  C_28
REMARK   11  A    between atoms: C_28  and  O_29
REMARK   12  A    between atoms: C_28  and  C_31
REMARK   13  A    between atoms: C_31  and  O_32
REMARK                            x       y       z     vdW  Elec       q    Type
REMARK                         _______ _______ _______ _____ _____    ______ ____
ROOT
ATOM      1  N   UNL     1     -37.428  21.779   2.736  0.00  0.00    -0.171 NA
ATOM      2  H   UNL     1     -37.538  22.537   3.410  0.00  0.00    +0.149 HD
ENDROOT
BRANCH   1   3
ATOM      3  S   UNL     1     -35.778  21.376   2.713  0.00  0.00    +0.061 S 
ATOM      4  O   UNL     1     -35.509  20.512   1.580  0.00  0.00    -0.153 OA
ATOM      5  O   UNL     1     -35.376  20.976   4.048  0.00  0.00    -0.153 OA
BRANCH   3   6
ATOM      6  C   UNL     1     -35.025  22.943   2.396  0.00  0.00    +0.122 C 
ATOM      7  C   UNL     1     -34.941  23.946   3.368  0.00  0.00    +0.020 C 
ATOM      8  C   UNL     1     -34.320  25.174   3.032  0.00  0.00    +0.015 C 
ATOM      9  C   UNL     1     -34.232  26.186   4.001  0.00  0.00    +0.048 C 
ATOM     10  C   UNL     1     -34.514  23.129   1.116  0.00  0.00    +0.020 C 
ATOM     11  C   UNL     1     -35.454  23.768   4.663  0.00  0.00    +0.001 C 
ATOM     12  C   UNL     1     -33.808  25.353   1.737  0.00  0.00    +0.001 C 
ATOM     13  C   UNL     1     -33.904  24.336   0.786  0.00  0.00    +0.001 C 
ATOM     14  C   UNL     1     -34.747  25.991   5.282  0.00  0.00    +0.015 C 
ATOM     15  C   UNL     1     -35.357  24.784   5.613  0.00  0.00    +0.001 C 
BRANCH   9  16
ATOM     16  N   UNL     1     -33.622  27.433   3.718  0.00  0.00    -0.304 N 
ATOM     17  C   UNL     1     -34.359  28.462   3.020  0.00  0.00    +0.112 C 
ATOM     18  C   UNL     1     -32.262  27.689   4.138  0.00  0.00    +0.112 C 
ENDBRANCH   9  16
ENDBRANCH   3   6
ENDBRANCH   1   3
BRANCH   1  19
ATOM     19  C   UNL     1     -38.098  22.215   1.488  0.00  0.00    +0.169 C 
BRANCH  19  21
ATOM     20  O   UNL     1     -40.226  21.249   2.158  0.00  0.00    -0.287 OA
ATOM     21  C   UNL     1     -39.301  21.305   1.354  0.00  0.00    +0.227 C 
ENDBRANCH  19  21
BRANCH  19  22
ATOM     22  C   UNL     1     -38.469  23.702   1.555  0.00  0.00    +0.163 C 
BRANCH  22  23
ATOM     23  O   UNL     1     -39.764  23.879   0.963  0.00  0.00    -0.380 OA
ATOM     24  H   UNL     1     -39.825  23.347   0.155  0.00  0.00    +0.211 HD
ENDBRANCH  22  23
BRANCH  22  25
ATOM     25  C   UNL     1     -38.519  24.302   2.975  0.00  0.00    +0.168 C 
BRANCH  25  26
ATOM     26  O   UNL     1     -39.846  24.091   3.477  0.00  0.00    -0.379 OA
ATOM     27  H   UNL     1     -39.802  23.590   4.307  0.00  0.00    +0.211 HD
ENDBRANCH  25  26
BRANCH  25  28
ATOM     28  C   UNL     1     -38.176  25.797   3.079  0.00  0.00    +0.169 C 
BRANCH  28  29
ATOM     29  O   UNL     1     -39.360  26.556   3.330  0.00  0.00    -0.379 OA
ATOM     30  H   UNL     1     -39.147  27.502   3.316  0.00  0.00    +0.211 HD
ENDBRANCH  28  29
BRANCH  28  31
ATOM     31  C   UNL     1     -37.553  26.334   1.791  0.00  0.00    +0.169 C 
BRANCH  31  32
ATOM     32  O   UNL     1     -38.422  27.316   1.234  0.00  0.00    -0.379 OA
ATOM     33  H   UNL     1     -38.975  26.907   0.550  0.00  0.00    +0.211 HD
ENDBRANCH  31  32
ENDBRANCH  28  31
ENDBRANCH  25  28
ENDBRANCH  22  25
ENDBRANCH  19  22
ENDBRANCH   1  19
TORSDOF 13
ENDMDL
MODEL 4
REMARK VINA RESULT:      -6.5      1.290      2.037
REMARK  Name = 191941
REMARK  13 active torsions:
REMARK  status: ('A' for Active; 'I' for Inactive)
REMARK    1  A    between atoms: N_1  and  S_3
REMARK    2  A    between atoms: N_1  and  C_19
REMARK    3  A    between atoms: S_3  and  C_6
REMARK    4  A    between atoms: C_9  and  N_16
REMARK    5  A    between atoms: C_19  and  C_21
REMARK    6  A    between atoms: C_19  and  C_22
REMARK    7  A    between atoms: C_22  and  O_23
REMARK    8  A    between atoms: C_22  and  C_25
REMARK    9  A    between atoms: C_25  and  O_26
REMARK   10  A    between atoms: C_25  and  C_28
REMARK   11  A    between atoms: C_28  and  O_29
REMARK   12  A    between atoms: C_28  and  C_31
REMARK   13  A    between atoms: C_31  and  O_32
REMARK                            x       y       z     vdW  Elec       q    Type
REMARK                         _______ _______ _______ _____ _____    ______ ____
ROOT
ATOM      1  N   UNL     1     -35.909  22.494   1.493  0.00  0.00    -0.171 NA
ATOM      2  H   UNL     1     -36.921  22.468   1.625  0.00  0.00    +0.149 HD
ENDROOT
BRANCH   1   3
ATOM      3  S   UNL     1     -35.366  20.884   1.531  0.00  0.00    +0.061 S 
ATOM      4  O   UNL     1     -36.266  20.055   0.753  0.00  0.00    -0.153 OA
ATOM      5  O   UNL     1     -35.047  20.530   2.901  0.00  0.00    -0.153 OA
BRANCH   3   6
ATOM      6  C   UNL     1     -33.834  20.995   0.657  0.00  0.00    +0.122 C 
ATOM      7  C   UNL     1     -32.891  19.963   0.661  0.00  0.00    +0.020 C 
ATOM      8  C   UNL     1     -31.688  20.133  -0.067  0.00  0.00    +0.015 C 
ATOM      9  C   UNL     1     -30.735  19.101  -0.068  0.00  0.00    +0.048 C 
ATOM     10  C   UNL     1     -33.613  22.177  -0.043  0.00  0.00    +0.020 C 
ATOM     11  C   UNL     1     -33.104  18.767   1.365  0.00  0.00    +0.001 C 
ATOM     12  C   UNL     1     -31.473  21.329  -0.770  0.00  0.00    +0.001 C 
ATOM     13  C   UNL     1     -32.431  22.344  -0.758  0.00  0.00    +0.001 C 
ATOM     14  C   UNL     1     -30.965  17.920   0.637  0.00  0.00    +0.015 C 
ATOM     15  C   UNL     1     -32.147  17.753   1.352  0.00  0.00    +0.001 C 
BRANCH   9  16
ATOM     16  N   UNL     1     -29.515  19.219  -0.778  0.00  0.00    -0.304 N 
ATOM     17  C   UNL     1     -29.442  18.827  -2.168  0.00  0.00    +0.112 C 
ATOM     18  C   UNL     1     -28.338  19.745  -0.122  0.00  0.00    +0.112 C 
ENDBRANCH   9  16
ENDBRANCH   3   6
ENDBRANCH   1   3
BRANCH   1  19
ATOM     19  C   UNL     1     -35.376  23.475   2.466  0.00  0.00    +0.169 C 
BRANCH  19  21
ATOM     20  O   UNL     1     -35.584  25.865   2.075  0.00  0.00    -0.287 OA
ATOM     21  C   UNL     1     -35.223  24.760   1.680  0.00  0.00    +0.227 C 
ENDBRANCH  19  21
BRANCH  19  22
ATOM     22  C   UNL     1     -36.310  23.612   3.675  0.00  0.00    +0.163 C 
BRANCH  22  23
ATOM     23  O   UNL     1     -37.082  22.409   3.797  0.00  0.00    -0.380 OA
ATOM     24  H   UNL     1     -36.571  21.661   3.452  0.00  0.00    +0.211 HD
ENDBRANCH  22  23
BRANCH  22  25
ATOM     25  C   UNL     1     -35.604  23.854   5.025  0.00  0.00    +0.168 C 
BRANCH  25  26
ATOM     26  O   UNL     1     -36.122  22.889   5.952  0.00  0.00    -0.379 OA
ATOM     27  H   UNL     1     -36.970  22.550   5.626  0.00  0.00    +0.211 HD
ENDBRANCH  25  26
BRANCH  25  28
ATOM     28  C   UNL     1     -35.770  25.261   5.621  0.00  0.00    +0.169 C 
BRANCH  28  29
ATOM     29  O   UNL     1     -36.773  25.983   4.904  0.00  0.00    -0.379 OA
ATOM     30  H   UNL     1     -36.628  26.936   5.016  0.00  0.00    +0.211 HD
ENDBRANCH  28  29
BRANCH  28  31
ATOM     31  C   UNL     1     -34.478  26.073   5.544  0.00  0.00    +0.169 C 
BRANCH  31  32
ATOM     32  O   UNL     1     -34.646  27.117   4.589  0.00  0.00    -0.379 OA
ATOM     33  H   UNL     1     -33.889  27.721   4.633  0.00  0.00    +0.211 HD
ENDBRANCH  31  32
ENDBRANCH  28  31
ENDBRANCH  25  28
ENDBRANCH  22  25
ENDBRANCH  19  22
ENDBRANCH   1  19
TORSDOF 13
ENDMDL
MODEL 5
REMARK VINA RESULT:      -6.4      0.715      2.175
REMARK  Name = 191941
REMARK  13 active torsions:
REMARK  status: ('A' for Active; 'I' for Inactive)
REMARK    1  A    between atoms: N_1  and  S_3
REMARK    2  A    between atoms: N_1  and  C_19
REMARK    3  A    between atoms: S_3  and  C_6
REMARK    4  A    between atoms: C_9  and  N_16
REMARK    5  A    between atoms: C_19  and  C_21
REMARK    6  A    between atoms: C_19  and  C_22
REMARK    7  A    between atoms: C_22  and  O_23
REMARK    8  A    between atoms: C_22  and  C_25
REMARK    9  A    between atoms: C_25  and  O_26
REMARK   10  A    between atoms: C_25  and  C_28
REMARK   11  A    between atoms: C_28  and  O_29
REMARK   12  A    between atoms: C_28  and  C_31
REMARK   13  A    between atoms: C_31  and  O_32
REMARK                            x       y       z     vdW  Elec       q    Type
REMARK                         _______ _______ _______ _____ _____    ______ ____
ROOT
ATOM      1  N   UNL     1     -35.234  22.763   2.973  0.00  0.00    -0.171 NA
ATOM      2  H   UNL     1     -34.845  23.627   2.593  0.00  0.00    +0.149 HD
ENDROOT
BRANCH   1   3
ATOM      3  S   UNL     1     -35.838  21.875   1.655  0.00  0.00    +0.061 S 
ATOM      4  O   UNL     1     -36.163  22.783   0.572  0.00  0.00    -0.153 OA
ATOM      5  O   UNL     1     -36.829  20.934   2.141  0.00  0.00    -0.153 OA
BRANCH   3   6
ATOM      6  C   UNL     1     -34.424  20.932   1.173  0.00  0.00    +0.122 C 
ATOM      7  C   UNL     1     -33.420  21.452   0.350  0.00  0.00    +0.020 C 
ATOM      8  C   UNL     1     -32.318  20.630   0.010  0.00  0.00    +0.015 C 
ATOM      9  C   UNL     1     -31.306  21.145  -0.816  0.00  0.00    +0.048 C 
ATOM     10  C   UNL     1     -34.360  19.631   1.660  0.00  0.00    +0.020 C 
ATOM     11  C   UNL     1     -33.475  22.765  -0.148  0.00  0.00    +0.001 C 
ATOM     12  C   UNL     1     -32.263  19.318   0.507  0.00  0.00    +0.001 C 
ATOM     13  C   UNL     1     -33.277  18.822   1.327  0.00  0.00    +0.001 C 
ATOM     14  C   UNL     1     -31.378  22.450  -1.300  0.00  0.00    +0.015 C 
ATOM     15  C   UNL     1     -32.461  23.259  -0.967  0.00  0.00    +0.001 C 
BRANCH   9  16
ATOM     16  N   UNL     1     -30.182  20.365  -1.186  0.00  0.00    -0.304 N 
ATOM     17  C   UNL     1     -28.959  20.442  -0.419  0.00  0.00    +0.112 C 
ATOM     18  C   UNL     1     -30.257  19.475  -2.324  0.00  0.00    +0.112 C 
ENDBRANCH   9  16
ENDBRANCH   3   6
ENDBRANCH   1   3
BRANCH   1  19
ATOM     19  C   UNL     1     -36.141  23.152   4.078  0.00  0.00    +0.169 C 
BRANCH  19  21
ATOM     20  O   UNL     1     -35.985  22.241   6.326  0.00  0.00    -0.287 OA
ATOM     21  C   UNL     1     -35.428  22.713   5.339  0.00  0.00    +0.227 C 
ENDBRANCH  19  21
BRANCH  19  22
ATOM     22  C   UNL     1     -36.436  24.657   4.042  0.00  0.00    +0.163 C 
BRANCH  22  23
ATOM     23  O   UNL     1     -37.828  24.858   4.327  0.00  0.00    -0.380 OA
ATOM     24  H   UNL     1     -38.226  25.401   3.630  0.00  0.00    +0.211 HD
ENDBRANCH  22  23
BRANCH  22  25
ATOM     25  C   UNL     1     -35.626  25.507   5.042  0.00  0.00    +0.168 C 
BRANCH  25  26
ATOM     26  O   UNL     1     -36.506  26.523   5.544  0.00  0.00    -0.379 OA
ATOM     27  H   UNL     1     -37.153  26.758   4.860  0.00  0.00    +0.211 HD
ENDBRANCH  25  26
BRANCH  25  28
ATOM     28  C   UNL     1     -34.362  26.175   4.477  0.00  0.00    +0.169 C 
BRANCH  28  29
ATOM     29  O   UNL     1     -33.794  27.054   5.449  0.00  0.00    -0.379 OA
ATOM     30  H   UNL     1     -34.492  27.380   6.038  0.00  0.00    +0.211 HD
ENDBRANCH  28  29
BRANCH  28  31
ATOM     31  C   UNL     1     -34.660  27.006   3.229  0.00  0.00    +0.169 C 
BRANCH  31  32
ATOM     32  O   UNL     1     -35.168  28.274   3.630  0.00  0.00    -0.379 OA
ATOM     33  H   UNL     1     -36.129  28.216   3.746  0.00  0.00    +0.211 HD
ENDBRANCH  31  32
ENDBRANCH  28  31
ENDBRANCH  25  28
ENDBRANCH  22  25
ENDBRANCH  19  22
ENDBRANCH   1  19
TORSDOF 13
ENDMDL
MODEL 6
REMARK VINA RESULT:      -6.4      2.005      3.734
REMARK  Name = 191941
REMARK  13 active torsions:
REMARK  status: ('A' for Active; 'I' for Inactive)
REMARK    1  A    between atoms: N_1  and  S_3
REMARK    2  A    between atoms: N_1  and  C_19
REMARK    3  A    between atoms: S_3  and  C_6
REMARK    4  A    between atoms: C_9  and  N_16
REMARK    5  A    between atoms: C_19  and  C_21
REMARK    6  A    between atoms: C_19  and  C_22
REMARK    7  A    between atoms: C_22  and  O_23
REMARK    8  A    between atoms: C_22  and  C_25
REMARK    9  A    between atoms: C_25  and  O_26
REMARK   10  A    between atoms: C_25  and  C_28
REMARK   11  A    between atoms: C_28  and  O_29
REMARK   12  A    between atoms: C_28  and  C_31
REMARK   13  A    between atoms: C_31  and  O_32
REMARK                            x       y       z     vdW  Elec       q    Type
REMARK                         _______ _______ _______ _____ _____    ______ ____
ROOT
ATOM      1  N   UNL     1     -35.533  21.399   1.009  0.00  0.00    -0.171 NA
ATOM      2  H   UNL     1     -35.151  21.076   1.898  0.00  0.00    +0.149 HD
ENDROOT
BRANCH   1   3
ATOM      3  S   UNL     1     -34.210  21.686  -0.019  0.00  0.00    +0.061 S 
ATOM      4  O   UNL     1     -33.544  22.909   0.384  0.00  0.00    -0.153 OA
ATOM      5  O   UNL     1     -34.639  21.507  -1.393  0.00  0.00    -0.153 OA
BRANCH   3   6
ATOM      6  C   UNL     1     -33.146  20.330   0.370  0.00  0.00    +0.122 C 
ATOM      7  C   UNL     1     -31.816  20.272  -0.058  0.00  0.00    +0.020 C 
ATOM      8  C   UNL     1     -31.030  19.150   0.298  0.00  0.00    +0.015 C 
ATOM      9  C   UNL     1     -29.694  19.084  -0.128  0.00  0.00    +0.048 C 
ATOM     10  C   UNL     1     -33.706  19.312   1.135  0.00  0.00    +0.020 C 
ATOM     11  C   UNL     1     -31.242  21.295  -0.830  0.00  0.00    +0.001 C 
ATOM     12  C   UNL     1     -31.605  18.127   1.070  0.00  0.00    +0.001 C 
ATOM     13  C   UNL     1     -32.934  18.208   1.485  0.00  0.00    +0.001 C 
ATOM     14  C   UNL     1     -29.140  20.109  -0.894  0.00  0.00    +0.015 C 
ATOM     15  C   UNL     1     -29.912  21.213  -1.245  0.00  0.00    +0.001 C 
BRANCH   9  16
ATOM     16  N   UNL     1     -28.864  17.984   0.200  0.00  0.00    -0.304 N 
ATOM     17  C   UNL     1     -28.838  16.813  -0.647  0.00  0.00    +0.112 C 
ATOM     18  C   UNL     1     -28.026  18.031   1.379  0.00  0.00    +0.112 C 
ENDBRANCH   9  16
ENDBRANCH   3   6
ENDBRANCH   1   3
BRANCH   1  19
ATOM     19  C   UNL     1     -36.475  22.499   1.323  0.00  0.00    +0.169 C 
BRANCH  19  21
ATOM     20  O   UNL     1     -38.262  20.876   1.037  0.00  0.00    -0.287 OA
ATOM     21  C   UNL     1     -37.823  22.006   0.842  0.00  0.00    +0.227 C 
ENDBRANCH  19  21
BRANCH  19  22
ATOM     22  C   UNL     1     -36.451  22.831   2.821  0.00  0.00    +0.163 C 
BRANCH  22  23
ATOM     23  O   UNL     1     -37.739  22.531   3.377  0.00  0.00    -0.380 OA
ATOM     24  H   UNL     1     -37.704  22.621   4.342  0.00  0.00    +0.211 HD
ENDBRANCH  22  23
BRANCH  22  25
ATOM     25  C   UNL     1     -35.396  22.066   3.645  0.00  0.00    +0.168 C 
BRANCH  25  26
ATOM     26  O   UNL     1     -35.855  20.713   3.768  0.00  0.00    -0.379 OA
ATOM     27  H   UNL     1     -36.824  20.702   3.811  0.00  0.00    +0.211 HD
ENDBRANCH  25  26
BRANCH  25  28
ATOM     28  C   UNL     1     -35.111  22.628   5.048  0.00  0.00    +0.169 C 
BRANCH  28  29
ATOM     29  O   UNL     1     -36.146  22.239   5.952  0.00  0.00    -0.379 OA
ATOM     30  H   UNL     1     -36.097  21.283   6.109  0.00  0.00    +0.211 HD
ENDBRANCH  28  29
BRANCH  28  31
ATOM     31  C   UNL     1     -35.049  24.155   5.052  0.00  0.00    +0.169 C 
BRANCH  31  32
ATOM     32  O   UNL     1     -33.717  24.563   4.752  0.00  0.00    -0.379 OA
ATOM     33  H   UNL     1     -33.523  24.374   3.821  0.00  0.00    +0.211 HD
ENDBRANCH  31  32
ENDBRANCH  28  31
ENDBRANCH  25  28
ENDBRANCH  22  25
ENDBRANCH  19  22
ENDBRANCH   1  19
TORSDOF 13
ENDMDL
MODEL 7
REMARK VINA RESULT:      -6.4      1.686      3.023
REMARK  Name = 191941
REMARK  13 active torsions:
REMARK  status: ('A' for Active; 'I' for Inactive)
REMARK    1  A    between atoms: N_1  and  S_3
REMARK    2  A    between atoms: N_1  and  C_19
REMARK    3  A    between atoms: S_3  and  C_6
REMARK    4  A    between atoms: C_9  and  N_16
REMARK    5  A    between atoms: C_19  and  C_21
REMARK    6  A    between atoms: C_19  and  C_22
REMARK    7  A    between atoms: C_22  and  O_23
REMARK    8  A    between atoms: C_22  and  C_25
REMARK    9  A    between atoms: C_25  and  O_26
REMARK   10  A    between atoms: C_25  and  C_28
REMARK   11  A    between atoms: C_28  and  O_29
REMARK   12  A    between atoms: C_28  and  C_31
REMARK   13  A    between atoms: C_31  and  O_32
REMARK                            x       y       z     vdW  Elec       q    Type
REMARK                         _______ _______ _______ _____ _____    ______ ____
ROOT
ATOM      1  N   UNL     1     -36.245  23.248   1.924  0.00  0.00    -0.171 NA
ATOM      2  H   UNL     1     -35.869  23.093   2.860  0.00  0.00    +0.149 HD
ENDROOT
BRANCH   1   3
ATOM      3  S   UNL     1     -34.916  23.497   0.894  0.00  0.00    +0.061 S 
ATOM      4  O   UNL     1     -33.981  24.407   1.528  0.00  0.00    -0.153 OA
ATOM      5  O   UNL     1     -35.406  23.768  -0.444  0.00  0.00    -0.153 OA
BRANCH   3   6
ATOM      6  C   UNL     1     -34.178  21.892   0.858  0.00  0.00    +0.122 C 
ATOM      7  C   UNL     1     -32.997  21.624   0.157  0.00  0.00    +0.020 C 
ATOM      8  C   UNL     1     -32.471  20.309   0.180  0.00  0.00    +0.015 C 
ATOM      9  C   UNL     1     -31.287  20.032  -0.521  0.00  0.00    +0.048 C 
ATOM     10  C   UNL     1     -34.838  20.898   1.573  0.00  0.00    +0.020 C 
ATOM     11  C   UNL     1     -32.323  22.620  -0.567  0.00  0.00    +0.001 C 
ATOM     12  C   UNL     1     -33.145  19.312   0.904  0.00  0.00    +0.001 C 
ATOM     13  C   UNL     1     -34.321  19.606   1.596  0.00  0.00    +0.001 C 
ATOM     14  C   UNL     1     -30.631  21.035  -1.235  0.00  0.00    +0.015 C 
ATOM     15  C   UNL     1     -31.148  22.326  -1.258  0.00  0.00    +0.001 C 
BRANCH   9  16
ATOM     16  N   UNL     1     -30.717  18.735  -0.531  0.00  0.00    -0.304 N 
ATOM     17  C   UNL     1     -29.721  18.369   0.450  0.00  0.00    +0.112 C 
ATOM     18  C   UNL     1     -31.140  17.762  -1.516  0.00  0.00    +0.112 C 
ENDBRANCH   9  16
ENDBRANCH   3   6
ENDBRANCH   1   3
BRANCH   1  19
ATOM     19  C   UNL     1     -37.287  24.293   2.049  0.00  0.00    +0.169 C 
BRANCH  19  21
ATOM     20  O   UNL     1     -38.862  22.469   2.368  0.00  0.00    -0.287 OA
ATOM     21  C   UNL     1     -38.599  23.559   1.868  0.00  0.00    +0.227 C 
ENDBRANCH  19  21
BRANCH  19  22
ATOM     22  C   UNL     1     -37.179  25.017   3.397  0.00  0.00    +0.163 C 
BRANCH  22  23
ATOM     23  O   UNL     1     -38.428  24.884   4.090  0.00  0.00    -0.380 OA
ATOM     24  H   UNL     1     -38.362  24.170   4.743  0.00  0.00    +0.211 HD
ENDBRANCH  22  23
BRANCH  22  25
ATOM     25  C   UNL     1     -36.068  24.499   4.332  0.00  0.00    +0.168 C 
BRANCH  25  26
ATOM     26  O   UNL     1     -36.566  23.310   4.962  0.00  0.00    -0.379 OA
ATOM     27  H   UNL     1     -37.250  23.548   5.608  0.00  0.00    +0.211 HD
ENDBRANCH  25  26
BRANCH  25  28
ATOM     28  C   UNL     1     -35.598  25.482   5.417  0.00  0.00    +0.169 C 
BRANCH  28  29
ATOM     29  O   UNL     1     -36.522  26.566   5.531  0.00  0.00    -0.379 OA
ATOM     30  H   UNL     1     -37.428  26.229   5.453  0.00  0.00    +0.211 HD
ENDBRANCH  28  29
BRANCH  28  31
ATOM     31  C   UNL     1     -34.229  26.079   5.096  0.00  0.00    +0.169 C 
BRANCH  31  32
ATOM     32  O   UNL     1     -33.407  25.067   4.523  0.00  0.00    -0.379 OA
ATOM     33  H   UNL     1     -33.498  24.248   5.035  0.00  0.00    +0.211 HD
ENDBRANCH  31  32
ENDBRANCH  28  31
ENDBRANCH  25  28
ENDBRANCH  22  25
ENDBRANCH  19  22
ENDBRANCH   1  19
TORSDOF 13
ENDMDL
MODEL 8
REMARK VINA RESULT:      -6.4      4.985      7.847
REMARK  Name = 191941
REMARK  13 active torsions:
REMARK  status: ('A' for Active; 'I' for Inactive)
REMARK    1  A    between atoms: N_1  and  S_3
REMARK    2  A    between atoms: N_1  and  C_19
REMARK    3  A    between atoms: S_3  and  C_6
REMARK    4  A    between atoms: C_9  and  N_16
REMARK    5  A    between atoms: C_19  and  C_21
REMARK    6  A    between atoms: C_19  and  C_22
REMARK    7  A    between atoms: C_22  and  O_23
REMARK    8  A    between atoms: C_22  and  C_25
REMARK    9  A    between atoms: C_25  and  O_26
REMARK   10  A    between atoms: C_25  and  C_28
REMARK   11  A    between atoms: C_28  and  O_29
REMARK   12  A    between atoms: C_28  and  C_31
REMARK   13  A    between atoms: C_31  and  O_32
REMARK                            x       y       z     vdW  Elec       q    Type
REMARK                         _______ _______ _______ _____ _____    ______ ____
ROOT
ATOM      1  N   UNL     1     -31.953  28.795   5.029  0.00  0.00    -0.171 NA
ATOM      2  H   UNL     1     -31.891  28.136   5.807  0.00  0.00    +0.149 HD
ENDROOT
BRANCH   1   3
ATOM      3  S   UNL     1     -32.052  27.868   3.608  0.00  0.00    +0.061 S 
ATOM      4  O   UNL     1     -30.774  27.229   3.361  0.00  0.00    -0.153 OA
ATOM      5  O   UNL     1     -32.681  28.667   2.572  0.00  0.00    -0.153 OA
BRANCH   3   6
ATOM      6  C   UNL     1     -33.210  26.616   4.069  0.00  0.00    +0.122 C 
ATOM      7  C   UNL     1     -33.658  25.641   3.172  0.00  0.00    +0.020 C 
ATOM      8  C   UNL     1     -34.587  24.672   3.622  0.00  0.00    +0.015 C 
ATOM      9  C   UNL     1     -35.043  23.690   2.728  0.00  0.00    +0.048 C 
ATOM     10  C   UNL     1     -33.657  26.650   5.385  0.00  0.00    +0.020 C 
ATOM     11  C   UNL     1     -33.213  25.598   1.841  0.00  0.00    +0.001 C 
ATOM     12  C   UNL     1     -35.033  24.715   4.953  0.00  0.00    +0.001 C 
ATOM     13  C   UNL     1     -34.570  25.698   5.829  0.00  0.00    +0.001 C 
ATOM     14  C   UNL     1     -34.589  23.663   1.410  0.00  0.00    +0.015 C 
ATOM     15  C   UNL     1     -33.676  24.615   0.966  0.00  0.00    +0.001 C 
BRANCH   9  16
ATOM     16  N   UNL     1     -35.972  22.697   3.127  0.00  0.00    -0.304 N 
ATOM     17  C   UNL     1     -35.512  21.484   3.765  0.00  0.00    +0.112 C 
ATOM     18  C   UNL     1     -37.388  22.897   2.911  0.00  0.00    +0.112 C 
ENDBRANCH   9  16
ENDBRANCH   3   6
ENDBRANCH   1   3
BRANCH   1  19
ATOM     19  C   UNL     1     -30.849  29.766   5.201  0.00  0.00    +0.169 C 
BRANCH  19  21
ATOM     20  O   UNL     1     -30.884  32.112   4.564  0.00  0.00    -0.287 OA
ATOM     21  C   UNL     1     -31.483  31.122   4.975  0.00  0.00    +0.227 C 
ENDBRANCH  19  21
BRANCH  19  22
ATOM     22  C   UNL     1     -30.203  29.624   6.586  0.00  0.00    +0.163 C 
BRANCH  22  23
ATOM     23  O   UNL     1     -31.221  29.270   7.532  0.00  0.00    -0.380 OA
ATOM     24  H   UNL     1     -31.467  28.340   7.412  0.00  0.00    +0.211 HD
ENDBRANCH  22  23
BRANCH  22  25
ATOM     25  C   UNL     1     -29.087  28.564   6.682  0.00  0.00    +0.168 C 
BRANCH  25  26
ATOM     26  O   UNL     1     -29.726  27.288   6.820  0.00  0.00    -0.379 OA
ATOM     27  H   UNL     1     -29.617  26.781   6.001  0.00  0.00    +0.211 HD
ENDBRANCH  25  26
BRANCH  25  28
ATOM     28  C   UNL     1     -28.089  28.752   7.837  0.00  0.00    +0.169 C 
BRANCH  28  29
ATOM     29  O   UNL     1     -28.757  29.282   8.983  0.00  0.00    -0.379 OA
ATOM     30  H   UNL     1     -28.907  28.573   9.627  0.00  0.00    +0.211 HD
ENDBRANCH  28  29
BRANCH  28  31
ATOM     31  C   UNL     1     -26.965  29.722   7.473  0.00  0.00    +0.169 C 
BRANCH  31  32
ATOM     32  O   UNL     1     -26.939  30.776   8.430  0.00  0.00    -0.379 OA
ATOM     33  H   UNL     1     -26.129  30.711   8.960  0.00  0.00    +0.211 HD
ENDBRANCH  31  32
ENDBRANCH  28  31
ENDBRANCH  25  28
ENDBRANCH  22  25
ENDBRANCH  19  22
ENDBRANCH   1  19
TORSDOF 13
ENDMDL
MODEL 9
REMARK VINA RESULT:      -6.3      2.580      3.395
REMARK  Name = 191941
REMARK  13 active torsions:
REMARK  status: ('A' for Active; 'I' for Inactive)
REMARK    1  A    between atoms: N_1  and  S_3
REMARK    2  A    between atoms: N_1  and  C_19
REMARK    3  A    between atoms: S_3  and  C_6
REMARK    4  A    between atoms: C_9  and  N_16
REMARK    5  A    between atoms: C_19  and  C_21
REMARK    6  A    between atoms: C_19  and  C_22
REMARK    7  A    between atoms: C_22  and  O_23
REMARK    8  A    between atoms: C_22  and  C_25
REMARK    9  A    between atoms: C_25  and  O_26
REMARK   10  A    between atoms: C_25  and  C_28
REMARK   11  A    between atoms: C_28  and  O_29
REMARK   12  A    between atoms: C_28  and  C_31
REMARK   13  A    between atoms: C_31  and  O_32
REMARK                            x       y       z     vdW  Elec       q    Type
REMARK                         _______ _______ _______ _____ _____    ______ ____
ROOT
ATOM      1  N   UNL     1     -35.691  22.474   3.121  0.00  0.00    -0.171 NA
ATOM      2  H   UNL     1     -35.031  23.169   2.771  0.00  0.00    +0.149 HD
ENDROOT
BRANCH   1   3
ATOM      3  S   UNL     1     -36.621  21.966   1.792  0.00  0.00    +0.061 S 
ATOM      4  O   UNL     1     -36.538  22.961   0.740  0.00  0.00    -0.153 OA
ATOM      5  O   UNL     1     -37.914  21.516   2.271  0.00  0.00    -0.153 OA
BRANCH   3   6
ATOM      6  C   UNL     1     -35.740  20.531   1.258  0.00  0.00    +0.122 C 
ATOM      7  C   UNL     1     -36.296  19.590   0.386  0.00  0.00    +0.020 C 
ATOM      8  C   UNL     1     -35.521  18.467   0.006  0.00  0.00    +0.015 C 
ATOM      9  C   UNL     1     -36.073  17.517  -0.869  0.00  0.00    +0.048 C 
ATOM     10  C   UNL     1     -34.449  20.385   1.754  0.00  0.00    +0.020 C 
ATOM     11  C   UNL     1     -37.598  19.728  -0.121  0.00  0.00    +0.001 C 
ATOM     12  C   UNL     1     -34.219  18.328   0.513  0.00  0.00    +0.001 C 
ATOM     13  C   UNL     1     -33.687  19.282   1.381  0.00  0.00    +0.001 C 
ATOM     14  C   UNL     1     -37.368  17.671  -1.362  0.00  0.00    +0.015 C 
ATOM     15  C   UNL     1     -38.130  18.774  -0.989  0.00  0.00    +0.001 C 
BRANCH   9  16
ATOM     16  N   UNL     1     -35.341  16.375  -1.281  0.00  0.00    -0.304 N 
ATOM     17  C   UNL     1     -35.395  15.157  -0.504  0.00  0.00    +0.112 C 
ATOM     18  C   UNL     1     -34.547  16.417  -2.489  0.00  0.00    +0.112 C 
ENDBRANCH   9  16
ENDBRANCH   3   6
ENDBRANCH   1   3
BRANCH   1  19
ATOM     19  C   UNL     1     -36.357  23.073   4.301  0.00  0.00    +0.169 C 
BRANCH  19  21
ATOM     20  O   UNL     1     -35.904  22.170   6.512  0.00  0.00    -0.287 OA
ATOM     21  C   UNL     1     -35.487  22.683   5.478  0.00  0.00    +0.227 C 
ENDBRANCH  19  21
BRANCH  19  22
ATOM     22  C   UNL     1     -36.507  24.590   4.135  0.00  0.00    +0.163 C 
BRANCH  22  23
ATOM     23  O   UNL     1     -37.886  24.938   4.323  0.00  0.00    -0.380 OA
ATOM     24  H   UNL     1     -38.144  24.759   5.240  0.00  0.00    +0.211 HD
ENDBRANCH  22  23
BRANCH  22  25
ATOM     25  C   UNL     1     -35.673  25.442   5.114  0.00  0.00    +0.168 C 
BRANCH  25  26
ATOM     26  O   UNL     1     -36.530  26.482   5.605  0.00  0.00    -0.379 OA
ATOM     27  H   UNL     1     -36.118  27.345   5.442  0.00  0.00    +0.211 HD
ENDBRANCH  25  26
BRANCH  25  28
ATOM     28  C   UNL     1     -34.401  26.076   4.529  0.00  0.00    +0.169 C 
BRANCH  28  29
ATOM     29  O   UNL     1     -33.807  26.958   5.483  0.00  0.00    -0.379 OA
ATOM     30  H   UNL     1     -32.931  26.624   5.731  0.00  0.00    +0.211 HD
ENDBRANCH  28  29
BRANCH  28  31
ATOM     31  C   UNL     1     -34.694  26.893   3.271  0.00  0.00    +0.169 C 
BRANCH  31  32
ATOM     32  O   UNL     1     -35.293  28.128   3.653  0.00  0.00    -0.379 OA
ATOM     33  H   UNL     1     -34.930  28.845   3.110  0.00  0.00    +0.211 HD
ENDBRANCH  31  32
ENDBRANCH  28  31
ENDBRANCH  25  28
ENDBRANCH  22  25
ENDBRANCH  19  22
ENDBRANCH   1  19
TORSDOF 13
ENDMDL
