MODEL 1
REMARK VINA RESULT:      -5.3      0.000      0.000
REMARK  Name = 195367
REMARK  8 active torsions:
REMARK  status: ('A' for Active; 'I' for Inactive)
REMARK    1  A    between atoms: C_1  and  N_7
REMARK    2  A    between atoms: C_1  and  C_12
REMARK    3  A    between atoms: C_3  and  C_21
REMARK    4  A    between atoms: C_12  and  O_13
REMARK    5  A    between atoms: O_13  and  P_14
REMARK    6  A    between atoms: P_14  and  O_16
REMARK    7  A    between atoms: P_14  and  O_18
REMARK    8  A    between atoms: C_21  and  O_22
REMARK                            x       y       z     vdW  Elec       q    Type
REMARK                         _______ _______ _______ _____ _____    ______ ____
ROOT
ATOM      1  C   UNL     1     -36.025  24.420   2.913  0.00  0.00    +0.044 C 
ATOM      2  C   UNL     1     -34.677  23.849   3.389  0.00  0.00    +0.002 C 
ATOM      3  C   UNL     1     -34.546  23.734   4.914  0.00  0.00    +0.097 C 
ATOM      4  C   UNL     1     -36.407  25.697   3.673  0.00  0.00    -0.010 C 
ATOM      5  C   UNL     1     -34.974  25.011   5.638  0.00  0.00    +0.011 C 
ATOM      6  C   UNL     1     -36.344  25.513   5.188  0.00  0.00    -0.001 C 
ENDROOT
BRANCH   1   7
ATOM      7  N   UNL     1     -35.940  24.723   1.482  0.00  0.00    +0.390 N 
ATOM      8  H   UNL     1     -36.769  24.365   1.008  0.00  0.00    -0.088 HD
ATOM      9  H   UNL     1     -35.107  24.283   1.090  0.00  0.00    -0.088 HD
ATOM     10  H   UNL     1     -35.884  25.733   1.350  0.00  0.00    -0.088 HD
ENDBRANCH   1   7
BRANCH   1  12
ATOM     11  O   UNL     1     -38.267  23.628   3.368  0.00  0.00    -0.252 OA
ATOM     12  C   UNL     1     -37.118  23.387   3.026  0.00  0.00    +0.305 C 
BRANCH  12  13
ATOM     13  O   UNL     1     -36.636  22.161   2.695  0.00  0.00    -0.372 OA
BRANCH  13  14
ATOM     14  P   UNL     1     -37.393  21.064   1.779  0.00  0.00    +0.530 P 
ATOM     15  O   UNL     1     -37.207  21.270   0.304  0.00  0.00    -0.216 OA
BRANCH  14  16
ATOM     16  O   UNL     1     -36.854  19.645   2.338  0.00  0.00    -0.293 OA
ATOM     17  H   UNL     1     -35.886  19.667   2.398  0.00  0.00    +0.223 HD
ENDBRANCH  14  16
BRANCH  14  18
ATOM     18  O   UNL     1     -38.928  21.120   2.284  0.00  0.00    -0.293 OA
ATOM     19  H   UNL     1     -39.013  20.624   3.113  0.00  0.00    +0.223 HD
ENDBRANCH  14  18
ENDBRANCH  13  14
ENDBRANCH  12  13
ENDBRANCH   1  12
BRANCH   3  21
ATOM     20  O   UNL     1     -36.081  22.556   6.370  0.00  0.00    -0.250 OA
ATOM     21  C   UNL     1     -35.290  22.538   5.439  0.00  0.00    +0.313 C 
BRANCH  21  22
ATOM     22  O   UNL     1     -34.963  21.424   4.738  0.00  0.00    -0.480 OA
ATOM     23  H   UNL     1     -34.062  21.188   4.629  0.00  0.00    +0.295 HD
ENDBRANCH  21  22
ENDBRANCH   3  21
TORSDOF 8
ENDMDL
MODEL 2
REMARK VINA RESULT:      -5.3      2.023      3.315
REMARK  Name = 195367
REMARK  8 active torsions:
REMARK  status: ('A' for Active; 'I' for Inactive)
REMARK    1  A    between atoms: C_1  and  N_7
REMARK    2  A    between atoms: C_1  and  C_12
REMARK    3  A    between atoms: C_3  and  C_21
REMARK    4  A    between atoms: C_12  and  O_13
REMARK    5  A    between atoms: O_13  and  P_14
REMARK    6  A    between atoms: P_14  and  O_16
REMARK    7  A    between atoms: P_14  and  O_18
REMARK    8  A    between atoms: C_21  and  O_22
REMARK                            x       y       z     vdW  Elec       q    Type
REMARK                         _______ _______ _______ _____ _____    ______ ____
ROOT
ATOM      1  C   UNL     1     -35.739  23.962   4.823  0.00  0.00    +0.044 C 
ATOM      2  C   UNL     1     -36.315  25.325   5.247  0.00  0.00    +0.002 C 
ATOM      3  C   UNL     1     -35.973  26.477   4.290  0.00  0.00    +0.097 C 
ATOM      4  C   UNL     1     -34.251  24.055   4.462  0.00  0.00    -0.010 C 
ATOM      5  C   UNL     1     -34.490  26.512   3.922  0.00  0.00    +0.011 C 
ATOM      6  C   UNL     1     -33.968  25.160   3.445  0.00  0.00    -0.001 C 
ENDROOT
BRANCH   1   7
ATOM      7  N   UNL     1     -35.906  23.008   5.923  0.00  0.00    +0.390 N 
ATOM      8  H   UNL     1     -35.415  23.351   6.749  0.00  0.00    -0.088 HD
ATOM      9  H   UNL     1     -35.521  22.104   5.650  0.00  0.00    -0.088 HD
ATOM     10  H   UNL     1     -36.898  22.904   6.136  0.00  0.00    -0.088 HD
ENDBRANCH   1   7
BRANCH   1  12
ATOM     11  O   UNL     1     -37.738  23.492   3.540  0.00  0.00    -0.252 OA
ATOM     12  C   UNL     1     -36.528  23.376   3.679  0.00  0.00    +0.305 C 
BRANCH  12  13
ATOM     13  O   UNL     1     -35.700  22.707   2.836  0.00  0.00    -0.372 OA
BRANCH  13  14
ATOM     14  P   UNL     1     -35.629  21.101   2.658  0.00  0.00    +0.530 P 
ATOM     15  O   UNL     1     -34.683  20.649   1.584  0.00  0.00    -0.216 OA
BRANCH  14  16
ATOM     16  O   UNL     1     -35.282  20.555   4.140  0.00  0.00    -0.293 OA
ATOM     17  H   UNL     1     -36.031  20.041   4.479  0.00  0.00    +0.223 HD
ENDBRANCH  14  16
BRANCH  14  18
ATOM     18  O   UNL     1     -37.169  20.661   2.434  0.00  0.00    -0.293 OA
ATOM     19  H   UNL     1     -37.203  19.906   1.826  0.00  0.00    +0.223 HD
ENDBRANCH  14  18
ENDBRANCH  13  14
ENDBRANCH  12  13
ENDBRANCH   1  12
BRANCH   3  21
ATOM     20  O   UNL     1     -36.422  26.445   1.911  0.00  0.00    -0.250 OA
ATOM     21  C   UNL     1     -36.836  26.443   3.061  0.00  0.00    +0.313 C 
BRANCH  21  22
ATOM     22  O   UNL     1     -38.150  26.412   3.397  0.00  0.00    -0.480 OA
ATOM     23  H   UNL     1     -38.702  27.143   3.196  0.00  0.00    +0.295 HD
ENDBRANCH  21  22
ENDBRANCH   3  21
TORSDOF 8
ENDMDL
MODEL 3
REMARK VINA RESULT:      -5.2      1.867      2.954
REMARK  Name = 195367
REMARK  8 active torsions:
REMARK  status: ('A' for Active; 'I' for Inactive)
REMARK    1  A    between atoms: C_1  and  N_7
REMARK    2  A    between atoms: C_1  and  C_12
REMARK    3  A    between atoms: C_3  and  C_21
REMARK    4  A    between atoms: C_12  and  O_13
REMARK    5  A    between atoms: O_13  and  P_14
REMARK    6  A    between atoms: P_14  and  O_16
REMARK    7  A    between atoms: P_14  and  O_18
REMARK    8  A    between atoms: C_21  and  O_22
REMARK                            x       y       z     vdW  Elec       q    Type
REMARK                         _______ _______ _______ _____ _____    ______ ____
ROOT
ATOM      1  C   UNL     1     -36.290  24.706   3.050  0.00  0.00    +0.044 C 
ATOM      2  C   UNL     1     -35.031  23.832   3.183  0.00  0.00    +0.002 C 
ATOM      3  C   UNL     1     -34.650  23.494   4.632  0.00  0.00    +0.097 C 
ATOM      4  C   UNL     1     -36.247  25.921   3.986  0.00  0.00    -0.010 C 
ATOM      5  C   UNL     1     -34.657  24.723   5.541  0.00  0.00    +0.011 C 
ATOM      6  C   UNL     1     -35.947  25.531   5.432  0.00  0.00    -0.001 C 
ENDROOT
BRANCH   1   7
ATOM      7  N   UNL     1     -36.407  25.172   1.666  0.00  0.00    +0.390 N 
ATOM      8  H   UNL     1     -37.229  25.769   1.576  0.00  0.00    -0.088 HD
ATOM      9  H   UNL     1     -36.500  24.370   1.043  0.00  0.00    -0.088 HD
ATOM     10  H   UNL     1     -35.573  25.703   1.414  0.00  0.00    -0.088 HD
ENDBRANCH   1   7
BRANCH   1  12
ATOM     11  O   UNL     1     -37.636  22.694   3.074  0.00  0.00    -0.252 OA
ATOM     12  C   UNL     1     -37.538  23.893   3.292  0.00  0.00    +0.305 C 
BRANCH  12  13
ATOM     13  O   UNL     1     -38.524  24.688   3.782  0.00  0.00    -0.372 OA
BRANCH  13  14
ATOM     14  P   UNL     1     -39.797  25.238   2.949  0.00  0.00    +0.530 P 
ATOM     15  O   UNL     1     -40.443  24.205   2.073  0.00  0.00    -0.216 OA
BRANCH  14  16
ATOM     16  O   UNL     1     -40.765  25.869   4.080  0.00  0.00    -0.293 OA
ATOM     17  H   UNL     1     -40.313  25.852   4.938  0.00  0.00    +0.223 HD
ENDBRANCH  14  16
BRANCH  14  18
ATOM     18  O   UNL     1     -39.225  26.531   2.164  0.00  0.00    -0.293 OA
ATOM     19  H   UNL     1     -38.617  26.242   1.465  0.00  0.00    +0.223 HD
ENDBRANCH  14  18
ENDBRANCH  13  14
ENDBRANCH  12  13
ENDBRANCH   1  12
BRANCH   3  21
ATOM     20  O   UNL     1     -36.147  22.469   6.235  0.00  0.00    -0.250 OA
ATOM     21  C   UNL     1     -35.521  22.403   5.188  0.00  0.00    +0.313 C 
BRANCH  21  22
ATOM     22  O   UNL     1     -35.519  21.324   4.367  0.00  0.00    -0.480 OA
ATOM     23  H   UNL     1     -34.734  20.824   4.252  0.00  0.00    +0.295 HD
ENDBRANCH  21  22
ENDBRANCH   3  21
TORSDOF 8
ENDMDL
MODEL 4
REMARK VINA RESULT:      -5.2      3.079      3.943
REMARK  Name = 195367
REMARK  8 active torsions:
REMARK  status: ('A' for Active; 'I' for Inactive)
REMARK    1  A    between atoms: C_1  and  N_7
REMARK    2  A    between atoms: C_1  and  C_12
REMARK    3  A    between atoms: C_3  and  C_21
REMARK    4  A    between atoms: C_12  and  O_13
REMARK    5  A    between atoms: O_13  and  P_14
REMARK    6  A    between atoms: P_14  and  O_16
REMARK    7  A    between atoms: P_14  and  O_18
REMARK    8  A    between atoms: C_21  and  O_22
REMARK                            x       y       z     vdW  Elec       q    Type
REMARK                         _______ _______ _______ _____ _____    ______ ____
ROOT
ATOM      1  C   UNL     1     -36.366  23.590   3.535  0.00  0.00    +0.044 C 
ATOM      2  C   UNL     1     -36.031  23.937   4.997  0.00  0.00    +0.002 C 
ATOM      3  C   UNL     1     -34.970  25.036   5.155  0.00  0.00    +0.097 C 
ATOM      4  C   UNL     1     -35.101  23.368   2.694  0.00  0.00    -0.010 C 
ATOM      5  C   UNL     1     -33.745  24.799   4.272  0.00  0.00    +0.011 C 
ATOM      6  C   UNL     1     -34.111  24.524   2.817  0.00  0.00    -0.001 C 
ENDROOT
BRANCH   1   7
ATOM      7  N   UNL     1     -37.181  22.373   3.505  0.00  0.00    +0.390 N 
ATOM      8  H   UNL     1     -37.690  22.282   4.384  0.00  0.00    -0.088 HD
ATOM      9  H   UNL     1     -36.577  21.562   3.376  0.00  0.00    -0.088 HD
ATOM     10  H   UNL     1     -37.846  22.428   2.732  0.00  0.00    -0.088 HD
ENDBRANCH   1   7
BRANCH   1  12
ATOM     11  O   UNL     1     -36.919  25.331   1.946  0.00  0.00    -0.252 OA
ATOM     12  C   UNL     1     -37.236  24.655   2.915  0.00  0.00    +0.305 C 
BRANCH  12  13
ATOM     13  O   UNL     1     -38.411  24.747   3.589  0.00  0.00    -0.372 OA
BRANCH  13  14
ATOM     14  P   UNL     1     -39.832  25.189   2.955  0.00  0.00    +0.530 P 
ATOM     15  O   UNL     1     -40.429  24.169   2.030  0.00  0.00    -0.216 OA
BRANCH  14  16
ATOM     16  O   UNL     1     -40.742  25.550   4.243  0.00  0.00    -0.293 OA
ATOM     17  H   UNL     1     -41.011  24.732   4.689  0.00  0.00    +0.223 HD
ENDBRANCH  14  16
BRANCH  14  18
ATOM     18  O   UNL     1     -39.532  26.626   2.278  0.00  0.00    -0.293 OA
ATOM     19  H   UNL     1     -38.574  26.779   2.257  0.00  0.00    +0.223 HD
ENDBRANCH  14  18
ENDBRANCH  13  14
ENDBRANCH  12  13
ENDBRANCH   1  12
BRANCH   3  21
ATOM     20  O   UNL     1     -35.040  27.276   4.240  0.00  0.00    -0.250 OA
ATOM     21  C   UNL     1     -35.555  26.400   4.918  0.00  0.00    +0.313 C 
BRANCH  21  22
ATOM     22  O   UNL     1     -36.740  26.532   5.564  0.00  0.00    -0.480 OA
ATOM     23  H   UNL     1     -37.194  27.353   5.546  0.00  0.00    +0.295 HD
ENDBRANCH  21  22
ENDBRANCH   3  21
TORSDOF 8
ENDMDL
MODEL 5
REMARK VINA RESULT:      -5.1      2.026      3.428
REMARK  Name = 195367
REMARK  8 active torsions:
REMARK  status: ('A' for Active; 'I' for Inactive)
REMARK    1  A    between atoms: C_1  and  N_7
REMARK    2  A    between atoms: C_1  and  C_12
REMARK    3  A    between atoms: C_3  and  C_21
REMARK    4  A    between atoms: C_12  and  O_13
REMARK    5  A    between atoms: O_13  and  P_14
REMARK    6  A    between atoms: P_14  and  O_16
REMARK    7  A    between atoms: P_14  and  O_18
REMARK    8  A    between atoms: C_21  and  O_22
REMARK                            x       y       z     vdW  Elec       q    Type
REMARK                         _______ _______ _______ _____ _____    ______ ____
ROOT
ATOM      1  C   UNL     1     -35.794  23.652   4.828  0.00  0.00    +0.044 C 
ATOM      2  C   UNL     1     -36.526  24.955   5.194  0.00  0.00    +0.002 C 
ATOM      3  C   UNL     1     -36.035  26.190   4.426  0.00  0.00    +0.097 C 
ATOM      4  C   UNL     1     -34.269  23.829   4.835  0.00  0.00    -0.010 C 
ATOM      5  C   UNL     1     -34.510  26.310   4.422  0.00  0.00    +0.011 C 
ATOM      6  C   UNL     1     -33.818  25.019   3.991  0.00  0.00    -0.001 C 
ENDROOT
BRANCH   1   7
ATOM      7  N   UNL     1     -36.159  22.609   5.790  0.00  0.00    +0.390 N 
ATOM      8  H   UNL     1     -36.503  21.789   5.289  0.00  0.00    -0.088 HD
ATOM      9  H   UNL     1     -36.888  22.959   6.411  0.00  0.00    -0.088 HD
ATOM     10  H   UNL     1     -35.339  22.351   6.340  0.00  0.00    -0.088 HD
ENDBRANCH   1   7
BRANCH   1  12
ATOM     11  O   UNL     1     -35.519  22.730   2.606  0.00  0.00    -0.252 OA
ATOM     12  C   UNL     1     -36.261  23.128   3.493  0.00  0.00    +0.305 C 
BRANCH  12  13
ATOM     13  O   UNL     1     -37.617  23.167   3.426  0.00  0.00    -0.372 OA
BRANCH  13  14
ATOM     14  P   UNL     1     -38.523  22.562   2.230  0.00  0.00    +0.530 P 
ATOM     15  O   UNL     1     -39.990  22.842   2.375  0.00  0.00    -0.216 OA
BRANCH  14  16
ATOM     16  O   UNL     1     -37.848  23.157   0.886  0.00  0.00    -0.293 OA
ATOM     17  H   UNL     1     -37.933  24.123   0.882  0.00  0.00    +0.223 HD
ENDBRANCH  14  16
BRANCH  14  18
ATOM     18  O   UNL     1     -38.133  20.992   2.196  0.00  0.00    -0.293 OA
ATOM     19  H   UNL     1     -37.176  20.901   2.062  0.00  0.00    +0.223 HD
ENDBRANCH  14  18
ENDBRANCH  13  14
ENDBRANCH  12  13
ENDBRANCH   1  12
BRANCH   3  21
ATOM     20  O   UNL     1     -35.911  26.254   2.009  0.00  0.00    -0.250 OA
ATOM     21  C   UNL     1     -36.584  26.220   3.027  0.00  0.00    +0.313 C 
BRANCH  21  22
ATOM     22  O   UNL     1     -37.940  26.208   3.045  0.00  0.00    -0.480 OA
ATOM     23  H   UNL     1     -38.400  26.379   3.845  0.00  0.00    +0.295 HD
ENDBRANCH  21  22
ENDBRANCH   3  21
TORSDOF 8
ENDMDL
MODEL 6
REMARK VINA RESULT:      -5.1      3.738      4.831
REMARK  Name = 195367
REMARK  8 active torsions:
REMARK  status: ('A' for Active; 'I' for Inactive)
REMARK    1  A    between atoms: C_1  and  N_7
REMARK    2  A    between atoms: C_1  and  C_12
REMARK    3  A    between atoms: C_3  and  C_21
REMARK    4  A    between atoms: C_12  and  O_13
REMARK    5  A    between atoms: O_13  and  P_14
REMARK    6  A    between atoms: P_14  and  O_16
REMARK    7  A    between atoms: P_14  and  O_18
REMARK    8  A    between atoms: C_21  and  O_22
REMARK                            x       y       z     vdW  Elec       q    Type
REMARK                         _______ _______ _______ _____ _____    ______ ____
ROOT
ATOM      1  C   UNL     1     -36.968  24.720   3.894  0.00  0.00    +0.044 C 
ATOM      2  C   UNL     1     -36.441  25.295   5.220  0.00  0.00    +0.002 C 
ATOM      3  C   UNL     1     -35.007  24.867   5.565  0.00  0.00    +0.097 C 
ATOM      4  C   UNL     1     -36.722  23.209   3.785  0.00  0.00    -0.010 C 
ATOM      5  C   UNL     1     -34.791  23.361   5.406  0.00  0.00    +0.011 C 
ATOM      6  C   UNL     1     -35.266  22.837   4.054  0.00  0.00    -0.001 C 
ENDROOT
BRANCH   1   7
ATOM      7  N   UNL     1     -38.407  24.979   3.797  0.00  0.00    +0.390 N 
ATOM      8  H   UNL     1     -38.923  24.149   4.088  0.00  0.00    -0.088 HD
ATOM      9  H   UNL     1     -38.647  25.209   2.832  0.00  0.00    -0.088 HD
ATOM     10  H   UNL     1     -38.654  25.762   4.404  0.00  0.00    -0.088 HD
ENDBRANCH   1   7
BRANCH   1  12
ATOM     11  O   UNL     1     -35.867  24.891   1.744  0.00  0.00    -0.252 OA
ATOM     12  C   UNL     1     -36.364  25.443   2.715  0.00  0.00    +0.305 C 
BRANCH  12  13
ATOM     13  O   UNL     1     -36.456  26.786   2.896  0.00  0.00    -0.372 OA
BRANCH  13  14
ATOM     14  P   UNL     1     -35.621  27.908   2.083  0.00  0.00    +0.530 P 
ATOM     15  O   UNL     1     -36.302  28.386   0.833  0.00  0.00    -0.216 OA
BRANCH  14  16
ATOM     16  O   UNL     1     -35.336  29.060   3.182  0.00  0.00    -0.293 OA
ATOM     17  H   UNL     1     -34.509  29.517   2.964  0.00  0.00    +0.223 HD
ENDBRANCH  14  16
BRANCH  14  18
ATOM     18  O   UNL     1     -34.172  27.229   1.849  0.00  0.00    -0.293 OA
ATOM     19  H   UNL     1     -33.756  27.055   2.708  0.00  0.00    +0.223 HD
ENDBRANCH  14  18
ENDBRANCH  13  14
ENDBRANCH  12  13
ENDBRANCH   1  12
BRANCH   3  21
ATOM     20  O   UNL     1     -33.165  25.158   4.022  0.00  0.00    -0.250 OA
ATOM     21  C   UNL     1     -33.996  25.646   4.772  0.00  0.00    +0.313 C 
BRANCH  21  22
ATOM     22  O   UNL     1     -34.127  26.976   5.005  0.00  0.00    -0.480 OA
ATOM     23  H   UNL     1     -33.660  27.376   5.713  0.00  0.00    +0.295 HD
ENDBRANCH  21  22
ENDBRANCH   3  21
TORSDOF 8
ENDMDL
MODEL 7
REMARK VINA RESULT:      -5.1      2.143      3.059
REMARK  Name = 195367
REMARK  8 active torsions:
REMARK  status: ('A' for Active; 'I' for Inactive)
REMARK    1  A    between atoms: C_1  and  N_7
REMARK    2  A    between atoms: C_1  and  C_12
REMARK    3  A    between atoms: C_3  and  C_21
REMARK    4  A    between atoms: C_12  and  O_13
REMARK    5  A    between atoms: O_13  and  P_14
REMARK    6  A    between atoms: P_14  and  O_16
REMARK    7  A    between atoms: P_14  and  O_18
REMARK    8  A    between atoms: C_21  and  O_22
REMARK                            x       y       z     vdW  Elec       q    Type
REMARK                         _______ _______ _______ _____ _____    ______ ____
ROOT
ATOM      1  C   UNL     1     -35.929  23.243   3.794  0.00  0.00    +0.044 C 
ATOM      2  C   UNL     1     -35.264  24.144   4.850  0.00  0.00    +0.002 C 
ATOM      3  C   UNL     1     -34.664  25.439   4.285  0.00  0.00    +0.097 C 
ATOM      4  C   UNL     1     -35.027  23.034   2.570  0.00  0.00    -0.010 C 
ATOM      5  C   UNL     1     -33.805  25.193   3.044  0.00  0.00    +0.011 C 
ATOM      6  C   UNL     1     -34.519  24.352   1.989  0.00  0.00    -0.001 C 
ENDROOT
BRANCH   1   7
ATOM      7  N   UNL     1     -36.231  21.942   4.394  0.00  0.00    +0.390 N 
ATOM      8  H   UNL     1     -35.958  21.948   5.377  0.00  0.00    -0.088 HD
ATOM      9  H   UNL     1     -35.716  21.212   3.902  0.00  0.00    -0.088 HD
ATOM     10  H   UNL     1     -37.232  21.758   4.322  0.00  0.00    -0.088 HD
ENDBRANCH   1   7
BRANCH   1  12
ATOM     11  O   UNL     1     -37.994  24.470   4.099  0.00  0.00    -0.252 OA
ATOM     12  C   UNL     1     -37.269  23.799   3.378  0.00  0.00    +0.305 C 
BRANCH  12  13
ATOM     13  O   UNL     1     -37.543  23.442   2.097  0.00  0.00    -0.372 OA
BRANCH  13  14
ATOM     14  P   UNL     1     -38.747  22.471   1.623  0.00  0.00    +0.530 P 
ATOM     15  O   UNL     1     -38.889  22.360   0.133  0.00  0.00    -0.216 OA
BRANCH  14  16
ATOM     16  O   UNL     1     -38.446  21.074   2.381  0.00  0.00    -0.293 OA
ATOM     17  H   UNL     1     -37.749  21.208   3.042  0.00  0.00    +0.223 HD
ENDBRANCH  14  16
BRANCH  14  18
ATOM     18  O   UNL     1     -40.047  23.054   2.388  0.00  0.00    -0.293 OA
ATOM     19  H   UNL     1     -39.941  22.931   3.344  0.00  0.00    +0.223 HD
ENDBRANCH  14  18
ENDBRANCH  13  14
ENDBRANCH  12  13
ENDBRANCH   1  12
BRANCH   3  21
ATOM     20  O   UNL     1     -35.915  27.016   2.940  0.00  0.00    -0.250 OA
ATOM     21  C   UNL     1     -35.728  26.465   4.014  0.00  0.00    +0.313 C 
BRANCH  21  22
ATOM     22  O   UNL     1     -36.460  26.702   5.130  0.00  0.00    -0.480 OA
ATOM     23  H   UNL     1     -36.265  27.443   5.670  0.00  0.00    +0.295 HD
ENDBRANCH  21  22
ENDBRANCH   3  21
TORSDOF 8
ENDMDL
MODEL 8
REMARK VINA RESULT:      -4.9      3.020      4.719
REMARK  Name = 195367
REMARK  8 active torsions:
REMARK  status: ('A' for Active; 'I' for Inactive)
REMARK    1  A    between atoms: C_1  and  N_7
REMARK    2  A    between atoms: C_1  and  C_12
REMARK    3  A    between atoms: C_3  and  C_21
REMARK    4  A    between atoms: C_12  and  O_13
REMARK    5  A    between atoms: O_13  and  P_14
REMARK    6  A    between atoms: P_14  and  O_16
REMARK    7  A    between atoms: P_14  and  O_18
REMARK    8  A    between atoms: C_21  and  O_22
REMARK                            x       y       z     vdW  Elec       q    Type
REMARK                         _______ _______ _______ _____ _____    ______ ____
ROOT
ATOM      1  C   UNL     1     -37.649  24.052   3.024  0.00  0.00    +0.044 C 
ATOM      2  C   UNL     1     -38.126  22.646   2.622  0.00  0.00    +0.002 C 
ATOM      3  C   UNL     1     -37.239  21.955   1.576  0.00  0.00    +0.097 C 
ATOM      4  C   UNL     1     -37.331  24.922   1.800  0.00  0.00    -0.010 C 
ATOM      5  C   UNL     1     -36.913  22.866   0.392  0.00  0.00    +0.011 C 
ATOM      6  C   UNL     1     -36.380  24.229   0.826  0.00  0.00    -0.001 C 
ENDROOT
BRANCH   1   7
ATOM      7  N   UNL     1     -38.693  24.706   3.818  0.00  0.00    +0.390 N 
ATOM      8  H   UNL     1     -39.091  25.479   3.285  0.00  0.00    -0.088 HD
ATOM      9  H   UNL     1     -38.290  25.061   4.684  0.00  0.00    -0.088 HD
ATOM     10  H   UNL     1     -39.427  24.031   4.036  0.00  0.00    -0.088 HD
ENDBRANCH   1   7
BRANCH   1  12
ATOM     11  O   UNL     1     -36.289  23.107   4.790  0.00  0.00    -0.252 OA
ATOM     12  C   UNL     1     -36.456  23.974   3.944  0.00  0.00    +0.305 C 
BRANCH  12  13
ATOM     13  O   UNL     1     -35.605  25.003   3.693  0.00  0.00    -0.372 OA
BRANCH  13  14
ATOM     14  P   UNL     1     -35.223  26.187   4.726  0.00  0.00    +0.530 P 
ATOM     15  O   UNL     1     -34.493  27.335   4.093  0.00  0.00    -0.216 OA
BRANCH  14  16
ATOM     16  O   UNL     1     -36.632  26.577   5.417  0.00  0.00    -0.293 OA
ATOM     17  H   UNL     1     -37.205  25.795   5.447  0.00  0.00    +0.223 HD
ENDBRANCH  14  16
BRANCH  14  18
ATOM     18  O   UNL     1     -34.410  25.434   5.904  0.00  0.00    -0.293 OA
ATOM     19  H   UNL     1     -34.884  25.542   6.744  0.00  0.00    +0.223 HD
ENDBRANCH  14  18
ENDBRANCH  13  14
ENDBRANCH  12  13
ENDBRANCH   1  12
BRANCH   3  21
ATOM     20  O   UNL     1     -34.850  21.662   1.834  0.00  0.00    -0.250 OA
ATOM     21  C   UNL     1     -35.987  21.403   2.197  0.00  0.00    +0.313 C 
BRANCH  21  22
ATOM     22  O   UNL     1     -36.289  20.568   3.222  0.00  0.00    -0.480 OA
ATOM     23  H   UNL     1     -36.096  19.653   3.153  0.00  0.00    +0.295 HD
ENDBRANCH  21  22
ENDBRANCH   3  21
TORSDOF 8
ENDMDL
MODEL 9
REMARK VINA RESULT:      -4.8      2.187      3.003
REMARK  Name = 195367
REMARK  8 active torsions:
REMARK  status: ('A' for Active; 'I' for Inactive)
REMARK    1  A    between atoms: C_1  and  N_7
REMARK    2  A    between atoms: C_1  and  C_12
REMARK    3  A    between atoms: C_3  and  C_21
REMARK    4  A    between atoms: C_12  and  O_13
REMARK    5  A    between atoms: O_13  and  P_14
REMARK    6  A    between atoms: P_14  and  O_16
REMARK    7  A    between atoms: P_14  and  O_18
REMARK    8  A    between atoms: C_21  and  O_22
REMARK                            x       y       z     vdW  Elec       q    Type
REMARK                         _______ _______ _______ _____ _____    ______ ____
ROOT
ATOM      1  C   UNL     1     -36.480  25.033   4.212  0.00  0.00    +0.044 C 
ATOM      2  C   UNL     1     -36.181  25.800   2.912  0.00  0.00    +0.002 C 
ATOM      3  C   UNL     1     -34.757  26.368   2.830  0.00  0.00    +0.097 C 
ATOM      4  C   UNL     1     -36.047  25.821   5.455  0.00  0.00    -0.010 C 
ATOM      5  C   UNL     1     -34.348  27.111   4.102  0.00  0.00    +0.011 C 
ATOM      6  C   UNL     1     -34.598  26.295   5.367  0.00  0.00    -0.001 C 
ENDROOT
BRANCH   1   7
ATOM      7  N   UNL     1     -37.918  24.765   4.291  0.00  0.00    +0.390 N 
ATOM      8  H   UNL     1     -38.296  24.653   3.351  0.00  0.00    -0.088 HD
ATOM      9  H   UNL     1     -38.384  25.545   4.754  0.00  0.00    -0.088 HD
ATOM     10  H   UNL     1     -38.076  23.910   4.825  0.00  0.00    -0.088 HD
ENDBRANCH   1   7
BRANCH   1  12
ATOM     11  O   UNL     1     -34.966  23.305   4.976  0.00  0.00    -0.252 OA
ATOM     12  C   UNL     1     -35.833  23.670   4.194  0.00  0.00    +0.305 C 
BRANCH  12  13
ATOM     13  O   UNL     1     -36.353  22.920   3.189  0.00  0.00    -0.372 OA
BRANCH  13  14
ATOM     14  P   UNL     1     -35.859  21.441   2.759  0.00  0.00    +0.530 P 
ATOM     15  O   UNL     1     -34.799  21.438   1.697  0.00  0.00    -0.216 OA
BRANCH  14  16
ATOM     16  O   UNL     1     -35.421  20.752   4.155  0.00  0.00    -0.293 OA
ATOM     17  H   UNL     1     -34.920  21.389   4.688  0.00  0.00    +0.223 HD
ENDBRANCH  14  16
BRANCH  14  18
ATOM     18  O   UNL     1     -37.223  20.670   2.358  0.00  0.00    -0.293 OA
ATOM     19  H   UNL     1     -37.398  20.796   1.412  0.00  0.00    +0.223 HD
ENDBRANCH  14  18
ENDBRANCH  13  14
ENDBRANCH  12  13
ENDBRANCH   1  12
BRANCH   3  21
ATOM     20  O   UNL     1     -32.659  25.170   2.998  0.00  0.00    -0.250 OA
ATOM     21  C   UNL     1     -33.759  25.299   2.482  0.00  0.00    +0.313 C 
BRANCH  21  22
ATOM     22  O   UNL     1     -34.245  24.489   1.508  0.00  0.00    -0.480 OA
ATOM     23  H   UNL     1     -33.658  24.095   0.892  0.00  0.00    +0.295 HD
ENDBRANCH  21  22
ENDBRANCH   3  21
TORSDOF 8
ENDMDL
