MODEL 1
REMARK VINA RESULT:      -7.3      0.000      0.000
REMARK  Name = 60167648
REMARK  7 active torsions:
REMARK  status: ('A' for Active; 'I' for Inactive)
REMARK    1  A    between atoms: N_2  and  C_16
REMARK    2  A    between atoms: C_3  and  C_7
REMARK    3  A    between atoms: C_8  and  C_10
REMARK    4  A    between atoms: C_16  and  C_17
REMARK    5  A    between atoms: C_17  and  C_18
REMARK    6  A    between atoms: C_18  and  N_20
REMARK    7  A    between atoms: C_21  and  C_25
REMARK                            x       y       z     vdW  Elec       q    Type
REMARK                         _______ _______ _______ _____ _____    ______ ____
ROOT
ATOM      1  O   UNL     1     -38.615  20.893   0.513  0.00  0.00    -0.268 OA
ATOM      2  N   UNL     1     -38.188  22.489   2.141  0.00  0.00    -0.299 N 
ATOM      3  C   UNL     1     -37.862  21.401   1.339  0.00  0.00    +0.267 C 
ATOM      4  H   UNL     1     -37.515  22.825   2.776  0.00  0.00    +0.150 HD
ENDROOT
BRANCH   3   7
ATOM      5  O   UNL     1     -34.823  19.974   2.599  0.00  0.00    -0.353 OA
ATOM      6  N   UNL     1     -36.112  20.467   2.767  0.00  0.00    -0.072 NA
ATOM      7  C   UNL     1     -36.509  20.821   1.541  0.00  0.00    +0.176 C 
ATOM      8  C   UNL     1     -34.484  20.047   1.287  0.00  0.00    +0.177 C 
ATOM      9  C   UNL     1     -35.523  20.579   0.570  0.00  0.00    +0.067 C 
BRANCH   8  10
ATOM     10  C   UNL     1     -33.171  19.571   0.957  0.00  0.00    +0.037 C 
ATOM     11  C   UNL     1     -32.330  20.343   0.156  0.00  0.00    +0.003 C 
ATOM     12  C   UNL     1     -32.736  18.336   1.438  0.00  0.00    +0.003 C 
ATOM     13  C   UNL     1     -31.054  19.880  -0.164  0.00  0.00    +0.000 C 
ATOM     14  C   UNL     1     -31.460  17.874   1.118  0.00  0.00    +0.000 C 
ATOM     15  C   UNL     1     -30.619  18.645   0.317  0.00  0.00    +0.000 C 
ENDBRANCH   8  10
ENDBRANCH   3   7
BRANCH   2  16
ATOM     16  C   UNL     1     -39.465  23.143   2.080  0.00  0.00    +0.092 C 
BRANCH  16  17
ATOM     17  C   UNL     1     -39.346  24.665   2.081  0.00  0.00    +0.042 C 
BRANCH  17  18
ATOM     18  C   UNL     1     -39.285  25.278   3.478  0.00  0.00    +0.091 C 
BRANCH  18  20
ATOM     19  O   UNL     1     -36.972  23.830   4.494  0.00  0.00    -0.270 OA
ATOM     20  N   UNL     1     -37.987  25.809   3.792  0.00  0.00    -0.301 N 
ATOM     21  C   UNL     1     -36.944  25.035   4.272  0.00  0.00    +0.250 C 
ATOM     22  H   UNL     1     -37.830  26.772   3.657  0.00  0.00    +0.150 HD
BRANCH  21  25
ATOM     23  O   UNL     1     -35.841  27.146   2.550  0.00  0.00    -0.270 OA
ATOM     24  N   UNL     1     -34.052  27.510   3.958  0.00  0.00    -0.279 N 
ATOM     25  C   UNL     1     -35.715  25.814   4.515  0.00  0.00    +0.107 C 
ATOM     26  C   UNL     1     -35.226  26.875   3.578  0.00  0.00    +0.254 C 
ATOM     27  C   UNL     1     -35.017  25.545   5.630  0.00  0.00    +0.010 C 
ATOM     28  C   UNL     1     -33.803  26.261   5.940  0.00  0.00    +0.016 C 
ATOM     29  C   UNL     1     -33.363  27.209   5.106  0.00  0.00    +0.064 C 
ATOM     30  H   UNL     1     -33.694  28.215   3.372  0.00  0.00    +0.155 HD
ENDBRANCH  21  25
ENDBRANCH  18  20
ENDBRANCH  17  18
ENDBRANCH  16  17
ENDBRANCH   2  16
TORSDOF 7
ENDMDL
MODEL 2
REMARK VINA RESULT:      -7.0      1.153      1.741
REMARK  Name = 60167648
REMARK  7 active torsions:
REMARK  status: ('A' for Active; 'I' for Inactive)
REMARK    1  A    between atoms: N_2  and  C_16
REMARK    2  A    between atoms: C_3  and  C_7
REMARK    3  A    between atoms: C_8  and  C_10
REMARK    4  A    between atoms: C_16  and  C_17
REMARK    5  A    between atoms: C_17  and  C_18
REMARK    6  A    between atoms: C_18  and  N_20
REMARK    7  A    between atoms: C_21  and  C_25
REMARK                            x       y       z     vdW  Elec       q    Type
REMARK                         _______ _______ _______ _____ _____    ______ ____
ROOT
ATOM      1  O   UNL     1     -38.223  20.763   0.091  0.00  0.00    -0.268 OA
ATOM      2  N   UNL     1     -38.394  21.447   2.301  0.00  0.00    -0.299 N 
ATOM      3  C   UNL     1     -37.731  20.901   1.207  0.00  0.00    +0.267 C 
ATOM      4  H   UNL     1     -37.913  21.516   3.157  0.00  0.00    +0.150 HD
ENDROOT
BRANCH   3   7
ATOM      5  O   UNL     1     -34.575  19.874   2.567  0.00  0.00    -0.353 OA
ATOM      6  N   UNL     1     -35.887  20.314   2.701  0.00  0.00    -0.072 NA
ATOM      7  C   UNL     1     -36.339  20.440   1.450  0.00  0.00    +0.176 C 
ATOM      8  C   UNL     1     -34.278  19.750   1.248  0.00  0.00    +0.177 C 
ATOM      9  C   UNL     1     -35.367  20.098   0.494  0.00  0.00    +0.067 C 
BRANCH   8  10
ATOM     10  C   UNL     1     -32.948  19.302   0.951  0.00  0.00    +0.037 C 
ATOM     11  C   UNL     1     -32.080  20.122   0.230  0.00  0.00    +0.003 C 
ATOM     12  C   UNL     1     -32.523  18.045   1.382  0.00  0.00    +0.003 C 
ATOM     13  C   UNL     1     -30.788  19.685  -0.058  0.00  0.00    +0.000 C 
ATOM     14  C   UNL     1     -31.231  17.609   1.093  0.00  0.00    +0.000 C 
ATOM     15  C   UNL     1     -30.363  18.429   0.373  0.00  0.00    +0.000 C 
ENDBRANCH   8  10
ENDBRANCH   3   7
BRANCH   2  16
ATOM     16  C   UNL     1     -39.750  21.915   2.231  0.00  0.00    +0.092 C 
BRANCH  16  17
ATOM     17  C   UNL     1     -39.848  23.359   1.747  0.00  0.00    +0.042 C 
BRANCH  17  18
ATOM     18  C   UNL     1     -39.841  24.390   2.874  0.00  0.00    +0.091 C 
BRANCH  18  20
ATOM     19  O   UNL     1     -37.602  26.172   2.331  0.00  0.00    -0.270 OA
ATOM     20  N   UNL     1     -38.580  24.448   3.561  0.00  0.00    -0.301 N 
ATOM     21  C   UNL     1     -37.572  25.337   3.227  0.00  0.00    +0.250 C 
ATOM     22  H   UNL     1     -38.426  23.825   4.309  0.00  0.00    +0.150 HD
BRANCH  21  25
ATOM     23  O   UNL     1     -36.607  22.869   4.500  0.00  0.00    -0.270 OA
ATOM     24  N   UNL     1     -34.814  23.944   5.472  0.00  0.00    -0.279 N 
ATOM     25  C   UNL     1     -36.378  25.199   4.083  0.00  0.00    +0.107 C 
ATOM     26  C   UNL     1     -35.961  23.896   4.692  0.00  0.00    +0.254 C 
ATOM     27  C   UNL     1     -35.647  26.301   4.315  0.00  0.00    +0.010 C 
ATOM     28  C   UNL     1     -34.465  26.251   5.143  0.00  0.00    +0.016 C 
ATOM     29  C   UNL     1     -34.089  25.090   5.688  0.00  0.00    +0.064 C 
ATOM     30  H   UNL     1     -34.501  23.110   5.892  0.00  0.00    +0.155 HD
ENDBRANCH  21  25
ENDBRANCH  18  20
ENDBRANCH  17  18
ENDBRANCH  16  17
ENDBRANCH   2  16
TORSDOF 7
ENDMDL
MODEL 3
REMARK VINA RESULT:      -6.9      5.661     11.090
REMARK  Name = 60167648
REMARK  7 active torsions:
REMARK  status: ('A' for Active; 'I' for Inactive)
REMARK    1  A    between atoms: N_2  and  C_16
REMARK    2  A    between atoms: C_3  and  C_7
REMARK    3  A    between atoms: C_8  and  C_10
REMARK    4  A    between atoms: C_16  and  C_17
REMARK    5  A    between atoms: C_17  and  C_18
REMARK    6  A    between atoms: C_18  and  N_20
REMARK    7  A    between atoms: C_21  and  C_25
REMARK                            x       y       z     vdW  Elec       q    Type
REMARK                         _______ _______ _______ _____ _____    ______ ____
ROOT
ATOM      1  O   UNL     1     -42.941  26.738   2.298  0.00  0.00    -0.268 OA
ATOM      2  N   UNL     1     -41.118  26.423   3.696  0.00  0.00    -0.299 N 
ATOM      3  C   UNL     1     -42.313  27.021   3.314  0.00  0.00    +0.267 C 
ATOM      4  H   UNL     1     -40.687  26.719   4.530  0.00  0.00    +0.150 HD
ENDROOT
BRANCH   3   7
ATOM      5  O   UNL     1     -42.761  29.778   5.563  0.00  0.00    -0.353 OA
ATOM      6  N   UNL     1     -41.964  28.916   4.818  0.00  0.00    -0.072 NA
ATOM      7  C   UNL     1     -42.822  28.093   4.208  0.00  0.00    +0.176 C 
ATOM      8  C   UNL     1     -44.065  29.450   5.381  0.00  0.00    +0.177 C 
ATOM      9  C   UNL     1     -44.159  28.384   4.527  0.00  0.00    +0.067 C 
BRANCH   8  10
ATOM     10  C   UNL     1     -45.013  30.258   6.094  0.00  0.00    +0.037 C 
ATOM     11  C   UNL     1     -45.942  31.026   5.392  0.00  0.00    +0.003 C 
ATOM     12  C   UNL     1     -45.005  30.276   7.488  0.00  0.00    +0.003 C 
ATOM     13  C   UNL     1     -46.863  31.811   6.085  0.00  0.00    +0.000 C 
ATOM     14  C   UNL     1     -45.926  31.061   8.181  0.00  0.00    +0.000 C 
ATOM     15  C   UNL     1     -46.855  31.828   7.480  0.00  0.00    +0.000 C 
ENDBRANCH   8  10
ENDBRANCH   3   7
BRANCH   2  16
ATOM     16  C   UNL     1     -40.486  25.389   2.924  0.00  0.00    +0.092 C 
BRANCH  16  17
ATOM     17  C   UNL     1     -39.464  25.940   1.931  0.00  0.00    +0.042 C 
BRANCH  17  18
ATOM     18  C   UNL     1     -38.097  26.226   2.548  0.00  0.00    +0.091 C 
BRANCH  18  20
ATOM     19  O   UNL     1     -35.415  25.946   3.648  0.00  0.00    -0.270 OA
ATOM     20  N   UNL     1     -37.530  25.073   3.192  0.00  0.00    -0.301 N 
ATOM     21  C   UNL     1     -36.236  25.037   3.686  0.00  0.00    +0.250 C 
ATOM     22  H   UNL     1     -38.089  24.268   3.288  0.00  0.00    +0.150 HD
BRANCH  21  25
ATOM     23  O   UNL     1     -36.244  22.413   2.362  0.00  0.00    -0.270 OA
ATOM     24  N   UNL     1     -35.575  21.322   4.280  0.00  0.00    -0.279 N 
ATOM     25  C   UNL     1     -35.893  23.741   4.303  0.00  0.00    +0.107 C 
ATOM     26  C   UNL     1     -35.925  22.448   3.548  0.00  0.00    +0.254 C 
ATOM     27  C   UNL     1     -35.539  23.742   5.597  0.00  0.00    +0.010 C 
ATOM     28  C   UNL     1     -35.189  22.516   6.275  0.00  0.00    +0.016 C 
ATOM     29  C   UNL     1     -35.217  21.360   5.605  0.00  0.00    +0.064 C 
ATOM     30  H   UNL     1     -35.581  20.450   3.824  0.00  0.00    +0.155 HD
ENDBRANCH  21  25
ENDBRANCH  18  20
ENDBRANCH  17  18
ENDBRANCH  16  17
ENDBRANCH   2  16
TORSDOF 7
ENDMDL
MODEL 4
REMARK VINA RESULT:      -6.9      5.530     10.819
REMARK  Name = 60167648
REMARK  7 active torsions:
REMARK  status: ('A' for Active; 'I' for Inactive)
REMARK    1  A    between atoms: N_2  and  C_16
REMARK    2  A    between atoms: C_3  and  C_7
REMARK    3  A    between atoms: C_8  and  C_10
REMARK    4  A    between atoms: C_16  and  C_17
REMARK    5  A    between atoms: C_17  and  C_18
REMARK    6  A    between atoms: C_18  and  N_20
REMARK    7  A    between atoms: C_21  and  C_25
REMARK                            x       y       z     vdW  Elec       q    Type
REMARK                         _______ _______ _______ _____ _____    ______ ____
ROOT
ATOM      1  O   UNL     1     -43.261  27.949   1.586  0.00  0.00    -0.268 OA
ATOM      2  N   UNL     1     -41.973  26.489   2.846  0.00  0.00    -0.299 N 
ATOM      3  C   UNL     1     -42.792  27.597   2.664  0.00  0.00    +0.267 C 
ATOM      4  H   UNL     1     -41.646  26.288   3.752  0.00  0.00    +0.150 HD
ENDROOT
BRANCH   3   7
ATOM      5  O   UNL     1     -42.684  29.638   5.611  0.00  0.00    -0.353 OA
ATOM      6  N   UNL     1     -42.075  28.974   4.552  0.00  0.00    -0.072 NA
ATOM      7  C   UNL     1     -43.079  28.404   3.878  0.00  0.00    +0.176 C 
ATOM      8  C   UNL     1     -44.027  29.449   5.544  0.00  0.00    +0.177 C 
ATOM      9  C   UNL     1     -44.330  28.671   4.459  0.00  0.00    +0.067 C 
BRANCH   8  10
ATOM     10  C   UNL     1     -44.794  30.079   6.580  0.00  0.00    +0.037 C 
ATOM     11  C   UNL     1     -45.786  31.002   6.249  0.00  0.00    +0.003 C 
ATOM     12  C   UNL     1     -44.548  29.768   7.917  0.00  0.00    +0.003 C 
ATOM     13  C   UNL     1     -46.532  31.614   7.257  0.00  0.00    +0.000 C 
ATOM     14  C   UNL     1     -45.294  30.381   8.924  0.00  0.00    +0.000 C 
ATOM     15  C   UNL     1     -46.285  31.303   8.594  0.00  0.00    +0.000 C 
ENDBRANCH   8  10
ENDBRANCH   3   7
BRANCH   2  16
ATOM     16  C   UNL     1     -41.586  25.625   1.765  0.00  0.00    +0.092 C 
BRANCH  16  17
ATOM     17  C   UNL     1     -40.190  25.036   1.957  0.00  0.00    +0.042 C 
BRANCH  17  18
ATOM     18  C   UNL     1     -39.842  24.735   3.413  0.00  0.00    +0.091 C 
BRANCH  18  20
ATOM     19  O   UNL     1     -37.340  23.269   3.675  0.00  0.00    -0.270 OA
ATOM     20  N   UNL     1     -38.557  25.255   3.793  0.00  0.00    -0.301 N 
ATOM     21  C   UNL     1     -37.418  24.473   3.889  0.00  0.00    +0.250 C 
ATOM     22  H   UNL     1     -38.482  26.216   3.993  0.00  0.00    +0.150 HD
BRANCH  21  25
ATOM     23  O   UNL     1     -36.376  26.898   2.595  0.00  0.00    -0.270 OA
ATOM     24  N   UNL     1     -34.626  27.071   4.086  0.00  0.00    -0.279 N 
ATOM     25  C   UNL     1     -36.226  25.242   4.295  0.00  0.00    +0.107 C 
ATOM     26  C   UNL     1     -35.767  26.471   3.572  0.00  0.00    +0.254 C 
ATOM     27  C   UNL     1     -35.536  24.804   5.359  0.00  0.00    +0.010 C 
ATOM     28  C   UNL     1     -34.357  25.499   5.820  0.00  0.00    +0.016 C 
ATOM     29  C   UNL     1     -33.944  26.596   5.178  0.00  0.00    +0.064 C 
ATOM     30  H   UNL     1     -34.288  27.883   3.643  0.00  0.00    +0.155 HD
ENDBRANCH  21  25
ENDBRANCH  18  20
ENDBRANCH  17  18
ENDBRANCH  16  17
ENDBRANCH   2  16
TORSDOF 7
ENDMDL
MODEL 5
REMARK VINA RESULT:      -6.7      4.178      9.758
REMARK  Name = 60167648
REMARK  7 active torsions:
REMARK  status: ('A' for Active; 'I' for Inactive)
REMARK    1  A    between atoms: N_2  and  C_16
REMARK    2  A    between atoms: C_3  and  C_7
REMARK    3  A    between atoms: C_8  and  C_10
REMARK    4  A    between atoms: C_16  and  C_17
REMARK    5  A    between atoms: C_17  and  C_18
REMARK    6  A    between atoms: C_18  and  N_20
REMARK    7  A    between atoms: C_21  and  C_25
REMARK                            x       y       z     vdW  Elec       q    Type
REMARK                         _______ _______ _______ _____ _____    ______ ____
ROOT
ATOM      1  O   UNL     1     -33.824  27.689   1.713  0.00  0.00    -0.268 OA
ATOM      2  N   UNL     1     -34.898  27.614   3.767  0.00  0.00    -0.299 N 
ATOM      3  C   UNL     1     -34.677  28.111   2.488  0.00  0.00    +0.267 C 
ATOM      4  H   UNL     1     -35.607  28.020   4.315  0.00  0.00    +0.150 HD
ENDROOT
BRANCH   3   7
ATOM      5  O   UNL     1     -37.176  30.288   1.119  0.00  0.00    -0.353 OA
ATOM      6  N   UNL     1     -36.618  29.031   1.322  0.00  0.00    -0.072 NA
ATOM      7  C   UNL     1     -35.535  29.251   2.073  0.00  0.00    +0.176 C 
ATOM      8  C   UNL     1     -36.417  31.221   1.747  0.00  0.00    +0.177 C 
ATOM      9  C   UNL     1     -35.359  30.613   2.370  0.00  0.00    +0.067 C 
BRANCH   8  10
ATOM     10  C   UNL     1     -36.871  32.577   1.624  0.00  0.00    +0.037 C 
ATOM     11  C   UNL     1     -35.986  33.575   1.219  0.00  0.00    +0.003 C 
ATOM     12  C   UNL     1     -38.198  32.896   1.911  0.00  0.00    +0.003 C 
ATOM     13  C   UNL     1     -36.428  34.892   1.100  0.00  0.00    +0.000 C 
ATOM     14  C   UNL     1     -38.640  34.213   1.793  0.00  0.00    +0.000 C 
ATOM     15  C   UNL     1     -37.755  35.211   1.387  0.00  0.00    +0.000 C 
ENDBRANCH   8  10
ENDBRANCH   3   7
BRANCH   2  16
ATOM     16  C   UNL     1     -34.133  26.531   4.321  0.00  0.00    +0.092 C 
BRANCH  16  17
ATOM     17  C   UNL     1     -34.828  25.870   5.509  0.00  0.00    +0.042 C 
BRANCH  17  18
ATOM     18  C   UNL     1     -36.350  25.991   5.479  0.00  0.00    +0.091 C 
BRANCH  18  20
ATOM     19  O   UNL     1     -37.403  26.051   2.765  0.00  0.00    -0.270 OA
ATOM     20  N   UNL     1     -36.976  24.917   4.758  0.00  0.00    -0.301 N 
ATOM     21  C   UNL     1     -37.446  25.044   3.461  0.00  0.00    +0.250 C 
ATOM     22  H   UNL     1     -37.073  24.046   5.207  0.00  0.00    +0.150 HD
BRANCH  21  25
ATOM     23  O   UNL     1     -36.151  22.409   3.318  0.00  0.00    -0.270 OA
ATOM     24  N   UNL     1     -38.016  21.423   2.387  0.00  0.00    -0.279 N 
ATOM     25  C   UNL     1     -38.044  23.798   2.943  0.00  0.00    +0.107 C 
ATOM     26  C   UNL     1     -37.305  22.495   2.908  0.00  0.00    +0.254 C 
ATOM     27  C   UNL     1     -39.305  23.855   2.487  0.00  0.00    +0.010 C 
ATOM     28  C   UNL     1     -39.962  22.682   1.963  0.00  0.00    +0.016 C 
ATOM     29  C   UNL     1     -39.307  21.517   1.930  0.00  0.00    +0.064 C 
ATOM     30  H   UNL     1     -37.570  20.546   2.345  0.00  0.00    +0.155 HD
ENDBRANCH  21  25
ENDBRANCH  18  20
ENDBRANCH  17  18
ENDBRANCH  16  17
ENDBRANCH   2  16
TORSDOF 7
ENDMDL
MODEL 6
REMARK VINA RESULT:      -6.5      4.391      9.853
REMARK  Name = 60167648
REMARK  7 active torsions:
REMARK  status: ('A' for Active; 'I' for Inactive)
REMARK    1  A    between atoms: N_2  and  C_16
REMARK    2  A    between atoms: C_3  and  C_7
REMARK    3  A    between atoms: C_8  and  C_10
REMARK    4  A    between atoms: C_16  and  C_17
REMARK    5  A    between atoms: C_17  and  C_18
REMARK    6  A    between atoms: C_18  and  N_20
REMARK    7  A    between atoms: C_21  and  C_25
REMARK                            x       y       z     vdW  Elec       q    Type
REMARK                         _______ _______ _______ _____ _____    ______ ____
ROOT
ATOM      1  O   UNL     1     -34.392  27.657   1.351  0.00  0.00    -0.268 OA
ATOM      2  N   UNL     1     -35.035  27.864   3.570  0.00  0.00    -0.299 N 
ATOM      3  C   UNL     1     -35.031  28.230   2.229  0.00  0.00    +0.267 C 
ATOM      4  H   UNL     1     -35.581  28.387   4.200  0.00  0.00    +0.150 HD
ENDROOT
BRANCH   3   7
ATOM      5  O   UNL     1     -37.456  30.556   0.978  0.00  0.00    -0.353 OA
ATOM      6  N   UNL     1     -36.942  29.272   1.118  0.00  0.00    -0.072 NA
ATOM      7  C   UNL     1     -35.849  29.418   1.873  0.00  0.00    +0.176 C 
ATOM      8  C   UNL     1     -36.662  31.431   1.646  0.00  0.00    +0.177 C 
ATOM      9  C   UNL     1     -35.624  30.757   2.234  0.00  0.00    +0.067 C 
BRANCH   8  10
ATOM     10  C   UNL     1     -37.069  32.806   1.591  0.00  0.00    +0.037 C 
ATOM     11  C   UNL     1     -38.371  33.163   1.939  0.00  0.00    +0.003 C 
ATOM     12  C   UNL     1     -36.161  33.785   1.188  0.00  0.00    +0.003 C 
ATOM     13  C   UNL     1     -38.765  34.499   1.885  0.00  0.00    +0.000 C 
ATOM     14  C   UNL     1     -36.556  35.121   1.133  0.00  0.00    +0.000 C 
ATOM     15  C   UNL     1     -37.857  35.479   1.481  0.00  0.00    +0.000 C 
ENDBRANCH   8  10
ENDBRANCH   3   7
BRANCH   2  16
ATOM     16  C   UNL     1     -34.275  26.753   4.073  0.00  0.00    +0.092 C 
BRANCH  16  17
ATOM     17  C   UNL     1     -34.838  26.203   5.382  0.00  0.00    +0.042 C 
BRANCH  17  18
ATOM     18  C   UNL     1     -36.253  25.644   5.258  0.00  0.00    +0.091 C 
BRANCH  18  20
ATOM     19  O   UNL     1     -35.962  22.802   5.824  0.00  0.00    -0.270 OA
ATOM     20  N   UNL     1     -36.336  24.551   4.327  0.00  0.00    -0.301 N 
ATOM     21  C   UNL     1     -36.184  23.225   4.695  0.00  0.00    +0.250 C 
ATOM     22  H   UNL     1     -36.512  24.757   3.380  0.00  0.00    +0.150 HD
BRANCH  21  25
ATOM     23  O   UNL     1     -38.339  23.196   2.697  0.00  0.00    -0.270 OA
ATOM     24  N   UNL     1     -37.421  21.403   1.575  0.00  0.00    -0.279 N 
ATOM     25  C   UNL     1     -36.314  22.295   3.557  0.00  0.00    +0.107 C 
ATOM     26  C   UNL     1     -37.452  22.354   2.585  0.00  0.00    +0.254 C 
ATOM     27  C   UNL     1     -35.362  21.361   3.404  0.00  0.00    +0.010 C 
ATOM     28  C   UNL     1     -35.417  20.412   2.317  0.00  0.00    +0.016 C 
ATOM     29  C   UNL     1     -36.430  20.462   1.448  0.00  0.00    +0.064 C 
ATOM     30  H   UNL     1     -38.149  21.405   0.912  0.00  0.00    +0.155 HD
ENDBRANCH  21  25
ENDBRANCH  18  20
ENDBRANCH  17  18
ENDBRANCH  16  17
ENDBRANCH   2  16
TORSDOF 7
ENDMDL
MODEL 7
REMARK VINA RESULT:      -6.4      5.604      8.167
REMARK  Name = 60167648
REMARK  7 active torsions:
REMARK  status: ('A' for Active; 'I' for Inactive)
REMARK    1  A    between atoms: N_2  and  C_16
REMARK    2  A    between atoms: C_3  and  C_7
REMARK    3  A    between atoms: C_8  and  C_10
REMARK    4  A    between atoms: C_16  and  C_17
REMARK    5  A    between atoms: C_17  and  C_18
REMARK    6  A    between atoms: C_18  and  N_20
REMARK    7  A    between atoms: C_21  and  C_25
REMARK                            x       y       z     vdW  Elec       q    Type
REMARK                         _______ _______ _______ _____ _____    ______ ____
ROOT
ATOM      1  O   UNL     1     -41.673  24.195   1.096  0.00  0.00    -0.268 OA
ATOM      2  N   UNL     1     -42.361  26.224   1.984  0.00  0.00    -0.299 N 
ATOM      3  C   UNL     1     -41.438  25.213   1.740  0.00  0.00    +0.267 C 
ATOM      4  H   UNL     1     -42.077  27.004   2.513  0.00  0.00    +0.150 HD
ENDROOT
BRANCH   3   7
ATOM      5  O   UNL     1     -38.262  26.410   2.897  0.00  0.00    -0.353 OA
ATOM      6  N   UNL     1     -39.479  26.583   2.248  0.00  0.00    -0.072 NA
ATOM      7  C   UNL     1     -40.091  25.399   2.338  0.00  0.00    +0.176 C 
ATOM      8  C   UNL     1     -38.178  25.135   3.356  0.00  0.00    +0.177 C 
ATOM      9  C   UNL     1     -39.317  24.450   3.026  0.00  0.00    +0.067 C 
BRANCH   8  10
ATOM     10  C   UNL     1     -36.968  24.805   4.052  0.00  0.00    +0.037 C 
ATOM     11  C   UNL     1     -36.344  25.758   4.858  0.00  0.00    +0.003 C 
ATOM     12  C   UNL     1     -36.415  23.531   3.923  0.00  0.00    +0.003 C 
ATOM     13  C   UNL     1     -35.168  25.436   5.534  0.00  0.00    +0.000 C 
ATOM     14  C   UNL     1     -35.238  23.210   4.599  0.00  0.00    +0.000 C 
ATOM     15  C   UNL     1     -34.615  24.162   5.405  0.00  0.00    +0.000 C 
ENDBRANCH   8  10
ENDBRANCH   3   7
BRANCH   2  16
ATOM     16  C   UNL     1     -43.711  26.178   1.494  0.00  0.00    +0.092 C 
BRANCH  16  17
ATOM     17  C   UNL     1     -44.673  26.999   2.349  0.00  0.00    +0.042 C 
BRANCH  17  18
ATOM     18  C   UNL     1     -44.926  26.407   3.734  0.00  0.00    +0.091 C 
BRANCH  18  20
ATOM     19  O   UNL     1     -46.698  28.446   4.823  0.00  0.00    -0.270 OA
ATOM     20  N   UNL     1     -44.645  27.338   4.792  0.00  0.00    -0.301 N 
ATOM     21  C   UNL     1     -45.559  28.276   5.243  0.00  0.00    +0.250 C 
ATOM     22  H   UNL     1     -43.758  27.307   5.219  0.00  0.00    +0.150 HD
BRANCH  21  25
ATOM     23  O   UNL     1     -42.986  29.697   5.274  0.00  0.00    -0.270 OA
ATOM     24  N   UNL     1     -43.359  30.548   7.385  0.00  0.00    -0.279 N 
ATOM     25  C   UNL     1     -45.031  29.112   6.338  0.00  0.00    +0.107 C 
ATOM     26  C   UNL     1     -43.703  29.802   6.266  0.00  0.00    +0.254 C 
ATOM     27  C   UNL     1     -45.788  29.249   7.438  0.00  0.00    +0.010 C 
ATOM     28  C   UNL     1     -45.343  30.050   8.554  0.00  0.00    +0.016 C 
ATOM     29  C   UNL     1     -44.159  30.666   8.494  0.00  0.00    +0.064 C 
ATOM     30  H   UNL     1     -42.495  31.019   7.382  0.00  0.00    +0.155 HD
ENDBRANCH  21  25
ENDBRANCH  18  20
ENDBRANCH  17  18
ENDBRANCH  16  17
ENDBRANCH   2  16
TORSDOF 7
ENDMDL
MODEL 8
REMARK VINA RESULT:      -6.4      2.153      3.085
REMARK  Name = 60167648
REMARK  7 active torsions:
REMARK  status: ('A' for Active; 'I' for Inactive)
REMARK    1  A    between atoms: N_2  and  C_16
REMARK    2  A    between atoms: C_3  and  C_7
REMARK    3  A    between atoms: C_8  and  C_10
REMARK    4  A    between atoms: C_16  and  C_17
REMARK    5  A    between atoms: C_17  and  C_18
REMARK    6  A    between atoms: C_18  and  N_20
REMARK    7  A    between atoms: C_21  and  C_25
REMARK                            x       y       z     vdW  Elec       q    Type
REMARK                         _______ _______ _______ _____ _____    ______ ____
ROOT
ATOM      1  O   UNL     1     -38.536  22.235   2.451  0.00  0.00    -0.268 OA
ATOM      2  N   UNL     1     -36.777  23.658   2.962  0.00  0.00    -0.299 N 
ATOM      3  C   UNL     1     -37.336  22.498   2.439  0.00  0.00    +0.267 C 
ATOM      4  H   UNL     1     -35.802  23.778   2.906  0.00  0.00    +0.150 HD
ENDROOT
BRANCH   3   7
ATOM      5  O   UNL     1     -35.706  19.803   0.725  0.00  0.00    -0.353 OA
ATOM      6  N   UNL     1     -36.839  20.517   1.096  0.00  0.00    -0.072 NA
ATOM      7  C   UNL     1     -36.384  21.517   1.857  0.00  0.00    +0.176 C 
ATOM      8  C   UNL     1     -34.610  20.389   1.271  0.00  0.00    +0.177 C 
ATOM      9  C   UNL     1     -34.987  21.485   2.000  0.00  0.00    +0.067 C 
BRANCH   8  10
ATOM     10  C   UNL     1     -33.356  19.758   0.974  0.00  0.00    +0.037 C 
ATOM     11  C   UNL     1     -32.405  20.423   0.201  0.00  0.00    +0.003 C 
ATOM     12  C   UNL     1     -33.089  18.477   1.459  0.00  0.00    +0.003 C 
ATOM     13  C   UNL     1     -31.187  19.809  -0.086  0.00  0.00    +0.000 C 
ATOM     14  C   UNL     1     -31.870  17.863   1.171  0.00  0.00    +0.000 C 
ATOM     15  C   UNL     1     -30.919  18.529   0.398  0.00  0.00    +0.000 C 
ENDBRANCH   8  10
ENDBRANCH   3   7
BRANCH   2  16
ATOM     16  C   UNL     1     -37.564  24.688   3.581  0.00  0.00    +0.092 C 
BRANCH  16  17
ATOM     17  C   UNL     1     -36.746  25.561   4.530  0.00  0.00    +0.042 C 
BRANCH  17  18
ATOM     18  C   UNL     1     -35.247  25.276   4.492  0.00  0.00    +0.091 C 
BRANCH  18  20
ATOM     19  O   UNL     1     -32.749  26.291   3.391  0.00  0.00    -0.270 OA
ATOM     20  N   UNL     1     -34.462  26.380   4.972  0.00  0.00    -0.301 N 
ATOM     21  C   UNL     1     -33.281  26.790   4.376  0.00  0.00    +0.250 C 
ATOM     22  H   UNL     1     -34.781  26.871   5.764  0.00  0.00    +0.150 HD
BRANCH  21  25
ATOM     23  O   UNL     1     -32.424  26.915   7.185  0.00  0.00    -0.270 OA
ATOM     24  N   UNL     1     -31.697  29.094   6.979  0.00  0.00    -0.279 N 
ATOM     25  C   UNL     1     -32.666  27.946   5.056  0.00  0.00    +0.107 C 
ATOM     26  C   UNL     1     -32.260  27.920   6.498  0.00  0.00    +0.254 C 
ATOM     27  C   UNL     1     -32.471  29.061   4.335  0.00  0.00    +0.010 C 
ATOM     28  C   UNL     1     -31.876  30.237   4.926  0.00  0.00    +0.016 C 
ATOM     29  C   UNL     1     -31.512  30.217   6.212  0.00  0.00    +0.064 C 
ATOM     30  H   UNL     1     -31.414  29.122   7.921  0.00  0.00    +0.155 HD
ENDBRANCH  21  25
ENDBRANCH  18  20
ENDBRANCH  17  18
ENDBRANCH  16  17
ENDBRANCH   2  16
TORSDOF 7
ENDMDL
MODEL 9
REMARK VINA RESULT:      -6.4      4.867      6.707
REMARK  Name = 60167648
REMARK  7 active torsions:
REMARK  status: ('A' for Active; 'I' for Inactive)
REMARK    1  A    between atoms: N_2  and  C_16
REMARK    2  A    between atoms: C_3  and  C_7
REMARK    3  A    between atoms: C_8  and  C_10
REMARK    4  A    between atoms: C_16  and  C_17
REMARK    5  A    between atoms: C_17  and  C_18
REMARK    6  A    between atoms: C_18  and  N_20
REMARK    7  A    between atoms: C_21  and  C_25
REMARK                            x       y       z     vdW  Elec       q    Type
REMARK                         _______ _______ _______ _____ _____    ______ ____
ROOT
ATOM      1  O   UNL     1     -36.016  18.249  -1.901  0.00  0.00    -0.268 OA
ATOM      2  N   UNL     1     -35.575  18.206   0.375  0.00  0.00    -0.299 N 
ATOM      3  C   UNL     1     -36.251  17.818  -0.776  0.00  0.00    +0.267 C 
ATOM      4  H   UNL     1     -35.837  17.802   1.234  0.00  0.00    +0.150 HD
ENDROOT
BRANCH   3   7
ATOM      5  O   UNL     1     -38.353  15.059   0.137  0.00  0.00    -0.353 OA
ATOM      6  N   UNL     1     -37.153  15.760   0.186  0.00  0.00    -0.072 NA
ATOM      7  C   UNL     1     -37.345  16.830  -0.591  0.00  0.00    +0.176 C 
ATOM      8  C   UNL     1     -39.225  15.723  -0.663  0.00  0.00    +0.177 C 
ATOM      9  C   UNL     1     -38.633  16.857  -1.152  0.00  0.00    +0.067 C 
BRANCH   8  10
ATOM     10  C   UNL     1     -40.516  15.115  -0.812  0.00  0.00    +0.037 C 
ATOM     11  C   UNL     1     -41.619  15.896  -1.157  0.00  0.00    +0.003 C 
ATOM     12  C   UNL     1     -40.668  13.744  -0.611  0.00  0.00    +0.003 C 
ATOM     13  C   UNL     1     -42.874  15.304  -1.302  0.00  0.00    +0.000 C 
ATOM     14  C   UNL     1     -41.923  13.153  -0.755  0.00  0.00    +0.000 C 
ATOM     15  C   UNL     1     -43.026  13.933  -1.101  0.00  0.00    +0.000 C 
ENDBRANCH   8  10
ENDBRANCH   3   7
BRANCH   2  16
ATOM     16  C   UNL     1     -34.510  19.170   0.362  0.00  0.00    +0.092 C 
BRANCH  16  17
ATOM     17  C   UNL     1     -34.472  20.018   1.632  0.00  0.00    +0.042 C 
BRANCH  17  18
ATOM     18  C   UNL     1     -35.851  20.324   2.211  0.00  0.00    +0.091 C 
BRANCH  18  20
ATOM     19  O   UNL     1     -35.179  21.052   4.950  0.00  0.00    -0.270 OA
ATOM     20  N   UNL     1     -35.920  21.627   2.814  0.00  0.00    -0.301 N 
ATOM     21  C   UNL     1     -35.576  21.874   4.133  0.00  0.00    +0.250 C 
ATOM     22  H   UNL     1     -36.226  22.382   2.261  0.00  0.00    +0.150 HD
BRANCH  21  25
ATOM     23  O   UNL     1     -37.856  23.615   3.492  0.00  0.00    -0.270 OA
ATOM     24  N   UNL     1     -36.918  25.423   4.573  0.00  0.00    -0.279 N 
ATOM     25  C   UNL     1     -35.732  23.292   4.511  0.00  0.00    +0.107 C 
ATOM     26  C   UNL     1     -36.934  24.105   4.138  0.00  0.00    +0.254 C 
ATOM     27  C   UNL     1     -34.743  23.860   5.219  0.00  0.00    +0.010 C 
ATOM     28  C   UNL     1     -34.818  25.243   5.627  0.00  0.00    +0.016 C 
ATOM     29  C   UNL     1     -35.889  25.972   5.296  0.00  0.00    +0.064 C 
ATOM     30  H   UNL     1     -37.688  25.995   4.351  0.00  0.00    +0.155 HD
ENDBRANCH  21  25
ENDBRANCH  18  20
ENDBRANCH  17  18
ENDBRANCH  16  17
ENDBRANCH   2  16
TORSDOF 7
ENDMDL
