MODEL 1
REMARK VINA RESULT:      -7.3      0.000      0.000
REMARK  Name = 5748610
REMARK  8 active torsions:
REMARK  status: ('A' for Active; 'I' for Inactive)
REMARK    1  A    between atoms: N_5  and  C_11
REMARK    2  A    between atoms: N_5  and  C_19
REMARK    3  A    between atoms: N_6  and  C_12
REMARK    4  A    between atoms: N_6  and  C_31
REMARK    5  A    between atoms: N_17  and  C_19
REMARK    6  A    between atoms: N_17  and  C_23
REMARK    7  A    between atoms: N_29  and  C_31
REMARK    8  A    between atoms: N_29  and  C_35
REMARK                            x       y       z     vdW  Elec       q    Type
REMARK                         _______ _______ _______ _____ _____    ______ ____
ROOT
ATOM      1  N   UNL     1     -35.914  24.401   4.231  0.00  0.00    -0.277 N 
ATOM      2  N   UNL     1     -33.871  26.182   5.208  0.00  0.00    -0.277 N 
ATOM      3  N   UNL     1     -38.047  24.228   3.490  0.00  0.00    -0.371 N 
ATOM      4  N   UNL     1     -32.907  27.110   7.033  0.00  0.00    -0.371 N 
ATOM      5  C   UNL     1     -34.497  24.135   3.989  0.00  0.00    +0.115 C 
ATOM      6  C   UNL     1     -36.254  25.601   4.994  0.00  0.00    +0.115 C 
ATOM      7  C   UNL     1     -33.697  25.435   3.963  0.00  0.00    +0.115 C 
ATOM      8  C   UNL     1     -35.121  25.985   5.941  0.00  0.00    +0.115 C 
ATOM      9  C   UNL     1     -36.874  23.566   3.768  0.00  0.00    +0.193 C 
ATOM     10  C   UNL     1     -32.914  27.025   5.662  0.00  0.00    +0.193 C 
ATOM     11  H   UNL     1     -38.110  25.199   3.638  0.00  0.00    +0.159 HD
ATOM     12  H   UNL     1     -38.822  23.731   3.145  0.00  0.00    +0.159 HD
ATOM     13  H   UNL     1     -33.554  26.591   7.563  0.00  0.00    +0.159 HD
ATOM     14  H   UNL     1     -32.254  27.692   7.487  0.00  0.00    +0.159 HD
ENDROOT
BRANCH   9  15
ATOM     15  N   UNL     1     -36.773  22.276   3.579  0.00  0.00    -0.181 NA
BRANCH  15  17
ATOM     16  N   UNL     1     -38.158  20.998   2.141  0.00  0.00    -0.368 N 
ATOM     17  C   UNL     1     -37.044  21.793   2.314  0.00  0.00    +0.225 C 
ATOM     18  H   UNL     1     -38.727  20.775   2.913  0.00  0.00    +0.159 HD
ATOM     19  H   UNL     1     -38.384  20.655   1.247  0.00  0.00    +0.159 HD
BRANCH  17  20
ATOM     20  N   UNL     1     -36.199  22.173   1.395  0.00  0.00    -0.212 NA
BRANCH  20  22
ATOM     21 CL   UNL     1     -31.374  18.902   0.425  0.00  0.00    -0.082 Cl
ATOM     22  C   UNL     1     -35.052  21.396   1.165  0.00  0.00    +0.084 C 
ATOM     23  C   UNL     1     -34.039  21.884   0.345  0.00  0.00    +0.020 C 
ATOM     24  C   UNL     1     -34.936  20.142   1.758  0.00  0.00    +0.020 C 
ATOM     25  C   UNL     1     -32.900  21.112   0.116  0.00  0.00    +0.013 C 
ATOM     26  C   UNL     1     -33.797  19.370   1.530  0.00  0.00    +0.013 C 
ATOM     27  C   UNL     1     -32.780  19.855   0.708  0.00  0.00    +0.058 C 
ENDBRANCH  20  22
ENDBRANCH  17  20
ENDBRANCH  15  17
ENDBRANCH   9  15
BRANCH  10  28
ATOM     28  N   UNL     1     -32.061  27.709   4.944  0.00  0.00    -0.181 NA
BRANCH  28  30
ATOM     29  N   UNL     1     -30.076  28.573   5.909  0.00  0.00    -0.368 N 
ATOM     30  C   UNL     1     -31.398  28.752   5.561  0.00  0.00    +0.225 C 
ATOM     31  H   UNL     1     -29.633  27.710   5.732  0.00  0.00    +0.159 HD
ATOM     32  H   UNL     1     -29.575  29.305   6.335  0.00  0.00    +0.159 HD
BRANCH  30  33
ATOM     33  N   UNL     1     -32.118  29.827   5.731  0.00  0.00    -0.212 NA
BRANCH  33  35
ATOM     34 CL   UNL     1     -32.235  33.881   1.432  0.00  0.00    -0.082 Cl
ATOM     35  C   UNL     1     -32.146  30.791   4.709  0.00  0.00    +0.084 C 
ATOM     36  C   UNL     1     -33.227  30.840   3.834  0.00  0.00    +0.020 C 
ATOM     37  C   UNL     1     -31.092  31.692   4.579  0.00  0.00    +0.020 C 
ATOM     38  C   UNL     1     -33.255  31.796   2.819  0.00  0.00    +0.013 C 
ATOM     39  C   UNL     1     -31.120  32.649   3.565  0.00  0.00    +0.013 C 
ATOM     40  C   UNL     1     -32.201  32.701   2.684  0.00  0.00    +0.058 C 
ENDBRANCH  33  35
ENDBRANCH  30  33
ENDBRANCH  28  30
ENDBRANCH  10  28
TORSDOF 8
ENDMDL
MODEL 2
REMARK VINA RESULT:      -7.2      0.123      9.794
REMARK  Name = 5748610
REMARK  8 active torsions:
REMARK  status: ('A' for Active; 'I' for Inactive)
REMARK    1  A    between atoms: N_5  and  C_11
REMARK    2  A    between atoms: N_5  and  C_19
REMARK    3  A    between atoms: N_6  and  C_12
REMARK    4  A    between atoms: N_6  and  C_31
REMARK    5  A    between atoms: N_17  and  C_19
REMARK    6  A    between atoms: N_17  and  C_23
REMARK    7  A    between atoms: N_29  and  C_31
REMARK    8  A    between atoms: N_29  and  C_35
REMARK                            x       y       z     vdW  Elec       q    Type
REMARK                         _______ _______ _______ _____ _____    ______ ____
ROOT
ATOM      1  N   UNL     1     -33.873  26.186   5.199  0.00  0.00    -0.277 N 
ATOM      2  N   UNL     1     -35.839  24.351   4.166  0.00  0.00    -0.277 N 
ATOM      3  N   UNL     1     -32.969  27.105   7.060  0.00  0.00    -0.371 N 
ATOM      4  N   UNL     1     -37.954  24.105   3.397  0.00  0.00    -0.371 N 
ATOM      5  C   UNL     1     -33.654  25.466   3.945  0.00  0.00    +0.115 C 
ATOM      6  C   UNL     1     -35.131  25.945   5.904  0.00  0.00    +0.115 C 
ATOM      7  C   UNL     1     -34.410  24.140   3.940  0.00  0.00    +0.115 C 
ATOM      8  C   UNL     1     -36.232  25.535   4.930  0.00  0.00    +0.115 C 
ATOM      9  C   UNL     1     -32.947  27.044   5.687  0.00  0.00    +0.193 C 
ATOM     10  C   UNL     1     -36.762  23.485   3.686  0.00  0.00    +0.193 C 
ATOM     11  H   UNL     1     -33.614  26.560   7.566  0.00  0.00    +0.159 HD
ATOM     12  H   UNL     1     -32.340  27.693   7.536  0.00  0.00    +0.159 HD
ATOM     13  H   UNL     1     -38.056  25.072   3.547  0.00  0.00    +0.159 HD
ATOM     14  H   UNL     1     -38.707  23.580   3.039  0.00  0.00    +0.159 HD
ENDROOT
BRANCH   9  15
ATOM     15  N   UNL     1     -32.097  27.762   4.999  0.00  0.00    -0.181 NA
BRANCH  15  17
ATOM     16  N   UNL     1     -30.169  28.609   6.087  0.00  0.00    -0.368 N 
ATOM     17  C   UNL     1     -31.464  28.801   5.652  0.00  0.00    +0.225 C 
ATOM     18  H   UNL     1     -29.726  27.741   5.944  0.00  0.00    +0.159 HD
ATOM     19  H   UNL     1     -29.688  29.338   6.540  0.00  0.00    +0.159 HD
BRANCH  17  20
ATOM     20  N   UNL     1     -32.179  29.887   5.767  0.00  0.00    -0.212 NA
BRANCH  20  22
ATOM     21 CL   UNL     1     -32.074  33.859   1.394  0.00  0.00    -0.082 Cl
ATOM     22  C   UNL     1     -32.153  30.830   4.727  0.00  0.00    +0.084 C 
ATOM     23  C   UNL     1     -31.078  31.705   4.615  0.00  0.00    +0.020 C 
ATOM     24  C   UNL     1     -33.205  30.883   3.817  0.00  0.00    +0.020 C 
ATOM     25  C   UNL     1     -31.053  32.643   3.583  0.00  0.00    +0.013 C 
ATOM     26  C   UNL     1     -33.180  31.821   2.784  0.00  0.00    +0.013 C 
ATOM     27  C   UNL     1     -32.104  32.701   2.668  0.00  0.00    +0.058 C 
ENDBRANCH  20  22
ENDBRANCH  17  20
ENDBRANCH  15  17
ENDBRANCH   9  15
BRANCH  10  28
ATOM     28  N   UNL     1     -36.612  22.200   3.492  0.00  0.00    -0.181 NA
BRANCH  28  30
ATOM     29  N   UNL     1     -38.090  20.923   2.152  0.00  0.00    -0.368 N 
ATOM     30  C   UNL     1     -36.954  21.696   2.252  0.00  0.00    +0.225 C 
ATOM     31  H   UNL     1     -38.625  20.727   2.955  0.00  0.00    +0.159 HD
ATOM     32  H   UNL     1     -38.367  20.564   1.277  0.00  0.00    +0.159 HD
BRANCH  30  33
ATOM     33  N   UNL     1     -36.147  22.039   1.286  0.00  0.00    -0.212 NA
BRANCH  33  35
ATOM     34 CL   UNL     1     -31.226  18.882   0.427  0.00  0.00    -0.082 Cl
ATOM     35  C   UNL     1     -34.976  21.289   1.082  0.00  0.00    +0.084 C 
ATOM     36  C   UNL     1     -33.943  21.815   0.313  0.00  0.00    +0.020 C 
ATOM     37  C   UNL     1     -34.859  20.024   1.651  0.00  0.00    +0.020 C 
ATOM     38  C   UNL     1     -32.782  21.070   0.110  0.00  0.00    +0.013 C 
ATOM     39  C   UNL     1     -33.698  19.278   1.449  0.00  0.00    +0.013 C 
ATOM     40  C   UNL     1     -32.659  19.801   0.678  0.00  0.00    +0.058 C 
ENDBRANCH  33  35
ENDBRANCH  30  33
ENDBRANCH  28  30
ENDBRANCH  10  28
TORSDOF 8
ENDMDL
MODEL 3
REMARK VINA RESULT:      -7.2      1.438      9.774
REMARK  Name = 5748610
REMARK  8 active torsions:
REMARK  status: ('A' for Active; 'I' for Inactive)
REMARK    1  A    between atoms: N_5  and  C_11
REMARK    2  A    between atoms: N_5  and  C_19
REMARK    3  A    between atoms: N_6  and  C_12
REMARK    4  A    between atoms: N_6  and  C_31
REMARK    5  A    between atoms: N_17  and  C_19
REMARK    6  A    between atoms: N_17  and  C_23
REMARK    7  A    between atoms: N_29  and  C_31
REMARK    8  A    between atoms: N_29  and  C_35
REMARK                            x       y       z     vdW  Elec       q    Type
REMARK                         _______ _______ _______ _____ _____    ______ ____
ROOT
ATOM      1  N   UNL     1     -33.856  26.623   4.267  0.00  0.00    -0.277 N 
ATOM      2  N   UNL     1     -35.665  24.428   3.813  0.00  0.00    -0.277 N 
ATOM      3  N   UNL     1     -32.685  27.792   5.814  0.00  0.00    -0.371 N 
ATOM      4  N   UNL     1     -37.828  23.787   3.626  0.00  0.00    -0.371 N 
ATOM      5  C   UNL     1     -33.839  25.874   3.012  0.00  0.00    +0.115 C 
ATOM      6  C   UNL     1     -34.831  26.221   5.280  0.00  0.00    +0.115 C 
ATOM      7  C   UNL     1     -34.325  24.443   3.226  0.00  0.00    +0.115 C 
ATOM      8  C   UNL     1     -36.053  25.575   4.634  0.00  0.00    +0.115 C 
ATOM      9  C   UNL     1     -33.001  27.651   4.483  0.00  0.00    +0.193 C 
ATOM     10  C   UNL     1     -36.512  23.393   3.605  0.00  0.00    +0.193 C 
ATOM     11  H   UNL     1     -33.073  27.179   6.479  0.00  0.00    +0.159 HD
ATOM     12  H   UNL     1     -32.070  28.504   6.100  0.00  0.00    +0.159 HD
ATOM     13  H   UNL     1     -38.057  24.732   3.782  0.00  0.00    +0.159 HD
ATOM     14  H   UNL     1     -38.543  23.124   3.486  0.00  0.00    +0.159 HD
ENDROOT
BRANCH   9  15
ATOM     15  N   UNL     1     -32.495  28.457   3.586  0.00  0.00    -0.181 NA
BRANCH  15  17
ATOM     16  N   UNL     1     -30.865  30.142   3.935  0.00  0.00    -0.368 N 
ATOM     17  C   UNL     1     -32.185  29.742   3.984  0.00  0.00    +0.225 C 
ATOM     18  H   UNL     1     -30.171  29.511   3.637  0.00  0.00    +0.159 HD
ATOM     19  H   UNL     1     -30.618  31.059   4.196  0.00  0.00    +0.159 HD
BRANCH  17  20
ATOM     20  N   UNL     1     -33.210  30.459   4.354  0.00  0.00    -0.212 NA
BRANCH  20  22
ATOM     21 CL   UNL     1     -36.378  33.258   0.225  0.00  0.00    -0.082 Cl
ATOM     22  C   UNL     1     -33.963  31.123   3.372  0.00  0.00    +0.084 C 
ATOM     23  C   UNL     1     -33.386  32.157   2.641  0.00  0.00    +0.020 C 
ATOM     24  C   UNL     1     -35.281  30.743   3.137  0.00  0.00    +0.020 C 
ATOM     25  C   UNL     1     -34.134  32.819   1.667  0.00  0.00    +0.013 C 
ATOM     26  C   UNL     1     -36.029  31.404   2.162  0.00  0.00    +0.013 C 
ATOM     27  C   UNL     1     -35.455  32.442   1.427  0.00  0.00    +0.058 C 
ENDBRANCH  20  22
ENDBRANCH  17  20
ENDBRANCH  15  17
ENDBRANCH   9  15
BRANCH  10  28
ATOM     28  N   UNL     1     -36.192  22.141   3.398  0.00  0.00    -0.181 NA
BRANCH  28  30
ATOM     29  N   UNL     1     -37.780  20.811   2.249  0.00  0.00    -0.368 N 
ATOM     30  C   UNL     1     -36.620  21.557   2.223  0.00  0.00    +0.225 C 
ATOM     31  H   UNL     1     -38.270  20.691   3.095  0.00  0.00    +0.159 HD
ATOM     32  H   UNL     1     -38.117  20.396   1.422  0.00  0.00    +0.159 HD
BRANCH  30  33
ATOM     33  N   UNL     1     -35.866  21.803   1.188  0.00  0.00    -0.212 NA
BRANCH  33  35
ATOM     34 CL   UNL     1     -30.932  18.638   0.439  0.00  0.00    -0.082 Cl
ATOM     35  C   UNL     1     -34.692  21.051   1.011  0.00  0.00    +0.084 C 
ATOM     36  C   UNL     1     -33.649  21.567   0.248  0.00  0.00    +0.020 C 
ATOM     37  C   UNL     1     -34.582  19.794   1.599  0.00  0.00    +0.020 C 
ATOM     38  C   UNL     1     -32.485  20.820   0.071  0.00  0.00    +0.013 C 
ATOM     39  C   UNL     1     -33.417  19.047   1.422  0.00  0.00    +0.013 C 
ATOM     40  C   UNL     1     -32.369  19.560   0.658  0.00  0.00    +0.058 C 
ENDBRANCH  33  35
ENDBRANCH  30  33
ENDBRANCH  28  30
ENDBRANCH  10  28
TORSDOF 8
ENDMDL
MODEL 4
REMARK VINA RESULT:      -7.2      1.413      2.094
REMARK  Name = 5748610
REMARK  8 active torsions:
REMARK  status: ('A' for Active; 'I' for Inactive)
REMARK    1  A    between atoms: N_5  and  C_11
REMARK    2  A    between atoms: N_5  and  C_19
REMARK    3  A    between atoms: N_6  and  C_12
REMARK    4  A    between atoms: N_6  and  C_31
REMARK    5  A    between atoms: N_17  and  C_19
REMARK    6  A    between atoms: N_17  and  C_23
REMARK    7  A    between atoms: N_29  and  C_31
REMARK    8  A    between atoms: N_29  and  C_35
REMARK                            x       y       z     vdW  Elec       q    Type
REMARK                         _______ _______ _______ _____ _____    ______ ____
ROOT
ATOM      1  N   UNL     1     -35.656  24.512   3.887  0.00  0.00    -0.277 N 
ATOM      2  N   UNL     1     -33.776  26.649   4.331  0.00  0.00    -0.277 N 
ATOM      3  N   UNL     1     -37.840  23.959   3.665  0.00  0.00    -0.371 N 
ATOM      4  N   UNL     1     -32.594  27.820   5.866  0.00  0.00    -0.371 N 
ATOM      5  C   UNL     1     -34.306  24.464   3.326  0.00  0.00    +0.115 C 
ATOM      6  C   UNL     1     -36.012  25.682   4.687  0.00  0.00    +0.115 C 
ATOM      7  C   UNL     1     -33.764  25.872   3.092  0.00  0.00    +0.115 C 
ATOM      8  C   UNL     1     -34.775  26.295   5.338  0.00  0.00    +0.115 C 
ATOM      9  C   UNL     1     -36.541  23.510   3.673  0.00  0.00    +0.193 C 
ATOM     10  C   UNL     1     -32.898  27.658   4.536  0.00  0.00    +0.193 C 
ATOM     11  H   UNL     1     -38.032  24.914   3.806  0.00  0.00    +0.159 HD
ATOM     12  H   UNL     1     -38.578  23.325   3.517  0.00  0.00    +0.159 HD
ATOM     13  H   UNL     1     -33.007  27.234   6.541  0.00  0.00    +0.159 HD
ATOM     14  H   UNL     1     -31.963  28.523   6.145  0.00  0.00    +0.159 HD
ENDROOT
BRANCH   9  15
ATOM     15  N   UNL     1     -36.269  22.244   3.488  0.00  0.00    -0.181 NA
BRANCH  15  17
ATOM     16  N   UNL     1     -37.799  20.922   2.252  0.00  0.00    -0.368 N 
ATOM     17  C   UNL     1     -36.646  21.679   2.286  0.00  0.00    +0.225 C 
ATOM     18  H   UNL     1     -38.319  20.781   3.075  0.00  0.00    +0.159 HD
ATOM     19  H   UNL     1     -38.100  20.521   1.404  0.00  0.00    +0.159 HD
BRANCH  17  20
ATOM     20  N   UNL     1     -35.856  21.953   1.284  0.00  0.00    -0.212 NA
BRANCH  20  22
ATOM     21 CL   UNL     1     -31.071  18.593   0.428  0.00  0.00    -0.082 Cl
ATOM     22  C   UNL     1     -34.719  21.154   1.080  0.00  0.00    +0.084 C 
ATOM     23  C   UNL     1     -34.641  19.898   1.672  0.00  0.00    +0.020 C 
ATOM     24  C   UNL     1     -33.677  21.625   0.286  0.00  0.00    +0.020 C 
ATOM     25  C   UNL     1     -33.512  19.104   1.471  0.00  0.00    +0.013 C 
ATOM     26  C   UNL     1     -32.547  20.832   0.084  0.00  0.00    +0.013 C 
ATOM     27  C   UNL     1     -32.465  19.572   0.676  0.00  0.00    +0.058 C 
ENDBRANCH  20  22
ENDBRANCH  17  20
ENDBRANCH  15  17
ENDBRANCH   9  15
BRANCH  10  28
ATOM     28  N   UNL     1     -32.357  28.430   3.628  0.00  0.00    -0.181 NA
BRANCH  28  30
ATOM     29  N   UNL     1     -30.860  30.254   3.850  0.00  0.00    -0.368 N 
ATOM     30  C   UNL     1     -32.140  29.753   3.960  0.00  0.00    +0.225 C 
ATOM     31  H   UNL     1     -30.125  29.666   3.558  0.00  0.00    +0.159 HD
ATOM     32  H   UNL     1     -30.680  31.197   4.064  0.00  0.00    +0.159 HD
BRANCH  30  33
ATOM     33  N   UNL     1     -33.210  30.401   4.331  0.00  0.00    -0.212 NA
BRANCH  33  35
ATOM     34 CL   UNL     1     -36.341  33.313   0.251  0.00  0.00    -0.082 Cl
ATOM     35  C   UNL     1     -33.954  31.093   3.360  0.00  0.00    +0.084 C 
ATOM     36  C   UNL     1     -33.359  32.122   2.638  0.00  0.00    +0.020 C 
ATOM     37  C   UNL     1     -35.281  30.743   3.129  0.00  0.00    +0.020 C 
ATOM     38  C   UNL     1     -34.098  32.810   1.675  0.00  0.00    +0.013 C 
ATOM     39  C   UNL     1     -36.021  31.431   2.166  0.00  0.00    +0.013 C 
ATOM     40  C   UNL     1     -35.429  32.464   1.439  0.00  0.00    +0.058 C 
ENDBRANCH  33  35
ENDBRANCH  30  33
ENDBRANCH  28  30
ENDBRANCH  10  28
TORSDOF 8
ENDMDL
MODEL 5
REMARK VINA RESULT:      -7.1      2.378      3.231
REMARK  Name = 5748610
REMARK  8 active torsions:
REMARK  status: ('A' for Active; 'I' for Inactive)
REMARK    1  A    between atoms: N_5  and  C_11
REMARK    2  A    between atoms: N_5  and  C_19
REMARK    3  A    between atoms: N_6  and  C_12
REMARK    4  A    between atoms: N_6  and  C_31
REMARK    5  A    between atoms: N_17  and  C_19
REMARK    6  A    between atoms: N_17  and  C_23
REMARK    7  A    between atoms: N_29  and  C_31
REMARK    8  A    between atoms: N_29  and  C_35
REMARK                            x       y       z     vdW  Elec       q    Type
REMARK                         _______ _______ _______ _____ _____    ______ ____
ROOT
ATOM      1  N   UNL     1     -36.484  22.628   2.760  0.00  0.00    -0.277 N 
ATOM      2  N   UNL     1     -35.675  25.319   3.391  0.00  0.00    -0.277 N 
ATOM      3  N   UNL     1     -38.197  21.292   2.122  0.00  0.00    -0.371 N 
ATOM      4  N   UNL     1     -35.403  26.863   5.025  0.00  0.00    -0.371 N 
ATOM      5  C   UNL     1     -35.118  23.086   2.515  0.00  0.00    +0.115 C 
ATOM      6  C   UNL     1     -37.422  23.586   3.344  0.00  0.00    +0.115 C 
ATOM      7  C   UNL     1     -35.085  24.592   2.268  0.00  0.00    +0.115 C 
ATOM      8  C   UNL     1     -36.687  24.625   4.186  0.00  0.00    +0.115 C 
ATOM      9  C   UNL     1     -36.867  21.365   2.458  0.00  0.00    +0.193 C 
ATOM     10  C   UNL     1     -35.299  26.587   3.683  0.00  0.00    +0.193 C 
ATOM     11  H   UNL     1     -38.750  22.106   2.123  0.00  0.00    +0.159 HD
ATOM     12  H   UNL     1     -38.596  20.425   1.880  0.00  0.00    +0.159 HD
ATOM     13  H   UNL     1     -35.723  26.170   5.647  0.00  0.00    +0.159 HD
ATOM     14  H   UNL     1     -35.157  27.754   5.365  0.00  0.00    +0.159 HD
ENDROOT
BRANCH   9  15
ATOM     15  N   UNL     1     -36.118  20.293   2.462  0.00  0.00    -0.181 NA
BRANCH  15  17
ATOM     16  N   UNL     1     -36.595  18.590   0.884  0.00  0.00    -0.368 N 
ATOM     17  C   UNL     1     -35.852  19.695   1.246  0.00  0.00    +0.225 C 
ATOM     18  H   UNL     1     -37.282  18.237   1.495  0.00  0.00    +0.159 HD
ATOM     19  H   UNL     1     -36.439  18.154   0.015  0.00  0.00    +0.159 HD
BRANCH  17  20
ATOM     20  N   UNL     1     -34.914  20.274   0.548  0.00  0.00    -0.212 NA
BRANCH  20  22
ATOM     21 CL   UNL     1     -29.447  18.038   0.707  0.00  0.00    -0.082 Cl
ATOM     22  C   UNL     1     -33.614  19.743   0.587  0.00  0.00    +0.084 C 
ATOM     23  C   UNL     1     -32.573  20.417  -0.043  0.00  0.00    +0.020 C 
ATOM     24  C   UNL     1     -33.377  18.545   1.254  0.00  0.00    +0.020 C 
ATOM     25  C   UNL     1     -31.282  19.889  -0.006  0.00  0.00    +0.013 C 
ATOM     26  C   UNL     1     -32.086  18.017   1.292  0.00  0.00    +0.013 C 
ATOM     27  C   UNL     1     -31.039  18.689   0.662  0.00  0.00    +0.058 C 
ENDBRANCH  20  22
ENDBRANCH  17  20
ENDBRANCH  15  17
ENDBRANCH   9  15
BRANCH  10  28
ATOM     28  N   UNL     1     -34.875  27.497   2.844  0.00  0.00    -0.181 NA
BRANCH  28  30
ATOM     29  N   UNL     1     -32.561  27.398   2.344  0.00  0.00    -0.368 N 
ATOM     30  C   UNL     1     -33.600  27.992   3.029  0.00  0.00    +0.225 C 
ATOM     31  H   UNL     1     -32.736  26.628   1.755  0.00  0.00    +0.159 HD
ATOM     32  H   UNL     1     -31.644  27.741   2.445  0.00  0.00    +0.159 HD
BRANCH  30  33
ATOM     33  N   UNL     1     -33.526  29.011   3.840  0.00  0.00    -0.212 NA
BRANCH  33  35
ATOM     34 CL   UNL     1     -28.738  29.601   7.254  0.00  0.00    -0.082 Cl
ATOM     35  C   UNL     1     -32.388  29.151   4.652  0.00  0.00    +0.084 C 
ATOM     36  C   UNL     1     -32.097  28.184   5.609  0.00  0.00    +0.020 C 
ATOM     37  C   UNL     1     -31.557  30.257   4.492  0.00  0.00    +0.020 C 
ATOM     38  C   UNL     1     -30.968  28.323   6.415  0.00  0.00    +0.013 C 
ATOM     39  C   UNL     1     -30.427  30.396   5.298  0.00  0.00    +0.013 C 
ATOM     40  C   UNL     1     -30.132  29.429   6.259  0.00  0.00    +0.058 C 
ENDBRANCH  33  35
ENDBRANCH  30  33
ENDBRANCH  28  30
ENDBRANCH  10  28
TORSDOF 8
ENDMDL
MODEL 6
REMARK VINA RESULT:      -7.1      1.988      9.819
REMARK  Name = 5748610
REMARK  8 active torsions:
REMARK  status: ('A' for Active; 'I' for Inactive)
REMARK    1  A    between atoms: N_5  and  C_11
REMARK    2  A    between atoms: N_5  and  C_19
REMARK    3  A    between atoms: N_6  and  C_12
REMARK    4  A    between atoms: N_6  and  C_31
REMARK    5  A    between atoms: N_17  and  C_19
REMARK    6  A    between atoms: N_17  and  C_23
REMARK    7  A    between atoms: N_29  and  C_31
REMARK    8  A    between atoms: N_29  and  C_35
REMARK                            x       y       z     vdW  Elec       q    Type
REMARK                         _______ _______ _______ _____ _____    ______ ____
ROOT
ATOM      1  N   UNL     1     -35.475  24.934   4.353  0.00  0.00    -0.277 N 
ATOM      2  N   UNL     1     -35.868  22.950   2.302  0.00  0.00    -0.277 N 
ATOM      3  N   UNL     1     -36.411  26.644   5.504  0.00  0.00    -0.371 N 
ATOM      4  N   UNL     1     -35.660  22.458   0.102  0.00  0.00    -0.371 N 
ATOM      5  C   UNL     1     -34.780  23.649   4.397  0.00  0.00    +0.115 C 
ATOM      6  C   UNL     1     -36.371  25.177   3.223  0.00  0.00    +0.115 C 
ATOM      7  C   UNL     1     -35.589  22.568   3.686  0.00  0.00    +0.115 C 
ATOM      8  C   UNL     1     -35.933  24.379   1.998  0.00  0.00    +0.115 C 
ATOM      9  C   UNL     1     -35.294  25.865   5.319  0.00  0.00    +0.193 C 
ATOM     10  C   UNL     1     -36.060  22.017   1.341  0.00  0.00    +0.193 C 
ATOM     11  H   UNL     1     -37.216  26.488   4.959  0.00  0.00    +0.159 HD
ATOM     12  H   UNL     1     -36.406  27.358   6.182  0.00  0.00    +0.159 HD
ATOM     13  H   UNL     1     -35.286  23.362  -0.001  0.00  0.00    +0.159 HD
ATOM     14  H   UNL     1     -35.747  21.868  -0.682  0.00  0.00    +0.159 HD
ENDROOT
BRANCH   9  15
ATOM     15  N   UNL     1     -34.217  26.059   6.035  0.00  0.00    -0.181 NA
BRANCH  15  17
ATOM     16  N   UNL     1     -33.148  27.150   4.223  0.00  0.00    -0.368 N 
ATOM     17  C   UNL     1     -33.311  26.999   5.584  0.00  0.00    +0.225 C 
ATOM     18  H   UNL     1     -33.658  26.583   3.600  0.00  0.00    +0.159 HD
ATOM     19  H   UNL     1     -32.522  27.825   3.874  0.00  0.00    +0.159 HD
BRANCH  17  20
ATOM     20  N   UNL     1     -32.711  27.672   6.528  0.00  0.00    -0.212 NA
BRANCH  20  22
ATOM     21 CL   UNL     1     -28.670  31.713   5.028  0.00  0.00    -0.082 Cl
ATOM     22  C   UNL     1     -31.750  28.632   6.170  0.00  0.00    +0.084 C 
ATOM     23  C   UNL     1     -30.398  28.309   6.220  0.00  0.00    +0.020 C 
ATOM     24  C   UNL     1     -32.158  29.901   5.770  0.00  0.00    +0.020 C 
ATOM     25  C   UNL     1     -29.444  29.263   5.866  0.00  0.00    +0.013 C 
ATOM     26  C   UNL     1     -31.204  30.855   5.416  0.00  0.00    +0.013 C 
ATOM     27  C   UNL     1     -29.847  30.536   5.464  0.00  0.00    +0.058 C 
ENDBRANCH  20  22
ENDBRANCH  17  20
ENDBRANCH  15  17
ENDBRANCH   9  15
BRANCH  10  28
ATOM     28  N   UNL     1     -36.560  20.817   1.494  0.00  0.00    -0.181 NA
BRANCH  28  30
ATOM     29  N   UNL     1     -36.119  18.762   0.399  0.00  0.00    -0.368 N 
ATOM     30  C   UNL     1     -35.719  19.742   1.283  0.00  0.00    +0.225 C 
ATOM     31  H   UNL     1     -36.993  18.831  -0.049  0.00  0.00    +0.159 HD
ATOM     32  H   UNL     1     -35.532  17.993   0.217  0.00  0.00    +0.159 HD
BRANCH  30  33
ATOM     33  N   UNL     1     -34.599  19.791   1.950  0.00  0.00    -0.212 NA
BRANCH  33  35
ATOM     34 CL   UNL     1     -29.559  18.484  -0.847  0.00  0.00    -0.082 Cl
ATOM     35  C   UNL     1     -33.400  19.481   1.285  0.00  0.00    +0.084 C 
ATOM     36  C   UNL     1     -32.836  20.403   0.410  0.00  0.00    +0.020 C 
ATOM     37  C   UNL     1     -32.785  18.252   1.508  0.00  0.00    +0.020 C 
ATOM     38  C   UNL     1     -31.647  20.095  -0.251  0.00  0.00    +0.013 C 
ATOM     39  C   UNL     1     -31.596  17.943   0.847  0.00  0.00    +0.013 C 
ATOM     40  C   UNL     1     -31.027  18.865  -0.032  0.00  0.00    +0.058 C 
ENDBRANCH  33  35
ENDBRANCH  30  33
ENDBRANCH  28  30
ENDBRANCH  10  28
TORSDOF 8
ENDMDL
MODEL 7
REMARK VINA RESULT:      -7.1      2.334      9.726
REMARK  Name = 5748610
REMARK  8 active torsions:
REMARK  status: ('A' for Active; 'I' for Inactive)
REMARK    1  A    between atoms: N_5  and  C_11
REMARK    2  A    between atoms: N_5  and  C_19
REMARK    3  A    between atoms: N_6  and  C_12
REMARK    4  A    between atoms: N_6  and  C_31
REMARK    5  A    between atoms: N_17  and  C_19
REMARK    6  A    between atoms: N_17  and  C_23
REMARK    7  A    between atoms: N_29  and  C_31
REMARK    8  A    between atoms: N_29  and  C_35
REMARK                            x       y       z     vdW  Elec       q    Type
REMARK                         _______ _______ _______ _____ _____    ______ ____
ROOT
ATOM      1  N   UNL     1     -35.508  25.213   3.538  0.00  0.00    -0.277 N 
ATOM      2  N   UNL     1     -36.395  22.563   2.839  0.00  0.00    -0.277 N 
ATOM      3  N   UNL     1     -35.070  26.653   5.230  0.00  0.00    -0.371 N 
ATOM      4  N   UNL     1     -38.164  21.259   2.296  0.00  0.00    -0.371 N 
ATOM      5  C   UNL     1     -35.029  24.547   2.328  0.00  0.00    +0.115 C 
ATOM      6  C   UNL     1     -36.459  24.485   4.376  0.00  0.00    +0.115 C 
ATOM      7  C   UNL     1     -35.053  23.030   2.496  0.00  0.00    +0.115 C 
ATOM      8  C   UNL     1     -37.272  23.496   3.545  0.00  0.00    +0.115 C 
ATOM      9  C   UNL     1     -35.086  26.456   3.870  0.00  0.00    +0.193 C 
ATOM     10  C   UNL     1     -36.809  21.315   2.517  0.00  0.00    +0.193 C 
ATOM     11  H   UNL     1     -35.348  25.928   5.835  0.00  0.00    +0.159 HD
ATOM     12  H   UNL     1     -34.780  27.518   5.598  0.00  0.00    +0.159 HD
ATOM     13  H   UNL     1     -38.712  22.073   2.382  0.00  0.00    +0.159 HD
ATOM     14  H   UNL     1     -38.588  20.404   2.052  0.00  0.00    +0.159 HD
ENDROOT
BRANCH   9  15
ATOM     15  N   UNL     1     -34.720  27.409   3.052  0.00  0.00    -0.181 NA
BRANCH  15  17
ATOM     16  N   UNL     1     -32.411  27.256   2.542  0.00  0.00    -0.368 N 
ATOM     17  C   UNL     1     -33.441  27.910   3.187  0.00  0.00    +0.225 C 
ATOM     18  H   UNL     1     -32.596  26.444   2.017  0.00  0.00    +0.159 HD
ATOM     19  H   UNL     1     -31.491  27.602   2.607  0.00  0.00    +0.159 HD
BRANCH  17  20
ATOM     20  N   UNL     1     -33.353  28.989   3.914  0.00  0.00    -0.212 NA
BRANCH  20  22
ATOM     21 CL   UNL     1     -28.582  29.757   7.314  0.00  0.00    -0.082 Cl
ATOM     22  C   UNL     1     -32.220  29.172   4.723  0.00  0.00    +0.084 C 
ATOM     23  C   UNL     1     -31.388  30.267   4.510  0.00  0.00    +0.020 C 
ATOM     24  C   UNL     1     -31.936  28.257   5.732  0.00  0.00    +0.020 C 
ATOM     25  C   UNL     1     -30.261  30.448   5.312  0.00  0.00    +0.013 C 
ATOM     26  C   UNL     1     -30.810  28.438   6.536  0.00  0.00    +0.013 C 
ATOM     27  C   UNL     1     -29.973  29.534   6.325  0.00  0.00    +0.058 C 
ENDBRANCH  20  22
ENDBRANCH  17  20
ENDBRANCH  15  17
ENDBRANCH   9  15
BRANCH  10  28
ATOM     28  N   UNL     1     -36.068  20.242   2.407  0.00  0.00    -0.181 NA
BRANCH  28  30
ATOM     29  N   UNL     1     -36.776  18.642   0.809  0.00  0.00    -0.368 N 
ATOM     30  C   UNL     1     -35.937  19.681   1.152  0.00  0.00    +0.225 C 
ATOM     31  H   UNL     1     -37.435  18.306   1.461  0.00  0.00    +0.159 HD
ATOM     32  H   UNL     1     -36.716  18.234  -0.084  0.00  0.00    +0.159 HD
BRANCH  30  33
ATOM     33  N   UNL     1     -35.020  20.231   0.405  0.00  0.00    -0.212 NA
BRANCH  33  35
ATOM     34 CL   UNL     1     -29.493  18.156   0.687  0.00  0.00    -0.082 Cl
ATOM     35  C   UNL     1     -33.706  19.738   0.471  0.00  0.00    +0.084 C 
ATOM     36  C   UNL     1     -33.451  18.536   1.125  0.00  0.00    +0.020 C 
ATOM     37  C   UNL     1     -32.668  20.455  -0.117  0.00  0.00    +0.020 C 
ATOM     38  C   UNL     1     -32.147  18.046   1.192  0.00  0.00    +0.013 C 
ATOM     39  C   UNL     1     -31.363  19.965  -0.050  0.00  0.00    +0.013 C 
ATOM     40  C   UNL     1     -31.103  18.761   0.604  0.00  0.00    +0.058 C 
ENDBRANCH  33  35
ENDBRANCH  30  33
ENDBRANCH  28  30
ENDBRANCH  10  28
TORSDOF 8
ENDMDL
MODEL 8
REMARK VINA RESULT:      -7.0      1.937      3.053
REMARK  Name = 5748610
REMARK  8 active torsions:
REMARK  status: ('A' for Active; 'I' for Inactive)
REMARK    1  A    between atoms: N_5  and  C_11
REMARK    2  A    between atoms: N_5  and  C_19
REMARK    3  A    between atoms: N_6  and  C_12
REMARK    4  A    between atoms: N_6  and  C_31
REMARK    5  A    between atoms: N_17  and  C_19
REMARK    6  A    between atoms: N_17  and  C_23
REMARK    7  A    between atoms: N_29  and  C_31
REMARK    8  A    between atoms: N_29  and  C_35
REMARK                            x       y       z     vdW  Elec       q    Type
REMARK                         _______ _______ _______ _____ _____    ______ ____
ROOT
ATOM      1  N   UNL     1     -36.022  22.967   2.357  0.00  0.00    -0.277 N 
ATOM      2  N   UNL     1     -35.513  24.925   4.408  0.00  0.00    -0.277 N 
ATOM      3  N   UNL     1     -35.925  22.512   0.141  0.00  0.00    -0.371 N 
ATOM      4  N   UNL     1     -36.369  26.626   5.632  0.00  0.00    -0.371 N 
ATOM      5  C   UNL     1     -35.666  22.566   3.718  0.00  0.00    +0.115 C 
ATOM      6  C   UNL     1     -36.117  24.399   2.080  0.00  0.00    +0.115 C 
ATOM      7  C   UNL     1     -34.818  23.638   4.396  0.00  0.00    +0.115 C 
ATOM      8  C   UNL     1     -36.481  25.176   3.342  0.00  0.00    +0.115 C 
ATOM      9  C   UNL     1     -36.255  22.047   1.392  0.00  0.00    +0.193 C 
ATOM     10  C   UNL     1     -35.268  25.847   5.368  0.00  0.00    +0.193 C 
ATOM     11  H   UNL     1     -35.565  23.422   0.034  0.00  0.00    +0.159 HD
ATOM     12  H   UNL     1     -36.047  21.934  -0.646  0.00  0.00    +0.159 HD
ATOM     13  H   UNL     1     -37.208  26.475   5.141  0.00  0.00    +0.159 HD
ATOM     14  H   UNL     1     -36.318  27.335   6.315  0.00  0.00    +0.159 HD
ENDROOT
BRANCH   9  15
ATOM     15  N   UNL     1     -36.734  20.841   1.552  0.00  0.00    -0.181 NA
BRANCH  15  17
ATOM     16  N   UNL     1     -36.280  18.779   0.476  0.00  0.00    -0.368 N 
ATOM     17  C   UNL     1     -35.878  19.779   1.336  0.00  0.00    +0.225 C 
ATOM     18  H   UNL     1     -37.165  18.825   0.047  0.00  0.00    +0.159 HD
ATOM     19  H   UNL     1     -35.682  18.019   0.290  0.00  0.00    +0.159 HD
BRANCH  17  20
ATOM     20  N   UNL     1     -34.743  19.858   1.976  0.00  0.00    -0.212 NA
BRANCH  20  22
ATOM     21 CL   UNL     1     -29.748  18.595  -0.918  0.00  0.00    -0.082 Cl
ATOM     22  C   UNL     1     -33.555  19.558   1.289  0.00  0.00    +0.084 C 
ATOM     23  C   UNL     1     -33.015  20.487   0.405  0.00  0.00    +0.020 C 
ATOM     24  C   UNL     1     -32.927  18.333   1.496  0.00  0.00    +0.020 C 
ATOM     25  C   UNL     1     -31.836  20.189  -0.279  0.00  0.00    +0.013 C 
ATOM     26  C   UNL     1     -31.748  18.035   0.814  0.00  0.00    +0.013 C 
ATOM     27  C   UNL     1     -31.203  18.963  -0.074  0.00  0.00    +0.058 C 
ENDBRANCH  20  22
ENDBRANCH  17  20
ENDBRANCH  15  17
ENDBRANCH   9  15
BRANCH  10  28
ATOM     28  N   UNL     1     -34.145  26.035   6.013  0.00  0.00    -0.181 NA
BRANCH  28  30
ATOM     29  N   UNL     1     -33.188  27.197   4.183  0.00  0.00    -0.368 N 
ATOM     30  C   UNL     1     -33.296  27.019   5.546  0.00  0.00    +0.225 C 
ATOM     31  H   UNL     1     -33.697  26.617   3.569  0.00  0.00    +0.159 HD
ATOM     32  H   UNL     1     -32.603  27.901   3.822  0.00  0.00    +0.159 HD
BRANCH  30  33
ATOM     33  N   UNL     1     -32.690  27.700   6.479  0.00  0.00    -0.212 NA
BRANCH  33  35
ATOM     34 CL   UNL     1     -28.728  31.793   4.905  0.00  0.00    -0.082 Cl
ATOM     35  C   UNL     1     -31.748  28.673   6.104  0.00  0.00    +0.084 C 
ATOM     36  C   UNL     1     -30.395  28.350   6.074  0.00  0.00    +0.020 C 
ATOM     37  C   UNL     1     -32.175  29.954   5.765  0.00  0.00    +0.020 C 
ATOM     38  C   UNL     1     -29.460  29.316   5.704  0.00  0.00    +0.013 C 
ATOM     39  C   UNL     1     -31.240  30.920   5.393  0.00  0.00    +0.013 C 
ATOM     40  C   UNL     1     -29.883  30.601   5.363  0.00  0.00    +0.058 C 
ENDBRANCH  33  35
ENDBRANCH  30  33
ENDBRANCH  28  30
ENDBRANCH  10  28
TORSDOF 8
ENDMDL
MODEL 9
REMARK VINA RESULT:      -6.9      2.265     10.176
REMARK  Name = 5748610
REMARK  8 active torsions:
REMARK  status: ('A' for Active; 'I' for Inactive)
REMARK    1  A    between atoms: N_5  and  C_11
REMARK    2  A    between atoms: N_5  and  C_19
REMARK    3  A    between atoms: N_6  and  C_12
REMARK    4  A    between atoms: N_6  and  C_31
REMARK    5  A    between atoms: N_17  and  C_19
REMARK    6  A    between atoms: N_17  and  C_23
REMARK    7  A    between atoms: N_29  and  C_31
REMARK    8  A    between atoms: N_29  and  C_35
REMARK                            x       y       z     vdW  Elec       q    Type
REMARK                         _______ _______ _______ _____ _____    ______ ____
ROOT
ATOM      1  N   UNL     1     -35.876  25.352   3.218  0.00  0.00    -0.277 N 
ATOM      2  N   UNL     1     -36.535  22.602   2.667  0.00  0.00    -0.277 N 
ATOM      3  N   UNL     1     -35.565  26.914   4.827  0.00  0.00    -0.371 N 
ATOM      4  N   UNL     1     -38.186  21.126   2.201  0.00  0.00    -0.371 N 
ATOM      5  C   UNL     1     -35.341  24.664   2.044  0.00  0.00    +0.115 C 
ATOM      6  C   UNL     1     -36.764  24.593   4.097  0.00  0.00    +0.115 C 
ATOM      7  C   UNL     1     -35.236  23.162   2.294  0.00  0.00    +0.115 C 
ATOM      8  C   UNL     1     -37.489  23.495   3.324  0.00  0.00    +0.115 C 
ATOM      9  C   UNL     1     -35.562  26.643   3.480  0.00  0.00    +0.193 C 
ATOM     10  C   UNL     1     -36.841  21.308   2.414  0.00  0.00    +0.193 C 
ATOM     11  H   UNL     1     -35.782  26.202   5.472  0.00  0.00    +0.159 HD
ATOM     12  H   UNL     1     -35.350  27.820   5.147  0.00  0.00    +0.159 HD
ATOM     13  H   UNL     1     -38.801  21.893   2.244  0.00  0.00    +0.159 HD
ATOM     14  H   UNL     1     -38.536  20.226   2.006  0.00  0.00    +0.159 HD
ENDROOT
BRANCH   9  15
ATOM     15  N   UNL     1     -35.277  27.577   2.610  0.00  0.00    -0.181 NA
BRANCH  15  17
ATOM     16  N   UNL     1     -32.958  28.025   2.414  0.00  0.00    -0.368 N 
ATOM     17  C   UNL     1     -34.200  28.397   2.884  0.00  0.00    +0.225 C 
ATOM     18  H   UNL     1     -32.853  27.184   1.913  0.00  0.00    +0.159 HD
ATOM     19  H   UNL     1     -32.176  28.600   2.580  0.00  0.00    +0.159 HD
BRANCH  17  20
ATOM     20  N   UNL     1     -34.496  29.474   3.559  0.00  0.00    -0.212 NA
BRANCH  20  22
ATOM     21 CL   UNL     1     -35.095  34.585   0.655  0.00  0.00    -0.082 Cl
ATOM     22  C   UNL     1     -34.638  30.689   2.869  0.00  0.00    +0.084 C 
ATOM     23  C   UNL     1     -35.841  30.988   2.237  0.00  0.00    +0.020 C 
ATOM     24  C   UNL     1     -33.575  31.586   2.823  0.00  0.00    +0.020 C 
ATOM     25  C   UNL     1     -35.983  32.194   1.551  0.00  0.00    +0.013 C 
ATOM     26  C   UNL     1     -33.717  32.793   2.138  0.00  0.00    +0.013 C 
ATOM     27  C   UNL     1     -34.920  33.096   1.502  0.00  0.00    +0.058 C 
ENDBRANCH  20  22
ENDBRANCH  17  20
ENDBRANCH  15  17
ENDBRANCH   9  15
BRANCH  10  28
ATOM     28  N   UNL     1     -36.012  20.297   2.361  0.00  0.00    -0.181 NA
BRANCH  28  30
ATOM     29  N   UNL     1     -36.696  18.590   0.867  0.00  0.00    -0.368 N 
ATOM     30  C   UNL     1     -35.865  19.654   1.148  0.00  0.00    +0.225 C 
ATOM     31  H   UNL     1     -37.360  18.296   1.532  0.00  0.00    +0.159 HD
ATOM     32  H   UNL     1     -36.624  18.124   0.003  0.00  0.00    +0.159 HD
BRANCH  30  33
ATOM     33  N   UNL     1     -34.942  20.157   0.376  0.00  0.00    -0.212 NA
BRANCH  33  35
ATOM     34 CL   UNL     1     -29.433  18.054   0.778  0.00  0.00    -0.082 Cl
ATOM     35  C   UNL     1     -33.632  19.657   0.471  0.00  0.00    +0.084 C 
ATOM     36  C   UNL     1     -33.394  18.467   1.153  0.00  0.00    +0.020 C 
ATOM     37  C   UNL     1     -32.581  20.355  -0.118  0.00  0.00    +0.020 C 
ATOM     38  C   UNL     1     -32.094  17.971   1.249  0.00  0.00    +0.013 C 
ATOM     39  C   UNL     1     -31.281  19.859  -0.023  0.00  0.00    +0.013 C 
ATOM     40  C   UNL     1     -31.038  18.667   0.660  0.00  0.00    +0.058 C 
ENDBRANCH  33  35
ENDBRANCH  30  33
ENDBRANCH  28  30
ENDBRANCH  10  28
TORSDOF 8
ENDMDL
