MODEL 1
REMARK VINA RESULT:      -6.1      0.000      0.000
REMARK  Name = 5464517
REMARK  6 active torsions:
REMARK  status: ('A' for Active; 'I' for Inactive)
REMARK    1  A    between atoms: C_1  and  N_13
REMARK    2  A    between atoms: C_2  and  N_9
REMARK    3  A    between atoms: C_5  and  N_12
REMARK    4  A    between atoms: N_13  and  CA_15
REMARK    5  A    between atoms: CA_15  and  C_18
REMARK    6  A    between atoms: C_18  and  O_19
REMARK                            x       y       z     vdW  Elec       q    Type
REMARK                         _______ _______ _______ _____ _____    ______ ____
ROOT
ATOM      1  C   UNK A   0     -36.613  23.399   3.657  0.00  0.00    +0.068 C 
ATOM      2  C   UNK A   0     -35.677  23.255   4.701  0.00  0.00    +0.158 C 
ATOM      3  C   UNK A   0     -36.665  24.634   2.980  0.00  0.00    +0.018 C 
ATOM      4  C   UNK A   0     -34.828  24.305   5.054  0.00  0.00    +0.049 C 
ATOM      5  C   UNK A   0     -34.898  25.518   4.370  0.00  0.00    +0.145 C 
ATOM      6  C   UNK A   0     -35.816  25.682   3.333  0.00  0.00    +0.025 C 
ENDROOT
BRANCH   2   9
ATOM      7  O   UNK A   0     -35.140  21.016   4.824  0.00  0.00    -0.126 OA
ATOM      8  O   UNK A   0     -35.953  21.995   6.613  0.00  0.00    -0.126 OA
ATOM      9  N   UNK A   0     -35.586  22.027   5.415  0.00  0.00    +0.059 N 
ENDBRANCH   2   9
BRANCH   5  12
ATOM     10  O   UNK A   0     -34.174  27.698   4.163  0.00  0.00    -0.126 OA
ATOM     11  O   UNK A   0     -33.155  26.391   5.602  0.00  0.00    -0.126 OA
ATOM     12  N   UNK A   0     -34.035  26.586   4.729  0.00  0.00    +0.058 N 
ENDBRANCH   5  12
BRANCH   1  13
ATOM     13  N   ALA A   1     -37.467  22.373   3.288  0.00  0.00    -0.324 N 
ATOM     14  H   ALA A   1     -37.680  21.682   3.956  0.00  0.00    +0.147 HD
BRANCH  13  15
ATOM     15  CA  ALA A   1     -38.062  22.259   1.975  0.00  0.00    +0.169 C 
ATOM     16  CB  ALA A   1     -37.560  21.008   1.272  0.00  0.00    +0.033 C 
BRANCH  15  18
ATOM     17  OXT ALA A   1     -40.264  23.238   2.044  0.00  0.00    -0.248 OA
ATOM     18  C   ALA A   1     -39.569  22.229   2.081  0.00  0.00    +0.332 C 
BRANCH  18  19
ATOM     19  O   ALA A   1     -40.094  20.981   2.161  0.00  0.00    -0.479 OA
ATOM     20  H   ALA A   1     -39.529  20.233   2.144  0.00  0.00    +0.295 HD
ENDBRANCH  18  19
ENDBRANCH  15  18
ENDBRANCH  13  15
ENDBRANCH   1  13
TORSDOF 6
ENDMDL
MODEL 2
REMARK VINA RESULT:      -5.9      1.927      3.219
REMARK  Name = 5464517
REMARK  6 active torsions:
REMARK  status: ('A' for Active; 'I' for Inactive)
REMARK    1  A    between atoms: C_1  and  N_13
REMARK    2  A    between atoms: C_2  and  N_9
REMARK    3  A    between atoms: C_5  and  N_12
REMARK    4  A    between atoms: N_13  and  CA_15
REMARK    5  A    between atoms: CA_15  and  C_18
REMARK    6  A    between atoms: C_18  and  O_19
REMARK                            x       y       z     vdW  Elec       q    Type
REMARK                         _______ _______ _______ _____ _____    ______ ____
ROOT
ATOM      1  C   UNK A   0     -36.160  23.622   4.177  0.00  0.00    +0.068 C 
ATOM      2  C   UNK A   0     -36.569  24.967   4.075  0.00  0.00    +0.158 C 
ATOM      3  C   UNK A   0     -34.915  23.352   4.778  0.00  0.00    +0.018 C 
ATOM      4  C   UNK A   0     -35.764  26.000   4.556  0.00  0.00    +0.049 C 
ATOM      5  C   UNK A   0     -34.535  25.710   5.147  0.00  0.00    +0.145 C 
ATOM      6  C   UNK A   0     -34.110  24.386   5.257  0.00  0.00    +0.025 C 
ENDROOT
BRANCH   2   9
ATOM      7  O   UNK A   0     -38.836  24.640   3.811  0.00  0.00    -0.126 OA
ATOM      8  O   UNK A   0     -37.864  26.218   2.634  0.00  0.00    -0.126 OA
ATOM      9  N   UNK A   0     -37.818  25.291   3.476  0.00  0.00    +0.059 N 
ENDBRANCH   2   9
BRANCH   5  12
ATOM     10  O   UNK A   0     -33.454  27.730   4.881  0.00  0.00    -0.126 OA
ATOM     11  O   UNK A   0     -33.270  26.691   6.806  0.00  0.00    -0.126 OA
ATOM     12  N   UNK A   0     -33.714  26.760   5.635  0.00  0.00    +0.058 N 
ENDBRANCH   5  12
BRANCH   1  13
ATOM     13  N   ALA A   1     -36.941  22.579   3.708  0.00  0.00    -0.324 N 
ATOM     14  H   ALA A   1     -37.672  22.252   4.279  0.00  0.00    +0.147 HD
BRANCH  13  15
ATOM     15  CA  ALA A   1     -36.739  21.942   2.425  0.00  0.00    +0.169 C 
ATOM     16  CB  ALA A   1     -35.872  22.815   1.532  0.00  0.00    +0.033 C 
BRANCH  15  18
ATOM     17  OXT ALA A   1     -34.959  20.431   3.024  0.00  0.00    -0.248 OA
ATOM     18  C   ALA A   1     -36.101  20.585   2.606  0.00  0.00    +0.332 C 
BRANCH  18  19
ATOM     19  O   ALA A   1     -36.923  19.544   2.322  0.00  0.00    -0.479 OA
ATOM     20  H   ALA A   1     -37.763  19.701   1.939  0.00  0.00    +0.295 HD
ENDBRANCH  18  19
ENDBRANCH  15  18
ENDBRANCH  13  15
ENDBRANCH   1  13
TORSDOF 6
ENDMDL
MODEL 3
REMARK VINA RESULT:      -5.9      1.617      1.941
REMARK  Name = 5464517
REMARK  6 active torsions:
REMARK  status: ('A' for Active; 'I' for Inactive)
REMARK    1  A    between atoms: C_1  and  N_13
REMARK    2  A    between atoms: C_2  and  N_9
REMARK    3  A    between atoms: C_5  and  N_12
REMARK    4  A    between atoms: N_13  and  CA_15
REMARK    5  A    between atoms: CA_15  and  C_18
REMARK    6  A    between atoms: C_18  and  O_19
REMARK                            x       y       z     vdW  Elec       q    Type
REMARK                         _______ _______ _______ _____ _____    ______ ____
ROOT
ATOM      1  C   UNK A   0     -36.046  23.517   3.503  0.00  0.00    +0.068 C 
ATOM      2  C   UNK A   0     -35.416  23.320   4.749  0.00  0.00    +0.158 C 
ATOM      3  C   UNK A   0     -35.911  24.776   2.886  0.00  0.00    +0.018 C 
ATOM      4  C   UNK A   0     -34.680  24.341   5.351  0.00  0.00    +0.049 C 
ATOM      5  C   UNK A   0     -34.560  25.579   4.721  0.00  0.00    +0.145 C 
ATOM      6  C   UNK A   0     -35.176  25.797   3.488  0.00  0.00    +0.025 C 
ENDROOT
BRANCH   2   9
ATOM      7  O   UNK A   0     -36.078  22.021   6.536  0.00  0.00    -0.126 OA
ATOM      8  O   UNK A   0     -35.061  21.044   4.854  0.00  0.00    -0.126 OA
ATOM      9  N   UNK A   0     -35.523  22.066   5.413  0.00  0.00    +0.059 N 
ENDBRANCH   2   9
BRANCH   5  12
ATOM     10  O   UNK A   0     -33.441  27.594   4.636  0.00  0.00    -0.126 OA
ATOM     11  O   UNK A   0     -33.543  26.536   6.556  0.00  0.00    -0.126 OA
ATOM     12  N   UNK A   0     -33.813  26.619   5.333  0.00  0.00    +0.058 N 
ENDBRANCH   5  12
BRANCH   1  13
ATOM     13  N   ALA A   1     -36.782  22.520   2.885  0.00  0.00    -0.324 N 
ATOM     14  H   ALA A   1     -37.609  22.213   3.323  0.00  0.00    +0.147 HD
BRANCH  13  15
ATOM     15  CA  ALA A   1     -36.402  21.904   1.633  0.00  0.00    +0.169 C 
ATOM     16  CB  ALA A   1     -34.888  21.862   1.501  0.00  0.00    +0.033 C 
BRANCH  15  18
ATOM     17  OXT ALA A   1     -37.602  20.105   0.568  0.00  0.00    -0.248 OA
ATOM     18  C   ALA A   1     -36.972  20.508   1.540  0.00  0.00    +0.332 C 
BRANCH  18  19
ATOM     19  O   ALA A   1     -36.676  19.715   2.600  0.00  0.00    -0.479 OA
ATOM     20  H   ALA A   1     -36.766  20.047   3.472  0.00  0.00    +0.295 HD
ENDBRANCH  18  19
ENDBRANCH  15  18
ENDBRANCH  13  15
ENDBRANCH   1  13
TORSDOF 6
ENDMDL
MODEL 4
REMARK VINA RESULT:      -5.7      1.218      1.616
REMARK  Name = 5464517
REMARK  6 active torsions:
REMARK  status: ('A' for Active; 'I' for Inactive)
REMARK    1  A    between atoms: C_1  and  N_13
REMARK    2  A    between atoms: C_2  and  N_9
REMARK    3  A    between atoms: C_5  and  N_12
REMARK    4  A    between atoms: N_13  and  CA_15
REMARK    5  A    between atoms: CA_15  and  C_18
REMARK    6  A    between atoms: C_18  and  O_19
REMARK                            x       y       z     vdW  Elec       q    Type
REMARK                         _______ _______ _______ _____ _____    ______ ____
ROOT
ATOM      1  C   UNK A   0     -36.446  24.270   4.124  0.00  0.00    +0.068 C 
ATOM      2  C   UNK A   0     -35.491  23.754   5.023  0.00  0.00    +0.158 C 
ATOM      3  C   UNK A   0     -36.342  25.626   3.753  0.00  0.00    +0.018 C 
ATOM      4  C   UNK A   0     -34.472  24.562   5.529  0.00  0.00    +0.049 C 
ATOM      5  C   UNK A   0     -34.389  25.901   5.149  0.00  0.00    +0.145 C 
ATOM      6  C   UNK A   0     -35.324  26.433   4.261  0.00  0.00    +0.025 C 
ENDROOT
BRANCH   2   9
ATOM      7  O   UNK A   0     -35.236  21.501   4.605  0.00  0.00    -0.126 OA
ATOM      8  O   UNK A   0     -35.924  22.123   6.594  0.00  0.00    -0.126 OA
ATOM      9  N   UNK A   0     -35.554  22.392   5.428  0.00  0.00    +0.059 N 
ENDBRANCH   2   9
BRANCH   5  12
ATOM     10  O   UNK A   0     -33.266  26.884   6.906  0.00  0.00    -0.126 OA
ATOM     11  O   UNK A   0     -32.554  27.269   4.866  0.00  0.00    -0.126 OA
ATOM     12  N   UNK A   0     -33.353  26.723   5.665  0.00  0.00    +0.058 N 
ENDBRANCH   5  12
BRANCH   1  13
ATOM     13  N   ALA A   1     -37.467  23.490   3.607  0.00  0.00    -0.324 N 
ATOM     14  H   ALA A   1     -37.715  22.669   4.090  0.00  0.00    +0.147 HD
BRANCH  13  15
ATOM     15  CA  ALA A   1     -38.189  23.815   2.397  0.00  0.00    +0.169 C 
ATOM     16  CB  ALA A   1     -38.041  22.698   1.376  0.00  0.00    +0.033 C 
BRANCH  15  18
ATOM     17  OXT ALA A   1     -40.560  23.568   2.041  0.00  0.00    -0.248 OA
ATOM     18  C   ALA A   1     -39.649  24.052   2.703  0.00  0.00    +0.332 C 
BRANCH  18  19
ATOM     19  O   ALA A   1     -39.869  24.801   3.812  0.00  0.00    -0.479 OA
ATOM     20  H   ALA A   1     -39.226  24.829   4.493  0.00  0.00    +0.295 HD
ENDBRANCH  18  19
ENDBRANCH  15  18
ENDBRANCH  13  15
ENDBRANCH   1  13
TORSDOF 6
ENDMDL
MODEL 5
REMARK VINA RESULT:      -5.6      1.972      2.726
REMARK  Name = 5464517
REMARK  6 active torsions:
REMARK  status: ('A' for Active; 'I' for Inactive)
REMARK    1  A    between atoms: C_1  and  N_13
REMARK    2  A    between atoms: C_2  and  N_9
REMARK    3  A    between atoms: C_5  and  N_12
REMARK    4  A    between atoms: N_13  and  CA_15
REMARK    5  A    between atoms: CA_15  and  C_18
REMARK    6  A    between atoms: C_18  and  O_19
REMARK                            x       y       z     vdW  Elec       q    Type
REMARK                         _______ _______ _______ _____ _____    ______ ____
ROOT
ATOM      1  C   UNK A   0     -36.358  23.536   3.993  0.00  0.00    +0.068 C 
ATOM      2  C   UNK A   0     -36.789  24.878   3.942  0.00  0.00    +0.158 C 
ATOM      3  C   UNK A   0     -35.085  23.270   4.535  0.00  0.00    +0.018 C 
ATOM      4  C   UNK A   0     -35.979  25.910   4.415  0.00  0.00    +0.049 C 
ATOM      5  C   UNK A   0     -34.723  25.623   4.948  0.00  0.00    +0.145 C 
ATOM      6  C   UNK A   0     -34.275  24.303   5.008  0.00  0.00    +0.025 C 
ENDROOT
BRANCH   2   9
ATOM      7  O   UNK A   0     -39.061  24.526   3.765  0.00  0.00    -0.126 OA
ATOM      8  O   UNK A   0     -38.158  26.142   2.584  0.00  0.00    -0.126 OA
ATOM      9  N   UNK A   0     -38.066  25.197   3.402  0.00  0.00    +0.059 N 
ENDBRANCH   2   9
BRANCH   5  12
ATOM     10  O   UNK A   0     -33.525  26.655   6.628  0.00  0.00    -0.126 OA
ATOM     11  O   UNK A   0     -33.563  27.593   4.644  0.00  0.00    -0.126 OA
ATOM     12  N   UNK A   0     -33.897  26.673   5.429  0.00  0.00    +0.058 N 
ENDBRANCH   5  12
BRANCH   1  13
ATOM     13  N   ALA A   1     -37.142  22.493   3.529  0.00  0.00    -0.324 N 
ATOM     14  H   ALA A   1     -37.812  22.109   4.139  0.00  0.00    +0.147 HD
BRANCH  13  15
ATOM     15  CA  ALA A   1     -37.031  21.938   2.198  0.00  0.00    +0.169 C 
ATOM     16  CB  ALA A   1     -36.304  20.603   2.241  0.00  0.00    +0.033 C 
BRANCH  15  18
ATOM     17  OXT ALA A   1     -38.697  22.204   0.478  0.00  0.00    -0.248 OA
ATOM     18  C   ALA A   1     -38.400  21.767   1.583  0.00  0.00    +0.332 C 
BRANCH  18  19
ATOM     19  O   ALA A   1     -39.258  21.033   2.335  0.00  0.00    -0.479 OA
ATOM     20  H   ALA A   1     -40.092  21.387   2.573  0.00  0.00    +0.295 HD
ENDBRANCH  18  19
ENDBRANCH  15  18
ENDBRANCH  13  15
ENDBRANCH   1  13
TORSDOF 6
ENDMDL
MODEL 6
REMARK VINA RESULT:      -5.5      2.663      5.902
REMARK  Name = 5464517
REMARK  6 active torsions:
REMARK  status: ('A' for Active; 'I' for Inactive)
REMARK    1  A    between atoms: C_1  and  N_13
REMARK    2  A    between atoms: C_2  and  N_9
REMARK    3  A    between atoms: C_5  and  N_12
REMARK    4  A    between atoms: N_13  and  CA_15
REMARK    5  A    between atoms: CA_15  and  C_18
REMARK    6  A    between atoms: C_18  and  O_19
REMARK                            x       y       z     vdW  Elec       q    Type
REMARK                         _______ _______ _______ _____ _____    ______ ____
ROOT
ATOM      1  C   UNK A   0     -35.501  26.282   4.166  0.00  0.00    +0.068 C 
ATOM      2  C   UNK A   0     -34.501  25.752   5.006  0.00  0.00    +0.158 C 
ATOM      3  C   UNK A   0     -36.540  25.426   3.750  0.00  0.00    +0.018 C 
ATOM      4  C   UNK A   0     -34.541  24.418   5.415  0.00  0.00    +0.049 C 
ATOM      5  C   UNK A   0     -35.578  23.589   4.991  0.00  0.00    +0.145 C 
ATOM      6  C   UNK A   0     -36.578  24.093   4.159  0.00  0.00    +0.025 C 
ENDROOT
BRANCH   2   9
ATOM      7  O   UNK A   0     -32.573  26.956   4.621  0.00  0.00    -0.126 OA
ATOM      8  O   UNK A   0     -33.380  26.901   6.661  0.00  0.00    -0.126 OA
ATOM      9  N   UNK A   0     -33.431  26.577   5.452  0.00  0.00    +0.059 N 
ENDBRANCH   2   9
BRANCH   5  12
ATOM     10  O   UNK A   0     -35.276  21.337   4.594  0.00  0.00    -0.126 OA
ATOM     11  O   UNK A   0     -35.995  21.962   6.572  0.00  0.00    -0.126 OA
ATOM     12  N   UNK A   0     -35.618  22.232   5.406  0.00  0.00    +0.058 N 
ENDBRANCH   5  12
BRANCH   1  13
ATOM     13  N   ALA A   1     -35.485  27.602   3.745  0.00  0.00    -0.324 N 
ATOM     14  H   ALA A   1     -35.778  28.295   4.380  0.00  0.00    +0.147 HD
BRANCH  13  15
ATOM     15  CA  ALA A   1     -35.062  28.017   2.426  0.00  0.00    +0.169 C 
ATOM     16  CB  ALA A   1     -36.269  28.333   1.558  0.00  0.00    +0.033 C 
BRANCH  15  18
ATOM     17  OXT ALA A   1     -33.830  29.893   1.546  0.00  0.00    -0.248 OA
ATOM     18  C   ALA A   1     -34.157  29.223   2.520  0.00  0.00    +0.332 C 
BRANCH  18  19
ATOM     19  O   ALA A   1     -33.784  29.540   3.785  0.00  0.00    -0.479 OA
ATOM     20  H   ALA A   1     -32.914  29.349   4.078  0.00  0.00    +0.295 HD
ENDBRANCH  18  19
ENDBRANCH  15  18
ENDBRANCH  13  15
ENDBRANCH   1  13
TORSDOF 6
ENDMDL
MODEL 7
REMARK VINA RESULT:      -5.5      2.338      6.199
REMARK  Name = 5464517
REMARK  6 active torsions:
REMARK  status: ('A' for Active; 'I' for Inactive)
REMARK    1  A    between atoms: C_1  and  N_13
REMARK    2  A    between atoms: C_2  and  N_9
REMARK    3  A    between atoms: C_5  and  N_12
REMARK    4  A    between atoms: N_13  and  CA_15
REMARK    5  A    between atoms: CA_15  and  C_18
REMARK    6  A    between atoms: C_18  and  O_19
REMARK                            x       y       z     vdW  Elec       q    Type
REMARK                         _______ _______ _______ _____ _____    ______ ____
ROOT
ATOM      1  C   UNK A   0     -36.816  23.318   3.059  0.00  0.00    +0.068 C 
ATOM      2  C   UNK A   0     -38.129  23.742   2.768  0.00  0.00    +0.158 C 
ATOM      3  C   UNK A   0     -36.406  22.058   2.580  0.00  0.00    +0.018 C 
ATOM      4  C   UNK A   0     -38.995  22.937   2.028  0.00  0.00    +0.049 C 
ATOM      5  C   UNK A   0     -38.568  21.694   1.564  0.00  0.00    +0.145 C 
ATOM      6  C   UNK A   0     -37.273  21.254   1.840  0.00  0.00    +0.025 C 
ENDROOT
BRANCH   2   9
ATOM      7  O   UNK A   0     -39.604  25.048   3.965  0.00  0.00    -0.126 OA
ATOM      8  O   UNK A   0     -37.967  26.039   2.890  0.00  0.00    -0.126 OA
ATOM      9  N   UNK A   0     -38.590  25.006   3.230  0.00  0.00    +0.059 N 
ENDBRANCH   2   9
BRANCH   5  12
ATOM     10  O   UNK A   0     -38.968  20.047   0.000  0.00  0.00    -0.126 OA
ATOM     11  O   UNK A   0     -40.687  21.000   0.977  0.00  0.00    -0.126 OA
ATOM     12  N   UNK A   0     -39.450  20.874   0.812  0.00  0.00    +0.058 N 
ENDBRANCH   5  12
BRANCH   1  13
ATOM     13  N   ALA A   1     -35.937  24.097   3.792  0.00  0.00    -0.324 N 
ATOM     14  H   ALA A   1     -35.209  24.554   3.311  0.00  0.00    +0.147 HD
BRANCH  13  15
ATOM     15  CA  ALA A   1     -36.028  24.276   5.224  0.00  0.00    +0.169 C 
ATOM     16  CB  ALA A   1     -35.187  23.233   5.942  0.00  0.00    +0.033 C 
BRANCH  15  18
ATOM     17  OXT ALA A   1     -34.442  25.918   6.000  0.00  0.00    -0.248 OA
ATOM     18  C   ALA A   1     -35.577  25.665   5.610  0.00  0.00    +0.332 C 
BRANCH  18  19
ATOM     19  O   ALA A   1     -36.519  26.624   5.432  0.00  0.00    -0.479 OA
ATOM     20  H   ALA A   1     -36.328  27.377   4.908  0.00  0.00    +0.295 HD
ENDBRANCH  18  19
ENDBRANCH  15  18
ENDBRANCH  13  15
ENDBRANCH   1  13
TORSDOF 6
ENDMDL
MODEL 8
REMARK VINA RESULT:      -5.4      2.543      3.882
REMARK  Name = 5464517
REMARK  6 active torsions:
REMARK  status: ('A' for Active; 'I' for Inactive)
REMARK    1  A    between atoms: C_1  and  N_13
REMARK    2  A    between atoms: C_2  and  N_9
REMARK    3  A    between atoms: C_5  and  N_12
REMARK    4  A    between atoms: N_13  and  CA_15
REMARK    5  A    between atoms: CA_15  and  C_18
REMARK    6  A    between atoms: C_18  and  O_19
REMARK                            x       y       z     vdW  Elec       q    Type
REMARK                         _______ _______ _______ _____ _____    ______ ____
ROOT
ATOM      1  C   UNK A   0     -35.468  24.995   4.671  0.00  0.00    +0.068 C 
ATOM      2  C   UNK A   0     -36.108  25.731   3.652  0.00  0.00    +0.158 C 
ATOM      3  C   UNK A   0     -34.263  25.502   5.196  0.00  0.00    +0.018 C 
ATOM      4  C   UNK A   0     -35.564  26.925   3.180  0.00  0.00    +0.049 C 
ATOM      5  C   UNK A   0     -34.370  27.408   3.714  0.00  0.00    +0.145 C 
ATOM      6  C   UNK A   0     -33.719  26.696   4.722  0.00  0.00    +0.025 C 
ENDROOT
BRANCH   2   9
ATOM      7  O   UNK A   0     -38.231  24.854   3.859  0.00  0.00    -0.126 OA
ATOM      8  O   UNK A   0     -37.463  25.267   1.845  0.00  0.00    -0.126 OA
ATOM      9  N   UNK A   0     -37.328  25.260   3.090  0.00  0.00    +0.059 N 
ENDBRANCH   2   9
BRANCH   5  12
ATOM     10  O   UNK A   0     -34.500  29.672   3.297  0.00  0.00    -0.126 OA
ATOM     11  O   UNK A   0     -32.656  28.614   2.752  0.00  0.00    -0.126 OA
ATOM     12  N   UNK A   0     -33.816  28.622   3.232  0.00  0.00    +0.058 N 
ENDBRANCH   5  12
BRANCH   1  13
ATOM     13  N   ALA A   1     -35.987  23.807   5.157  0.00  0.00    -0.324 N 
ATOM     14  H   ALA A   1     -36.880  23.824   5.570  0.00  0.00    +0.147 HD
BRANCH  13  15
ATOM     15  CA  ALA A   1     -35.289  22.542   5.093  0.00  0.00    +0.169 C 
ATOM     16  CB  ALA A   1     -35.394  21.811   6.421  0.00  0.00    +0.033 C 
BRANCH  15  18
ATOM     17  OXT ALA A   1     -35.285  20.688   3.553  0.00  0.00    -0.248 OA
ATOM     18  C   ALA A   1     -35.850  21.687   3.981  0.00  0.00    +0.332 C 
BRANCH  18  19
ATOM     19  O   ALA A   1     -37.067  22.087   3.535  0.00  0.00    -0.479 OA
ATOM     20  H   ALA A   1     -37.250  23.000   3.426  0.00  0.00    +0.295 HD
ENDBRANCH  18  19
ENDBRANCH  15  18
ENDBRANCH  13  15
ENDBRANCH   1  13
TORSDOF 6
ENDMDL
MODEL 9
REMARK VINA RESULT:      -5.3      2.490      5.530
REMARK  Name = 5464517
REMARK  6 active torsions:
REMARK  status: ('A' for Active; 'I' for Inactive)
REMARK    1  A    between atoms: C_1  and  N_13
REMARK    2  A    between atoms: C_2  and  N_9
REMARK    3  A    between atoms: C_5  and  N_12
REMARK    4  A    between atoms: N_13  and  CA_15
REMARK    5  A    between atoms: CA_15  and  C_18
REMARK    6  A    between atoms: C_18  and  O_19
REMARK                            x       y       z     vdW  Elec       q    Type
REMARK                         _______ _______ _______ _____ _____    ______ ____
ROOT
ATOM      1  C   UNK A   0     -36.231  22.805   3.077  0.00  0.00    +0.068 C 
ATOM      2  C   UNK A   0     -36.508  21.688   2.262  0.00  0.00    +0.158 C 
ATOM      3  C   UNK A   0     -37.278  23.714   3.332  0.00  0.00    +0.018 C 
ATOM      4  C   UNK A   0     -37.781  21.489   1.726  0.00  0.00    +0.049 C 
ATOM      5  C   UNK A   0     -38.801  22.402   1.992  0.00  0.00    +0.145 C 
ATOM      6  C   UNK A   0     -38.549  23.514   2.794  0.00  0.00    +0.025 C 
ENDROOT
BRANCH   2   9
ATOM      7  O   UNK A   0     -35.115  20.593   0.787  0.00  0.00    -0.126 OA
ATOM      8  O   UNK A   0     -34.983  20.089   2.919  0.00  0.00    -0.126 OA
ATOM      9  N   UNK A   0     -35.485  20.742   1.975  0.00  0.00    +0.059 N 
ENDBRANCH   2   9
BRANCH   5  12
ATOM     10  O   UNK A   0     -40.473  21.031   1.189  0.00  0.00    -0.126 OA
ATOM     11  O   UNK A   0     -40.828  23.197   1.231  0.00  0.00    -0.126 OA
ATOM     12  N   UNK A   0     -40.095  22.200   1.445  0.00  0.00    +0.058 N 
ENDBRANCH   5  12
BRANCH   1  13
ATOM     13  N   ALA A   1     -34.977  23.026   3.621  0.00  0.00    -0.324 N 
ATOM     14  H   ALA A   1     -34.207  23.068   3.010  0.00  0.00    +0.147 HD
BRANCH  13  15
ATOM     15  CA  ALA A   1     -34.737  23.197   5.037  0.00  0.00    +0.169 C 
ATOM     16  CB  ALA A   1     -35.319  24.517   5.516  0.00  0.00    +0.033 C 
BRANCH  15  18
ATOM     17  OXT ALA A   1     -36.257  22.189   6.613  0.00  0.00    -0.248 OA
ATOM     18  C   ALA A   1     -35.338  22.049   5.814  0.00  0.00    +0.332 C 
BRANCH  18  19
ATOM     19  O   ALA A   1     -34.812  20.837   5.508  0.00  0.00    -0.479 OA
ATOM     20  H   ALA A   1     -35.131  20.067   5.937  0.00  0.00    +0.295 HD
ENDBRANCH  18  19
ENDBRANCH  15  18
ENDBRANCH  13  15
ENDBRANCH   1  13
TORSDOF 6
ENDMDL
