MODEL 1
REMARK VINA RESULT:      -6.1      0.000      0.000
REMARK  Name = 50994611
REMARK  7 active torsions:
REMARK  status: ('A' for Active; 'I' for Inactive)
REMARK    1  A    between atoms: C_3  and  C_18
REMARK    2  A    between atoms: C_4  and  O_9
REMARK    3  A    between atoms: C_6  and  N_11
REMARK    4  A    between atoms: N_11  and  C_13
REMARK    5  A    between atoms: C_13  and  C_15
REMARK    6  A    between atoms: C_15  and  O_16
REMARK    7  A    between atoms: C_18  and  C_20
REMARK                            x       y       z     vdW  Elec       q    Type
REMARK                         _______ _______ _______ _____ _____    ______ ____
ROOT
ATOM      1  O   UNL     1     -38.547  26.367   1.455  0.00  0.00    -0.283 OA
ATOM      2  O   UNL     1     -39.544  24.579  -0.252  0.00  0.00    -0.283 OA
ATOM      3  C   UNL     1     -37.640  24.683   2.889  0.00  0.00    +0.055 C 
ATOM      4  C   UNL     1     -37.522  23.350   3.050  0.00  0.00    +0.146 C 
ATOM      5  C   UNL     1     -38.376  25.180   1.695  0.00  0.00    +0.233 C 
ATOM      6  C   UNL     1     -38.065  22.363   2.114  0.00  0.00    +0.082 C 
ATOM      7  C   UNL     1     -38.940  24.179   0.732  0.00  0.00    +0.235 C 
ATOM      8  C   UNL     1     -38.737  22.752   1.018  0.00  0.00    +0.063 C 
ENDROOT
BRANCH   4   9
ATOM      9  O   UNL     1     -36.892  22.856   4.182  0.00  0.00    -0.504 OA
ATOM     10  H   UNL     1     -36.099  23.250   4.487  0.00  0.00    +0.292 HD
ENDBRANCH   4   9
BRANCH   6  11
ATOM     11  N   UNL     1     -37.840  21.026   2.345  0.00  0.00    -0.321 N 
ATOM     12  H   UNL     1     -38.344  20.584   3.065  0.00  0.00    +0.147 HD
BRANCH  11  13
ATOM     13  C   UNL     1     -36.905  20.248   1.585  0.00  0.00    +0.198 C 
BRANCH  13  15
ATOM     14  O   UNL     1     -34.489  20.542   1.520  0.00  0.00    -0.248 OA
ATOM     15  C   UNL     1     -35.525  20.417   2.156  0.00  0.00    +0.334 C 
BRANCH  15  16
ATOM     16  O   UNL     1     -35.579  20.411   3.513  0.00  0.00    -0.479 OA
ATOM     17  H   UNL     1     -36.146  21.008   3.962  0.00  0.00    +0.295 HD
ENDBRANCH  15  16
ENDBRANCH  13  15
ENDBRANCH  11  13
ENDBRANCH   6  11
BRANCH   3  18
ATOM     18  C   UNL     1     -37.115  25.706   3.816  0.00  0.00    +0.033 C 
BRANCH  18  20
ATOM     19  C   UNL     1     -35.367  27.420   3.104  0.00  0.00    +0.004 C 
ATOM     20  C   UNL     1     -35.591  25.927   3.586  0.00  0.00    +0.005 C 
ATOM     21  C   UNL     1     -33.882  27.943   3.116  0.00  0.00    +0.015 C 
ATOM     22  C   UNL     1     -34.861  25.714   4.961  0.00  0.00    +0.000 C 
ATOM     23  C   UNL     1     -33.277  27.646   4.512  0.00  0.00    +0.004 C 
ATOM     24  C   UNL     1     -33.401  26.187   4.941  0.00  0.00    +0.000 C 
ATOM     25  C   UNL     1     -36.079  27.772   1.772  0.00  0.00    +0.001 C 
ATOM     26  C   UNL     1     -33.915  29.460   2.798  0.00  0.00    -0.045 C 
ATOM     27  C   UNL     1     -35.159  24.879   2.540  0.00  0.00    +0.000 C 
ATOM     28  C   UNL     1     -36.051  29.276   1.500  0.00  0.00    +0.004 C 
ATOM     29  C   UNL     1     -32.964  27.305   2.044  0.00  0.00    +0.004 C 
ATOM     30  C   UNL     1     -34.639  29.842   1.524  0.00  0.00    +0.022 C 
ATOM     31  C   UNL     1     -34.893  24.274   5.496  0.00  0.00    +0.000 C 
ATOM     32  C   UNL     1     -33.366  30.427   3.552  0.00  0.00    -0.009 C 
ENDBRANCH  18  20
ENDBRANCH   3  18
TORSDOF 7
ENDMDL
MODEL 2
REMARK VINA RESULT:      -6.0      3.264      5.620
REMARK  Name = 50994611
REMARK  7 active torsions:
REMARK  status: ('A' for Active; 'I' for Inactive)
REMARK    1  A    between atoms: C_3  and  C_18
REMARK    2  A    between atoms: C_4  and  O_9
REMARK    3  A    between atoms: C_6  and  N_11
REMARK    4  A    between atoms: N_11  and  C_13
REMARK    5  A    between atoms: C_13  and  C_15
REMARK    6  A    between atoms: C_15  and  O_16
REMARK    7  A    between atoms: C_18  and  C_20
REMARK                            x       y       z     vdW  Elec       q    Type
REMARK                         _______ _______ _______ _____ _____    ______ ____
ROOT
ATOM      1  O   UNL     1     -34.443  21.728  -1.902  0.00  0.00    -0.283 OA
ATOM      2  O   UNL     1     -35.875  20.090  -3.442  0.00  0.00    -0.283 OA
ATOM      3  C   UNL     1     -35.155  20.662   0.116  0.00  0.00    +0.055 C 
ATOM      4  C   UNL     1     -35.930  19.670   0.598  0.00  0.00    +0.146 C 
ATOM      5  C   UNL     1     -35.106  20.856  -1.359  0.00  0.00    +0.233 C 
ATOM      6  C   UNL     1     -36.717  18.765  -0.244  0.00  0.00    +0.082 C 
ATOM      7  C   UNL     1     -35.911  19.939  -2.231  0.00  0.00    +0.235 C 
ATOM      8  C   UNL     1     -36.710  18.891  -1.581  0.00  0.00    +0.063 C 
ENDROOT
BRANCH   4   9
ATOM      9  O   UNL     1     -36.041  19.501   1.970  0.00  0.00    -0.504 OA
ATOM     10  H   UNL     1     -36.322  20.214   2.509  0.00  0.00    +0.292 HD
ENDBRANCH   4   9
BRANCH   6  11
ATOM     11  N   UNL     1     -37.430  17.750   0.349  0.00  0.00    -0.321 N 
ATOM     12  H   UNL     1     -38.055  17.978   1.074  0.00  0.00    +0.147 HD
BRANCH  11  13
ATOM     13  C   UNL     1     -37.304  16.376  -0.040  0.00  0.00    +0.198 C 
BRANCH  13  15
ATOM     14  O   UNL     1     -38.995  14.657  -0.383  0.00  0.00    -0.248 OA
ATOM     15  C   UNL     1     -38.655  15.830  -0.412  0.00  0.00    +0.334 C 
BRANCH  15  16
ATOM     16  O   UNL     1     -39.475  16.842  -0.797  0.00  0.00    -0.479 OA
ATOM     17  H   UNL     1     -40.332  16.652  -1.126  0.00  0.00    +0.295 HD
ENDBRANCH  15  16
ENDBRANCH  13  15
ENDBRANCH  11  13
ENDBRANCH   6  11
BRANCH   3  18
ATOM     18  C   UNL     1     -34.358  21.599   0.934  0.00  0.00    +0.033 C 
BRANCH  18  20
ATOM     19  C   UNL     1     -35.088  22.934   2.979  0.00  0.00    +0.004 C 
ATOM     20  C   UNL     1     -35.232  22.797   1.406  0.00  0.00    +0.005 C 
ATOM     21  C   UNL     1     -35.637  24.265   3.618  0.00  0.00    +0.015 C 
ATOM     22  C   UNL     1     -34.676  24.098   0.723  0.00  0.00    +0.000 C 
ATOM     23  C   UNL     1     -35.034  25.460   2.835  0.00  0.00    +0.004 C 
ATOM     24  C   UNL     1     -35.256  25.384   1.327  0.00  0.00    +0.000 C 
ATOM     25  C   UNL     1     -35.564  21.689   3.772  0.00  0.00    +0.001 C 
ATOM     26  C   UNL     1     -35.226  24.272   5.113  0.00  0.00    -0.045 C 
ATOM     27  C   UNL     1     -36.672  22.483   0.952  0.00  0.00    +0.000 C 
ATOM     28  C   UNL     1     -35.157  21.771   5.244  0.00  0.00    +0.004 C 
ATOM     29  C   UNL     1     -37.179  24.402   3.601  0.00  0.00    +0.004 C 
ATOM     30  C   UNL     1     -35.641  23.052   5.907  0.00  0.00    +0.022 C 
ATOM     31  C   UNL     1     -34.859  24.157  -0.802  0.00  0.00    +0.000 C 
ATOM     32  C   UNL     1     -34.549  25.254   5.731  0.00  0.00    -0.009 C 
ENDBRANCH  18  20
ENDBRANCH   3  18
TORSDOF 7
ENDMDL
MODEL 3
REMARK VINA RESULT:      -6.0      4.051      7.300
REMARK  Name = 50994611
REMARK  7 active torsions:
REMARK  status: ('A' for Active; 'I' for Inactive)
REMARK    1  A    between atoms: C_3  and  C_18
REMARK    2  A    between atoms: C_4  and  O_9
REMARK    3  A    between atoms: C_6  and  N_11
REMARK    4  A    between atoms: N_11  and  C_13
REMARK    5  A    between atoms: C_13  and  C_15
REMARK    6  A    between atoms: C_15  and  O_16
REMARK    7  A    between atoms: C_18  and  C_20
REMARK                            x       y       z     vdW  Elec       q    Type
REMARK                         _______ _______ _______ _____ _____    ______ ____
ROOT
ATOM      1  O   UNL     1     -33.923  27.241   0.806  0.00  0.00    -0.283 OA
ATOM      2  O   UNL     1     -34.027  29.902   0.710  0.00  0.00    -0.283 OA
ATOM      3  C   UNL     1     -33.147  27.224   3.068  0.00  0.00    +0.055 C 
ATOM      4  C   UNL     1     -32.807  28.023   4.098  0.00  0.00    +0.146 C 
ATOM      5  C   UNL     1     -33.597  27.868   1.803  0.00  0.00    +0.233 C 
ATOM      6  C   UNL     1     -32.865  29.486   4.052  0.00  0.00    +0.082 C 
ATOM      7  C   UNL     1     -33.657  29.365   1.743  0.00  0.00    +0.235 C 
ATOM      8  C   UNL     1     -33.266  30.123   2.940  0.00  0.00    +0.063 C 
ENDROOT
BRANCH   4   9
ATOM      9  O   UNL     1     -32.329  27.453   5.269  0.00  0.00    -0.504 OA
ATOM     10  H   UNL     1     -32.910  27.304   5.989  0.00  0.00    +0.292 HD
ENDBRANCH   4   9
BRANCH   6  11
ATOM     11  N   UNL     1     -32.548  30.204   5.181  0.00  0.00    -0.321 N 
ATOM     12  H   UNL     1     -33.259  30.382   5.838  0.00  0.00    +0.147 HD
BRANCH  11  13
ATOM     13  C   UNL     1     -31.231  30.706   5.445  0.00  0.00    +0.198 C 
BRANCH  13  15
ATOM     14  O   UNL     1     -29.387  29.666   6.648  0.00  0.00    -0.248 OA
ATOM     15  C   UNL     1     -30.583  29.882   6.523  0.00  0.00    +0.334 C 
BRANCH  15  16
ATOM     16  O   UNL     1     -31.529  29.392   7.365  0.00  0.00    -0.479 OA
ATOM     17  H   UNL     1     -31.273  28.900   8.121  0.00  0.00    +0.295 HD
ENDBRANCH  15  16
ENDBRANCH  13  15
ENDBRANCH  11  13
ENDBRANCH   6  11
BRANCH   3  18
ATOM     18  C   UNL     1     -33.092  25.748   3.074  0.00  0.00    +0.033 C 
BRANCH  18  20
ATOM     19  C   UNL     1     -34.772  23.912   2.523  0.00  0.00    +0.004 C 
ATOM     20  C   UNL     1     -34.472  25.148   3.470  0.00  0.00    +0.005 C 
ATOM     21  C   UNL     1     -35.962  22.974   2.953  0.00  0.00    +0.015 C 
ATOM     22  C   UNL     1     -34.372  24.645   4.955  0.00  0.00    +0.000 C 
ATOM     23  C   UNL     1     -35.753  22.580   4.438  0.00  0.00    +0.004 C 
ATOM     24  C   UNL     1     -35.562  23.771   5.371  0.00  0.00    +0.000 C 
ATOM     25  C   UNL     1     -34.852  24.270   1.016  0.00  0.00    +0.001 C 
ATOM     26  C   UNL     1     -35.956  21.745   2.009  0.00  0.00    -0.045 C 
ATOM     27  C   UNL     1     -35.497  26.291   3.320  0.00  0.00    +0.000 C 
ATOM     28  C   UNL     1     -34.874  23.016   0.141  0.00  0.00    +0.004 C 
ATOM     29  C   UNL     1     -37.368  23.609   2.812  0.00  0.00    +0.004 C 
ATOM     30  C   UNL     1     -35.992  22.060   0.528  0.00  0.00    +0.022 C 
ATOM     31  C   UNL     1     -34.200  25.756   6.004  0.00  0.00    +0.000 C 
ATOM     32  C   UNL     1     -35.920  20.460   2.402  0.00  0.00    -0.009 C 
ENDBRANCH  18  20
ENDBRANCH   3  18
TORSDOF 7
ENDMDL
MODEL 4
REMARK VINA RESULT:      -5.8      2.636      6.963
REMARK  Name = 50994611
REMARK  7 active torsions:
REMARK  status: ('A' for Active; 'I' for Inactive)
REMARK    1  A    between atoms: C_3  and  C_18
REMARK    2  A    between atoms: C_4  and  O_9
REMARK    3  A    between atoms: C_6  and  N_11
REMARK    4  A    between atoms: N_11  and  C_13
REMARK    5  A    between atoms: C_13  and  C_15
REMARK    6  A    between atoms: C_15  and  O_16
REMARK    7  A    between atoms: C_18  and  C_20
REMARK                            x       y       z     vdW  Elec       q    Type
REMARK                         _______ _______ _______ _____ _____    ______ ____
ROOT
ATOM      1  O   UNL     1     -41.049  23.291   0.923  0.00  0.00    -0.283 OA
ATOM      2  O   UNL     1     -41.258  25.895   1.450  0.00  0.00    -0.283 OA
ATOM      3  C   UNL     1     -39.077  23.048   2.253  0.00  0.00    +0.055 C 
ATOM      4  C   UNL     1     -38.209  23.725   3.032  0.00  0.00    +0.146 C 
ATOM      5  C   UNL     1     -40.209  23.803   1.648  0.00  0.00    +0.233 C 
ATOM      6  C   UNL     1     -38.321  25.155   3.328  0.00  0.00    +0.082 C 
ATOM      7  C   UNL     1     -40.331  25.269   1.940  0.00  0.00    +0.235 C 
ATOM      8  C   UNL     1     -39.323  25.888   2.812  0.00  0.00    +0.063 C 
ENDROOT
BRANCH   4   9
ATOM      9  O   UNL     1     -37.113  23.062   3.562  0.00  0.00    -0.504 OA
ATOM     10  H   UNL     1     -36.350  23.544   3.813  0.00  0.00    +0.292 HD
ENDBRANCH   4   9
BRANCH   6  11
ATOM     11  N   UNL     1     -37.412  25.736   4.181  0.00  0.00    -0.321 N 
ATOM     12  H   UNL     1     -37.641  25.800   5.136  0.00  0.00    +0.147 HD
BRANCH  11  13
ATOM     13  C   UNL     1     -36.148  26.251   3.744  0.00  0.00    +0.198 C 
BRANCH  13  15
ATOM     14  O   UNL     1     -34.485  26.666   5.474  0.00  0.00    -0.248 OA
ATOM     15  C   UNL     1     -35.083  25.891   4.742  0.00  0.00    +0.334 C 
BRANCH  15  16
ATOM     16  O   UNL     1     -34.863  24.551   4.724  0.00  0.00    -0.479 OA
ATOM     17  H   UNL     1     -34.205  24.177   5.277  0.00  0.00    +0.295 HD
ENDBRANCH  15  16
ENDBRANCH  13  15
ENDBRANCH  11  13
ENDBRANCH   6  11
BRANCH   3  18
ATOM     18  C   UNL     1     -38.990  21.611   1.925  0.00  0.00    +0.033 C 
BRANCH  18  20
ATOM     19  C   UNL     1     -36.890  20.544   0.950  0.00  0.00    +0.004 C 
ATOM     20  C   UNL     1     -38.184  21.395   0.611  0.00  0.00    +0.005 C 
ATOM     21  C   UNL     1     -36.103  19.949  -0.277  0.00  0.00    +0.015 C 
ATOM     22  C   UNL     1     -39.089  20.581  -0.382  0.00  0.00    +0.000 C 
ATOM     23  C   UNL     1     -37.115  19.201  -1.183  0.00  0.00    +0.004 C 
ATOM     24  C   UNL     1     -38.316  20.047  -1.595  0.00  0.00    +0.000 C 
ATOM     25  C   UNL     1     -35.930  21.222   1.962  0.00  0.00    +0.001 C 
ATOM     26  C   UNL     1     -35.004  19.009   0.281  0.00  0.00    -0.045 C 
ATOM     27  C   UNL     1     -37.861  22.802   0.069  0.00  0.00    +0.000 C 
ATOM     28  C   UNL     1     -34.852  20.254   2.450  0.00  0.00    +0.004 C 
ATOM     29  C   UNL     1     -35.363  21.000  -1.141  0.00  0.00    +0.004 C 
ATOM     30  C   UNL     1     -34.073  19.628   1.302  0.00  0.00    +0.022 C 
ATOM     31  C   UNL     1     -40.328  21.334  -0.893  0.00  0.00    +0.000 C 
ATOM     32  C   UNL     1     -34.827  17.723  -0.067  0.00  0.00    -0.009 C 
ENDBRANCH  18  20
ENDBRANCH   3  18
TORSDOF 7
ENDMDL
MODEL 5
REMARK VINA RESULT:      -5.7      3.225      6.830
REMARK  Name = 50994611
REMARK  7 active torsions:
REMARK  status: ('A' for Active; 'I' for Inactive)
REMARK    1  A    between atoms: C_3  and  C_18
REMARK    2  A    between atoms: C_4  and  O_9
REMARK    3  A    between atoms: C_6  and  N_11
REMARK    4  A    between atoms: N_11  and  C_13
REMARK    5  A    between atoms: C_13  and  C_15
REMARK    6  A    between atoms: C_15  and  O_16
REMARK    7  A    between atoms: C_18  and  C_20
REMARK                            x       y       z     vdW  Elec       q    Type
REMARK                         _______ _______ _______ _____ _____    ______ ____
ROOT
ATOM      1  O   UNL     1     -32.955  28.166   4.807  0.00  0.00    -0.283 OA
ATOM      2  O   UNL     1     -33.531  30.704   4.234  0.00  0.00    -0.283 OA
ATOM      3  C   UNL     1     -33.491  27.412   2.603  0.00  0.00    +0.055 C 
ATOM      4  C   UNL     1     -33.925  27.825   1.395  0.00  0.00    +0.146 C 
ATOM      5  C   UNL     1     -33.335  28.432   3.676  0.00  0.00    +0.233 C 
ATOM      6  C   UNL     1     -34.240  29.219   1.074  0.00  0.00    +0.082 C 
ATOM      7  C   UNL     1     -33.658  29.861   3.360  0.00  0.00    +0.235 C 
ATOM      8  C   UNL     1     -34.116  30.184   2.001  0.00  0.00    +0.063 C 
ENDROOT
BRANCH   4   9
ATOM      9  O   UNL     1     -34.135  26.891   0.393  0.00  0.00    -0.504 OA
ATOM     10  H   UNL     1     -33.639  26.096   0.382  0.00  0.00    +0.292 HD
ENDBRANCH   4   9
BRANCH   6  11
ATOM     11  N   UNL     1     -34.622  29.541  -0.207  0.00  0.00    -0.321 N 
ATOM     12  H   UNL     1     -33.973  29.412  -0.936  0.00  0.00    +0.147 HD
BRANCH  11  13
ATOM     13  C   UNL     1     -35.921  30.056  -0.530  0.00  0.00    +0.198 C 
BRANCH  13  15
ATOM     14  O   UNL     1     -36.847  27.813  -0.729  0.00  0.00    -0.248 OA
ATOM     15  C   UNL     1     -36.950  28.973  -0.361  0.00  0.00    +0.334 C 
BRANCH  15  16
ATOM     16  O   UNL     1     -38.044  29.467   0.274  0.00  0.00    -0.479 OA
ATOM     17  H   UNL     1     -38.560  28.909   0.822  0.00  0.00    +0.295 HD
ENDBRANCH  15  16
ENDBRANCH  13  15
ENDBRANCH  11  13
ENDBRANCH   6  11
BRANCH   3  18
ATOM     18  C   UNL     1     -33.174  26.015   2.965  0.00  0.00    +0.033 C 
BRANCH  18  20
ATOM     19  C   UNL     1     -34.623  23.965   2.525  0.00  0.00    +0.004 C 
ATOM     20  C   UNL     1     -34.456  25.262   3.422  0.00  0.00    +0.005 C 
ATOM     21  C   UNL     1     -35.674  22.902   3.023  0.00  0.00    +0.015 C 
ATOM     22  C   UNL     1     -34.254  24.829   4.919  0.00  0.00    +0.000 C 
ATOM     23  C   UNL     1     -35.377  22.590   4.512  0.00  0.00    +0.004 C 
ATOM     24  C   UNL     1     -35.313  23.828   5.400  0.00  0.00    +0.000 C 
ATOM     25  C   UNL     1     -34.788  24.256   1.011  0.00  0.00    +0.001 C 
ATOM     26  C   UNL     1     -35.538  21.650   2.119  0.00  0.00    -0.045 C 
ATOM     27  C   UNL     1     -35.620  26.262   3.268  0.00  0.00    +0.000 C 
ATOM     28  C   UNL     1     -34.676  22.979   0.178  0.00  0.00    +0.004 C 
ATOM     29  C   UNL     1     -37.151  23.350   2.906  0.00  0.00    +0.004 C 
ATOM     30  C   UNL     1     -35.653  21.905   0.631  0.00  0.00    +0.022 C 
ATOM     31  C   UNL     1     -34.195  25.989   5.926  0.00  0.00    +0.000 C 
ATOM     32  C   UNL     1     -35.330  20.395   2.552  0.00  0.00    -0.009 C 
ENDBRANCH  18  20
ENDBRANCH   3  18
TORSDOF 7
ENDMDL
MODEL 6
REMARK VINA RESULT:      -5.7      3.122      7.327
REMARK  Name = 50994611
REMARK  7 active torsions:
REMARK  status: ('A' for Active; 'I' for Inactive)
REMARK    1  A    between atoms: C_3  and  C_18
REMARK    2  A    between atoms: C_4  and  O_9
REMARK    3  A    between atoms: C_6  and  N_11
REMARK    4  A    between atoms: N_11  and  C_13
REMARK    5  A    between atoms: C_13  and  C_15
REMARK    6  A    between atoms: C_15  and  O_16
REMARK    7  A    between atoms: C_18  and  C_20
REMARK                            x       y       z     vdW  Elec       q    Type
REMARK                         _______ _______ _______ _____ _____    ______ ____
ROOT
ATOM      1  O   UNL     1     -35.334  20.624   3.909  0.00  0.00    -0.283 OA
ATOM      2  O   UNL     1     -34.808  21.844   6.219  0.00  0.00    -0.283 OA
ATOM      3  C   UNL     1     -36.118  22.633   2.877  0.00  0.00    +0.055 C 
ATOM      4  C   UNL     1     -36.334  23.946   3.095  0.00  0.00    +0.146 C 
ATOM      5  C   UNL     1     -35.562  21.822   3.995  0.00  0.00    +0.233 C 
ATOM      6  C   UNL     1     -36.044  24.623   4.362  0.00  0.00    +0.082 C 
ATOM      7  C   UNL     1     -35.266  22.502   5.297  0.00  0.00    +0.235 C 
ATOM      8  C   UNL     1     -35.539  23.942   5.405  0.00  0.00    +0.063 C 
ENDROOT
BRANCH   4   9
ATOM      9  O   UNL     1     -36.904  24.716   2.093  0.00  0.00    -0.504 OA
ATOM     10  H   UNL     1     -36.496  24.765   1.251  0.00  0.00    +0.292 HD
ENDBRANCH   4   9
BRANCH   6  11
ATOM     11  N   UNL     1     -36.250  25.979   4.459  0.00  0.00    -0.321 N 
ATOM     12  H   UNL     1     -37.168  26.304   4.598  0.00  0.00    +0.147 HD
BRANCH  11  13
ATOM     13  C   UNL     1     -35.189  26.939   4.368  0.00  0.00    +0.198 C 
BRANCH  13  15
ATOM     14  O   UNL     1     -34.210  27.975   2.394  0.00  0.00    -0.248 OA
ATOM     15  C   UNL     1     -35.187  27.561   3.000  0.00  0.00    +0.334 C 
BRANCH  15  16
ATOM     16  O   UNL     1     -36.452  27.607   2.508  0.00  0.00    -0.479 OA
ATOM     17  H   UNL     1     -37.049  28.263   2.811  0.00  0.00    +0.295 HD
ENDBRANCH  15  16
ENDBRANCH  13  15
ENDBRANCH  11  13
ENDBRANCH   6  11
BRANCH   3  18
ATOM     18  C   UNL     1     -36.407  21.917   1.619  0.00  0.00    +0.033 C 
BRANCH  18  20
ATOM     19  C   UNL     1     -34.600  20.729   0.269  0.00  0.00    +0.004 C 
ATOM     20  C   UNL     1     -35.263  22.134   0.587  0.00  0.00    +0.005 C 
ATOM     21  C   UNL     1     -33.637  20.676  -0.977  0.00  0.00    +0.015 C 
ATOM     22  C   UNL     1     -35.902  22.710  -0.728  0.00  0.00    +0.000 C 
ATOM     23  C   UNL     1     -34.380  21.298  -2.187  0.00  0.00    +0.004 C 
ATOM     24  C   UNL     1     -34.936  22.693  -1.919  0.00  0.00    +0.000 C 
ATOM     25  C   UNL     1     -33.969  20.030   1.501  0.00  0.00    +0.001 C 
ATOM     26  C   UNL     1     -33.260  19.192  -1.215  0.00  0.00    -0.045 C 
ATOM     27  C   UNL     1     -34.285  23.135   1.234  0.00  0.00    +0.000 C 
ATOM     28  C   UNL     1     -33.589  18.582   1.192  0.00  0.00    +0.004 C 
ATOM     29  C   UNL     1     -32.298  21.430  -0.790  0.00  0.00    +0.004 C 
ATOM     30  C   UNL     1     -32.677  18.468  -0.020  0.00  0.00    +0.022 C 
ATOM     31  C   UNL     1     -36.482  24.128  -0.598  0.00  0.00    +0.000 C 
ATOM     32  C   UNL     1     -33.410  18.525  -2.372  0.00  0.00    -0.009 C 
ENDBRANCH  18  20
ENDBRANCH   3  18
TORSDOF 7
ENDMDL
MODEL 7
REMARK VINA RESULT:      -5.7      3.492      6.968
REMARK  Name = 50994611
REMARK  7 active torsions:
REMARK  status: ('A' for Active; 'I' for Inactive)
REMARK    1  A    between atoms: C_3  and  C_18
REMARK    2  A    between atoms: C_4  and  O_9
REMARK    3  A    between atoms: C_6  and  N_11
REMARK    4  A    between atoms: N_11  and  C_13
REMARK    5  A    between atoms: C_13  and  C_15
REMARK    6  A    between atoms: C_15  and  O_16
REMARK    7  A    between atoms: C_18  and  C_20
REMARK                            x       y       z     vdW  Elec       q    Type
REMARK                         _______ _______ _______ _____ _____    ______ ____
ROOT
ATOM      1  O   UNL     1     -34.276  26.145  -0.165  0.00  0.00    -0.283 OA
ATOM      2  O   UNL     1     -35.247  28.475  -1.018  0.00  0.00    -0.283 OA
ATOM      3  C   UNL     1     -34.190  26.868   2.113  0.00  0.00    +0.055 C 
ATOM      4  C   UNL     1     -34.436  27.917   2.923  0.00  0.00    +0.146 C 
ATOM      5  C   UNL     1     -34.468  27.027   0.659  0.00  0.00    +0.233 C 
ATOM      6  C   UNL     1     -34.973  29.199   2.459  0.00  0.00    +0.082 C 
ATOM      7  C   UNL     1     -35.013  28.336   0.172  0.00  0.00    +0.235 C 
ATOM      8  C   UNL     1     -35.246  29.400   1.159  0.00  0.00    +0.063 C 
ENDROOT
BRANCH   4   9
ATOM      9  O   UNL     1     -34.133  27.819   4.272  0.00  0.00    -0.504 OA
ATOM     10  H   UNL     1     -33.432  27.265   4.556  0.00  0.00    +0.292 HD
ENDBRANCH   4   9
BRANCH   6  11
ATOM     11  N   UNL     1     -35.240  30.185   3.380  0.00  0.00    -0.321 N 
ATOM     12  H   UNL     1     -35.985  30.049   4.008  0.00  0.00    +0.147 HD
BRANCH  11  13
ATOM     13  C   UNL     1     -34.484  31.401   3.465  0.00  0.00    +0.198 C 
BRANCH  13  15
ATOM     14  O   UNL     1     -32.089  31.302   3.036  0.00  0.00    -0.248 OA
ATOM     15  C   UNL     1     -33.046  31.082   3.764  0.00  0.00    +0.334 C 
BRANCH  15  16
ATOM     16  O   UNL     1     -32.944  30.497   4.985  0.00  0.00    -0.479 OA
ATOM     17  H   UNL     1     -32.300  29.832   5.134  0.00  0.00    +0.295 HD
ENDBRANCH  15  16
ENDBRANCH  13  15
ENDBRANCH  11  13
ENDBRANCH   6  11
BRANCH   3  18
ATOM     18  C   UNL     1     -33.640  25.566   2.542  0.00  0.00    +0.033 C 
BRANCH  18  20
ATOM     19  C   UNL     1     -34.665  23.303   1.971  0.00  0.00    +0.004 C 
ATOM     20  C   UNL     1     -34.787  24.578   2.905  0.00  0.00    +0.005 C 
ATOM     21  C   UNL     1     -35.529  22.052   2.380  0.00  0.00    +0.015 C 
ATOM     22  C   UNL     1     -34.591  24.141   4.401  0.00  0.00    +0.000 C 
ATOM     23  C   UNL     1     -35.262  21.750   3.877  0.00  0.00    +0.004 C 
ATOM     24  C   UNL     1     -35.474  22.949   4.795  0.00  0.00    +0.000 C 
ATOM     25  C   UNL     1     -34.796  23.609   0.456  0.00  0.00    +0.001 C 
ATOM     26  C   UNL     1     -35.118  20.875   1.458  0.00  0.00    -0.045 C 
ATOM     27  C   UNL     1     -36.103  25.356   2.703  0.00  0.00    +0.000 C 
ATOM     28  C   UNL     1     -34.407  22.402  -0.397  0.00  0.00    +0.004 C 
ATOM     29  C   UNL     1     -37.055  22.229   2.185  0.00  0.00    +0.004 C 
ATOM     30  C   UNL     1     -35.196  21.154  -0.028  0.00  0.00    +0.022 C 
ATOM     31  C   UNL     1     -34.801  25.259   5.435  0.00  0.00    +0.000 C 
ATOM     32  C   UNL     1     -34.708  19.665   1.874  0.00  0.00    -0.009 C 
ENDBRANCH  18  20
ENDBRANCH   3  18
TORSDOF 7
ENDMDL
MODEL 8
REMARK VINA RESULT:      -5.6      3.088      6.339
REMARK  Name = 50994611
REMARK  7 active torsions:
REMARK  status: ('A' for Active; 'I' for Inactive)
REMARK    1  A    between atoms: C_3  and  C_18
REMARK    2  A    between atoms: C_4  and  O_9
REMARK    3  A    between atoms: C_6  and  N_11
REMARK    4  A    between atoms: N_11  and  C_13
REMARK    5  A    between atoms: C_13  and  C_15
REMARK    6  A    between atoms: C_15  and  O_16
REMARK    7  A    between atoms: C_18  and  C_20
REMARK                            x       y       z     vdW  Elec       q    Type
REMARK                         _______ _______ _______ _____ _____    ______ ____
ROOT
ATOM      1  O   UNL     1     -36.690  22.051   3.626  0.00  0.00    -0.283 OA
ATOM      2  O   UNL     1     -35.722  22.218   6.104  0.00  0.00    -0.283 OA
ATOM      3  C   UNL     1     -36.042  24.288   3.084  0.00  0.00    +0.055 C 
ATOM      4  C   UNL     1     -35.452  25.392   3.582  0.00  0.00    +0.146 C 
ATOM      5  C   UNL     1     -36.168  23.100   3.973  0.00  0.00    +0.233 C 
ATOM      6  C   UNL     1     -34.915  25.489   4.942  0.00  0.00    +0.082 C 
ATOM      7  C   UNL     1     -35.626  23.189   5.368  0.00  0.00    +0.235 C 
ATOM      8  C   UNL     1     -34.997  24.449   5.789  0.00  0.00    +0.063 C 
ENDROOT
BRANCH   4   9
ATOM      9  O   UNL     1     -35.372  26.532   2.798  0.00  0.00    -0.504 OA
ATOM     10  H   UNL     1     -34.961  26.495   1.957  0.00  0.00    +0.292 HD
ENDBRANCH   4   9
BRANCH   6  11
ATOM     11  N   UNL     1     -34.281  26.645   5.331  0.00  0.00    -0.321 N 
ATOM     12  H   UNL     1     -34.486  27.477   4.847  0.00  0.00    +0.147 HD
BRANCH  11  13
ATOM     13  C   UNL     1     -33.336  26.694   6.408  0.00  0.00    +0.198 C 
BRANCH  13  15
ATOM     14  O   UNL     1     -32.540  28.831   5.555  0.00  0.00    -0.248 OA
ATOM     15  C   UNL     1     -32.334  27.785   6.152  0.00  0.00    +0.334 C 
BRANCH  15  16
ATOM     16  O   UNL     1     -31.132  27.447   6.687  0.00  0.00    -0.479 OA
ATOM     17  H   UNL     1     -30.484  27.029   6.155  0.00  0.00    +0.295 HD
ENDBRANCH  15  16
ENDBRANCH  13  15
ENDBRANCH  11  13
ENDBRANCH   6  11
BRANCH   3  18
ATOM     18  C   UNL     1     -36.603  24.158   1.724  0.00  0.00    +0.033 C 
BRANCH  18  20
ATOM     19  C   UNL     1     -38.334  25.754   0.744  0.00  0.00    +0.004 C 
ATOM     20  C   UNL     1     -38.117  24.520   1.717  0.00  0.00    +0.005 C 
ATOM     21  C   UNL     1     -39.823  26.080   0.351  0.00  0.00    +0.015 C 
ATOM     22  C   UNL     1     -38.907  23.281   1.159  0.00  0.00    +0.000 C 
ATOM     23  C   UNL     1     -40.487  24.772  -0.152  0.00  0.00    +0.004 C 
ATOM     24  C   UNL     1     -40.368  23.606   0.824  0.00  0.00    +0.000 C 
ATOM     25  C   UNL     1     -37.566  27.035   1.162  0.00  0.00    +0.001 C 
ATOM     26  C   UNL     1     -39.790  27.182  -0.740  0.00  0.00    -0.045 C 
ATOM     27  C   UNL     1     -38.492  24.827   3.181  0.00  0.00    +0.000 C 
ATOM     28  C   UNL     1     -37.597  28.093   0.059  0.00  0.00    +0.004 C 
ATOM     29  C   UNL     1     -40.686  26.651   1.503  0.00  0.00    +0.004 C 
ATOM     30  C   UNL     1     -39.014  28.431  -0.379  0.00  0.00    +0.022 C 
ATOM     31  C   UNL     1     -38.885  22.039   2.065  0.00  0.00    +0.000 C 
ATOM     32  C   UNL     1     -40.382  27.106  -1.944  0.00  0.00    -0.009 C 
ENDBRANCH  18  20
ENDBRANCH   3  18
TORSDOF 7
ENDMDL
MODEL 9
REMARK VINA RESULT:      -5.6      3.259      7.442
REMARK  Name = 50994611
REMARK  7 active torsions:
REMARK  status: ('A' for Active; 'I' for Inactive)
REMARK    1  A    between atoms: C_3  and  C_18
REMARK    2  A    between atoms: C_4  and  O_9
REMARK    3  A    between atoms: C_6  and  N_11
REMARK    4  A    between atoms: N_11  and  C_13
REMARK    5  A    between atoms: C_13  and  C_15
REMARK    6  A    between atoms: C_15  and  O_16
REMARK    7  A    between atoms: C_18  and  C_20
REMARK                            x       y       z     vdW  Elec       q    Type
REMARK                         _______ _______ _______ _____ _____    ______ ____
ROOT
ATOM      1  O   UNL     1     -38.348  20.210   0.310  0.00  0.00    -0.283 OA
ATOM      2  O   UNL     1     -40.107  21.079   2.115  0.00  0.00    -0.283 OA
ATOM      3  C   UNL     1     -37.060  22.222   0.408  0.00  0.00    +0.055 C 
ATOM      4  C   UNL     1     -36.992  23.433   0.995  0.00  0.00    +0.146 C 
ATOM      5  C   UNL     1     -38.187  21.325   0.784  0.00  0.00    +0.233 C 
ATOM      6  C   UNL     1     -37.954  23.915   1.989  0.00  0.00    +0.082 C 
ATOM      7  C   UNL     1     -39.180  21.809   1.798  0.00  0.00    +0.235 C 
ATOM      8  C   UNL     1     -38.990  23.149   2.370  0.00  0.00    +0.063 C 
ENDROOT
BRANCH   4   9
ATOM      9  O   UNL     1     -35.986  24.313   0.622  0.00  0.00    -0.504 OA
ATOM     10  H   UNL     1     -35.382  24.074  -0.053  0.00  0.00    +0.292 HD
ENDBRANCH   4   9
BRANCH   6  11
ATOM     11  N   UNL     1     -37.759  25.147   2.567  0.00  0.00    -0.321 N 
ATOM     12  H   UNL     1     -37.978  25.950   2.043  0.00  0.00    +0.147 HD
BRANCH  11  13
ATOM     13  C   UNL     1     -37.252  25.315   3.898  0.00  0.00    +0.198 C 
BRANCH  13  15
ATOM     14  O   UNL     1     -35.092  25.959   2.976  0.00  0.00    -0.248 OA
ATOM     15  C   UNL     1     -35.941  26.050   3.850  0.00  0.00    +0.334 C 
BRANCH  15  16
ATOM     16  O   UNL     1     -35.818  26.851   4.939  0.00  0.00    -0.479 OA
ATOM     17  H   UNL     1     -35.610  27.759   4.832  0.00  0.00    +0.295 HD
ENDBRANCH  15  16
ENDBRANCH  13  15
ENDBRANCH  11  13
ENDBRANCH   6  11
BRANCH   3  18
ATOM     18  C   UNL     1     -36.115  21.708  -0.605  0.00  0.00    +0.033 C 
BRANCH  18  20
ATOM     19  C   UNL     1     -34.775  19.554  -0.346  0.00  0.00    +0.004 C 
ATOM     20  C   UNL     1     -34.866  21.079   0.078  0.00  0.00    +0.005 C 
ATOM     21  C   UNL     1     -33.421  18.818  -0.022  0.00  0.00    +0.015 C 
ATOM     22  C   UNL     1     -33.595  21.837  -0.450  0.00  0.00    +0.000 C 
ATOM     23  C   UNL     1     -32.258  19.683  -0.571  0.00  0.00    +0.004 C 
ATOM     24  C   UNL     1     -32.283  21.129  -0.086  0.00  0.00    +0.000 C 
ATOM     25  C   UNL     1     -35.998  18.702   0.080  0.00  0.00    +0.001 C 
ATOM     26  C   UNL     1     -33.479  17.417  -0.685  0.00  0.00    -0.045 C 
ATOM     27  C   UNL     1     -35.061  21.277   1.596  0.00  0.00    +0.000 C 
ATOM     28  C   UNL     1     -35.980  17.323  -0.581  0.00  0.00    +0.004 C 
ATOM     29  C   UNL     1     -33.169  18.564   1.484  0.00  0.00    +0.004 C 
ATOM     30  C   UNL     1     -34.682  16.573  -0.321  0.00  0.00    +0.022 C 
ATOM     31  C   UNL     1     -33.488  23.306  -0.011  0.00  0.00    +0.000 C 
ATOM     32  C   UNL     1     -32.564  16.918  -1.533  0.00  0.00    -0.009 C 
ENDBRANCH  18  20
ENDBRANCH   3  18
TORSDOF 7
ENDMDL
