MODEL 1
REMARK VINA RESULT:      -6.5      0.000      0.000
REMARK  Name = 5280555
REMARK  9 active torsions:
REMARK  status: ('A' for Active; 'I' for Inactive)
REMARK    1  A    between atoms: C_1  and  O_15
REMARK    2  A    between atoms: C_2  and  O_7
REMARK    3  A    between atoms: C_3  and  O_9
REMARK    4  A    between atoms: C_5  and  C_12
REMARK    5  A    between atoms: C_12  and  O_13
REMARK    6  A    between atoms: O_15  and  C_17
REMARK    7  A    between atoms: C_17  and  C_18
REMARK    8  A    between atoms: C_19  and  C_20
REMARK    9  A    between atoms: C_25  and  O_26
REMARK                            x       y       z     vdW  Elec       q    Type
REMARK                         _______ _______ _______ _____ _____    ______ ____
ROOT
ATOM      1  C   UNL     1     -36.266  23.980   2.167  0.00  0.00    +0.203 C 
ATOM      2  C   UNL     1     -36.426  22.620   2.851  0.00  0.00    +0.182 C 
ATOM      3  C   UNL     1     -35.401  22.440   3.985  0.00  0.00    +0.163 C 
ATOM      4  C   UNL     1     -36.390  25.140   3.169  0.00  0.00    +0.079 C 
ATOM      5  C   UNL     1     -35.730  24.857   4.490  0.00  0.00    +0.055 C 
ATOM      6  C   UNL     1     -35.276  23.652   4.864  0.00  0.00    +0.007 C 
ENDROOT
BRANCH   2   7
ATOM      7  O   UNL     1     -37.756  22.528   3.363  0.00  0.00    -0.378 OA
ATOM      8  H   UNL     1     -38.316  22.059   2.725  0.00  0.00    +0.211 HD
ENDBRANCH   2   7
BRANCH   3   9
ATOM      9  O   UNL     1     -35.753  21.316   4.785  0.00  0.00    -0.377 OA
ATOM     10  H   UNL     1     -35.584  20.500   4.288  0.00  0.00    +0.211 HD
ENDBRANCH   3   9
BRANCH   5  12
ATOM     11  O   UNL     1     -34.506  26.237   5.990  0.00  0.00    -0.245 OA
ATOM     12  C   UNL     1     -35.553  25.969   5.428  0.00  0.00    +0.334 C 
BRANCH  12  13
ATOM     13  O   UNL     1     -36.716  26.637   5.562  0.00  0.00    -0.477 OA
ATOM     14  H   UNL     1     -36.957  27.290   4.935  0.00  0.00    +0.295 HD
ENDBRANCH  12  13
ENDBRANCH   5  12
BRANCH   1  15
ATOM     15  O   UNL     1     -34.993  24.026   1.524  0.00  0.00    -0.446 OA
BRANCH  15  17
ATOM     16  O   UNL     1     -35.630  23.565  -0.647  0.00  0.00    -0.245 OA
ATOM     17  C   UNL     1     -34.914  23.386   0.324  0.00  0.00    +0.341 C 
BRANCH  17  18
ATOM     18  C   UNL     1     -33.796  22.418   0.401  0.00  0.00    +0.082 C 
ATOM     19  C   UNL     1     -34.061  21.115   0.573  0.00  0.00    +0.007 C 
BRANCH  19  20
ATOM     20  C   UNL     1     -33.040  20.056   0.654  0.00  0.00    +0.000 C 
ATOM     21  C   UNL     1     -31.825  20.236   0.012  0.00  0.00    +0.003 C 
ATOM     22  C   UNL     1     -33.314  18.902   1.369  0.00  0.00    +0.003 C 
ATOM     23  C   UNL     1     -30.857  19.234   0.088  0.00  0.00    +0.037 C 
ATOM     24  C   UNL     1     -32.346  17.901   1.447  0.00  0.00    +0.037 C 
ATOM     25  C   UNL     1     -31.118  18.067   0.806  0.00  0.00    +0.134 C 
BRANCH  25  26
ATOM     26  O   UNL     1     -30.173  17.089   0.881  0.00  0.00    -0.506 OA
ATOM     27  H   UNL     1     -29.289  17.272   0.631  0.00  0.00    +0.292 HD
ENDBRANCH  25  26
ENDBRANCH  19  20
ENDBRANCH  17  18
ENDBRANCH  15  17
ENDBRANCH   1  15
TORSDOF 9
ENDMDL
MODEL 2
REMARK VINA RESULT:      -6.5      1.106      1.659
REMARK  Name = 5280555
REMARK  9 active torsions:
REMARK  status: ('A' for Active; 'I' for Inactive)
REMARK    1  A    between atoms: C_1  and  O_15
REMARK    2  A    between atoms: C_2  and  O_7
REMARK    3  A    between atoms: C_3  and  O_9
REMARK    4  A    between atoms: C_5  and  C_12
REMARK    5  A    between atoms: C_12  and  O_13
REMARK    6  A    between atoms: O_15  and  C_17
REMARK    7  A    between atoms: C_17  and  C_18
REMARK    8  A    between atoms: C_19  and  C_20
REMARK    9  A    between atoms: C_25  and  O_26
REMARK                            x       y       z     vdW  Elec       q    Type
REMARK                         _______ _______ _______ _____ _____    ______ ____
ROOT
ATOM      1  C   UNL     1     -35.922  24.606   2.586  0.00  0.00    +0.203 C 
ATOM      2  C   UNL     1     -36.594  23.640   3.565  0.00  0.00    +0.182 C 
ATOM      3  C   UNL     1     -35.588  23.100   4.596  0.00  0.00    +0.163 C 
ATOM      4  C   UNL     1     -35.245  25.779   3.317  0.00  0.00    +0.079 C 
ATOM      5  C   UNL     1     -34.560  25.369   4.590  0.00  0.00    +0.055 C 
ATOM      6  C   UNL     1     -34.701  24.167   5.170  0.00  0.00    +0.007 C 
ENDROOT
BRANCH   2   7
ATOM      7  O   UNL     1     -37.657  24.332   4.220  0.00  0.00    -0.378 OA
ATOM      8  H   UNL     1     -37.553  25.287   4.086  0.00  0.00    +0.211 HD
ENDBRANCH   2   7
BRANCH   3   9
ATOM      9  O   UNL     1     -36.281  22.448   5.655  0.00  0.00    -0.377 OA
ATOM     10  H   UNL     1     -37.223  22.677   5.615  0.00  0.00    +0.211 HD
ENDBRANCH   3   9
BRANCH   5  12
ATOM     11  O   UNL     1     -33.716  26.634   6.417  0.00  0.00    -0.245 OA
ATOM     12  C   UNL     1     -33.667  26.333   5.238  0.00  0.00    +0.334 C 
BRANCH  12  13
ATOM     13  O   UNL     1     -32.796  26.821   4.332  0.00  0.00    -0.477 OA
ATOM     14  H   UNL     1     -32.403  27.662   4.465  0.00  0.00    +0.295 HD
ENDBRANCH  12  13
ENDBRANCH   5  12
BRANCH   1  15
ATOM     15  O   UNL     1     -34.956  23.890   1.818  0.00  0.00    -0.446 OA
BRANCH  15  17
ATOM     16  O   UNL     1     -36.360  23.127   0.150  0.00  0.00    -0.245 OA
ATOM     17  C   UNL     1     -35.458  22.962   0.956  0.00  0.00    +0.341 C 
BRANCH  17  18
ATOM     18  C   UNL     1     -34.714  21.699   1.166  0.00  0.00    +0.082 C 
ATOM     19  C   UNL     1     -33.641  21.431   0.407  0.00  0.00    +0.007 C 
BRANCH  19  20
ATOM     20  C   UNL     1     -32.815  20.218   0.527  0.00  0.00    +0.000 C 
ATOM     21  C   UNL     1     -33.303  19.131   1.234  0.00  0.00    +0.003 C 
ATOM     22  C   UNL     1     -31.565  20.186  -0.070  0.00  0.00    +0.003 C 
ATOM     23  C   UNL     1     -32.521  17.982   1.348  0.00  0.00    +0.037 C 
ATOM     24  C   UNL     1     -30.782  19.037   0.043  0.00  0.00    +0.037 C 
ATOM     25  C   UNL     1     -31.260  17.935   0.752  0.00  0.00    +0.134 C 
BRANCH  25  26
ATOM     26  O   UNL     1     -30.496  16.813   0.863  0.00  0.00    -0.506 OA
ATOM     27  H   UNL     1     -29.567  16.887   0.964  0.00  0.00    +0.292 HD
ENDBRANCH  25  26
ENDBRANCH  19  20
ENDBRANCH  17  18
ENDBRANCH  15  17
ENDBRANCH   1  15
TORSDOF 9
ENDMDL
MODEL 3
REMARK VINA RESULT:      -6.3      3.119      6.335
REMARK  Name = 5280555
REMARK  9 active torsions:
REMARK  status: ('A' for Active; 'I' for Inactive)
REMARK    1  A    between atoms: C_1  and  O_15
REMARK    2  A    between atoms: C_2  and  O_7
REMARK    3  A    between atoms: C_3  and  O_9
REMARK    4  A    between atoms: C_5  and  C_12
REMARK    5  A    between atoms: C_12  and  O_13
REMARK    6  A    between atoms: O_15  and  C_17
REMARK    7  A    between atoms: C_17  and  C_18
REMARK    8  A    between atoms: C_19  and  C_20
REMARK    9  A    between atoms: C_25  and  O_26
REMARK                            x       y       z     vdW  Elec       q    Type
REMARK                         _______ _______ _______ _____ _____    ______ ____
ROOT
ATOM      1  C   UNL     1     -36.872  23.016   2.194  0.00  0.00    +0.203 C 
ATOM      2  C   UNL     1     -36.875  21.626   1.553  0.00  0.00    +0.182 C 
ATOM      3  C   UNL     1     -35.591  20.850   1.897  0.00  0.00    +0.163 C 
ATOM      4  C   UNL     1     -36.705  22.939   3.721  0.00  0.00    +0.079 C 
ATOM      5  C   UNL     1     -35.727  21.885   4.159  0.00  0.00    +0.055 C 
ATOM      6  C   UNL     1     -35.215  20.947   3.348  0.00  0.00    +0.007 C 
ENDROOT
BRANCH   2   7
ATOM      7  O   UNL     1     -38.025  20.919   2.017  0.00  0.00    -0.378 OA
ATOM      8  H   UNL     1     -38.775  21.530   2.085  0.00  0.00    +0.211 HD
ENDBRANCH   2   7
BRANCH   3   9
ATOM      9  O   UNL     1     -35.743  19.479   1.543  0.00  0.00    -0.377 OA
ATOM     10  H   UNL     1     -36.577  19.360   1.062  0.00  0.00    +0.211 HD
ENDBRANCH   3   9
BRANCH   5  12
ATOM     11  O   UNL     1     -34.999  22.886   6.188  0.00  0.00    -0.245 OA
ATOM     12  C   UNL     1     -35.287  21.886   5.556  0.00  0.00    +0.334 C 
BRANCH  12  13
ATOM     13  O   UNL     1     -35.256  20.620   6.022  0.00  0.00    -0.477 OA
ATOM     14  H   UNL     1     -36.056  20.152   6.159  0.00  0.00    +0.295 HD
ENDBRANCH  12  13
ENDBRANCH   5  12
BRANCH   1  15
ATOM     15  O   UNL     1     -35.813  23.785   1.627  0.00  0.00    -0.446 OA
BRANCH  15  17
ATOM     16  O   UNL     1     -36.895  25.763   1.126  0.00  0.00    -0.245 OA
ATOM     17  C   UNL     1     -35.988  25.136   1.648  0.00  0.00    +0.341 C 
BRANCH  17  18
ATOM     18  C   UNL     1     -34.870  25.725   2.422  0.00  0.00    +0.082 C 
ATOM     19  C   UNL     1     -35.078  26.117   3.687  0.00  0.00    +0.007 C 
BRANCH  19  20
ATOM     20  C   UNL     1     -34.048  26.705   4.561  0.00  0.00    +0.000 C 
ATOM     21  C   UNL     1     -33.979  26.312   5.888  0.00  0.00    +0.003 C 
ATOM     22  C   UNL     1     -33.167  27.638   4.039  0.00  0.00    +0.003 C 
ATOM     23  C   UNL     1     -33.003  26.867   6.716  0.00  0.00    +0.037 C 
ATOM     24  C   UNL     1     -32.191  28.194   4.866  0.00  0.00    +0.037 C 
ATOM     25  C   UNL     1     -32.109  27.808   6.204  0.00  0.00    +0.134 C 
BRANCH  25  26
ATOM     26  O   UNL     1     -31.157  28.351   7.012  0.00  0.00    -0.506 OA
ATOM     27  H   UNL     1     -31.264  28.330   7.943  0.00  0.00    +0.292 HD
ENDBRANCH  25  26
ENDBRANCH  19  20
ENDBRANCH  17  18
ENDBRANCH  15  17
ENDBRANCH   1  15
TORSDOF 9
ENDMDL
MODEL 4
REMARK VINA RESULT:      -6.2      3.233      6.966
REMARK  Name = 5280555
REMARK  9 active torsions:
REMARK  status: ('A' for Active; 'I' for Inactive)
REMARK    1  A    between atoms: C_1  and  O_15
REMARK    2  A    between atoms: C_2  and  O_7
REMARK    3  A    between atoms: C_3  and  O_9
REMARK    4  A    between atoms: C_5  and  C_12
REMARK    5  A    between atoms: C_12  and  O_13
REMARK    6  A    between atoms: O_15  and  C_17
REMARK    7  A    between atoms: C_17  and  C_18
REMARK    8  A    between atoms: C_19  and  C_20
REMARK    9  A    between atoms: C_25  and  O_26
REMARK                            x       y       z     vdW  Elec       q    Type
REMARK                         _______ _______ _______ _____ _____    ______ ____
ROOT
ATOM      1  C   UNL     1     -35.867  22.712   3.092  0.00  0.00    +0.203 C 
ATOM      2  C   UNL     1     -35.273  21.963   1.896  0.00  0.00    +0.182 C 
ATOM      3  C   UNL     1     -36.093  20.704   1.563  0.00  0.00    +0.163 C 
ATOM      4  C   UNL     1     -37.338  23.096   2.850  0.00  0.00    +0.079 C 
ATOM      5  C   UNL     1     -38.121  22.028   2.141  0.00  0.00    +0.055 C 
ATOM      6  C   UNL     1     -37.575  20.947   1.565  0.00  0.00    +0.007 C 
ENDROOT
BRANCH   2   7
ATOM      7  O   UNL     1     -35.246  22.851   0.779  0.00  0.00    -0.378 OA
ATOM      8  H   UNL     1     -35.622  23.707   1.036  0.00  0.00    +0.211 HD
ENDBRANCH   2   7
BRANCH   3   9
ATOM      9  O   UNL     1     -35.704  20.195   0.291  0.00  0.00    -0.377 OA
ATOM     10  H   UNL     1     -35.417  19.273   0.385  0.00  0.00    +0.211 HD
ENDBRANCH   3   9
BRANCH   5  12
ATOM     11  O   UNL     1     -40.178  23.220   2.155  0.00  0.00    -0.245 OA
ATOM     12  C   UNL     1     -39.579  22.162   2.084  0.00  0.00    +0.334 C 
BRANCH  12  13
ATOM     13  O   UNL     1     -40.140  20.944   1.940  0.00  0.00    -0.477 OA
ATOM     14  H   UNL     1     -40.840  20.680   2.505  0.00  0.00    +0.295 HD
ENDBRANCH  12  13
ENDBRANCH   5  12
BRANCH   1  15
ATOM     15  O   UNL     1     -35.765  21.888   4.251  0.00  0.00    -0.446 OA
BRANCH  15  17
ATOM     16  O   UNL     1     -36.011  22.284   6.513  0.00  0.00    -0.245 OA
ATOM     17  C   UNL     1     -35.528  22.543   5.423  0.00  0.00    +0.341 C 
BRANCH  17  18
ATOM     18  C   UNL     1     -34.575  23.641   5.143  0.00  0.00    +0.082 C 
ATOM     19  C   UNL     1     -34.809  24.862   5.643  0.00  0.00    +0.007 C 
BRANCH  19  20
ATOM     20  C   UNL     1     -33.933  26.030   5.444  0.00  0.00    +0.000 C 
ATOM     21  C   UNL     1     -33.784  26.558   4.172  0.00  0.00    +0.003 C 
ATOM     22  C   UNL     1     -33.275  26.577   6.533  0.00  0.00    +0.003 C 
ATOM     23  C   UNL     1     -32.955  27.663   3.984  0.00  0.00    +0.037 C 
ATOM     24  C   UNL     1     -32.446  27.683   6.346  0.00  0.00    +0.037 C 
ATOM     25  C   UNL     1     -32.286  28.226   5.071  0.00  0.00    +0.134 C 
BRANCH  25  26
ATOM     26  O   UNL     1     -31.476  29.305   4.887  0.00  0.00    -0.506 OA
ATOM     27  H   UNL     1     -31.056  29.706   5.623  0.00  0.00    +0.292 HD
ENDBRANCH  25  26
ENDBRANCH  19  20
ENDBRANCH  17  18
ENDBRANCH  15  17
ENDBRANCH   1  15
TORSDOF 9
ENDMDL
MODEL 5
REMARK VINA RESULT:      -6.1      1.589      2.670
REMARK  Name = 5280555
REMARK  9 active torsions:
REMARK  status: ('A' for Active; 'I' for Inactive)
REMARK    1  A    between atoms: C_1  and  O_15
REMARK    2  A    between atoms: C_2  and  O_7
REMARK    3  A    between atoms: C_3  and  O_9
REMARK    4  A    between atoms: C_5  and  C_12
REMARK    5  A    between atoms: C_12  and  O_13
REMARK    6  A    between atoms: O_15  and  C_17
REMARK    7  A    between atoms: C_17  and  C_18
REMARK    8  A    between atoms: C_19  and  C_20
REMARK    9  A    between atoms: C_25  and  O_26
REMARK                            x       y       z     vdW  Elec       q    Type
REMARK                         _______ _______ _______ _____ _____    ______ ____
ROOT
ATOM      1  C   UNL     1     -35.930  23.851   2.370  0.00  0.00    +0.203 C 
ATOM      2  C   UNL     1     -37.170  24.745   2.285  0.00  0.00    +0.182 C 
ATOM      3  C   UNL     1     -37.560  25.293   3.670  0.00  0.00    +0.163 C 
ATOM      4  C   UNL     1     -34.734  24.594   2.991  0.00  0.00    +0.079 C 
ATOM      5  C   UNL     1     -35.121  25.490   4.134  0.00  0.00    +0.055 C 
ATOM      6  C   UNL     1     -36.385  25.805   4.453  0.00  0.00    +0.007 C 
ENDROOT
BRANCH   2   7
ATOM      7  O   UNL     1     -36.891  25.817   1.385  0.00  0.00    -0.378 OA
ATOM      8  H   UNL     1     -36.881  25.481   0.475  0.00  0.00    +0.211 HD
ENDBRANCH   2   7
BRANCH   3   9
ATOM      9  O   UNL     1     -38.518  26.336   3.527  0.00  0.00    -0.377 OA
ATOM     10  H   UNL     1     -38.969  26.479   4.374  0.00  0.00    +0.211 HD
ENDBRANCH   3   9
BRANCH   5  12
ATOM     11  O   UNL     1     -34.192  26.385   6.131  0.00  0.00    -0.245 OA
ATOM     12  C   UNL     1     -34.053  26.046   4.970  0.00  0.00    +0.334 C 
BRANCH  12  13
ATOM     13  O   UNL     1     -32.911  26.117   4.256  0.00  0.00    -0.477 OA
ATOM     14  H   UNL     1     -32.169  26.571   4.604  0.00  0.00    +0.295 HD
ENDBRANCH  12  13
ENDBRANCH   5  12
BRANCH   1  15
ATOM     15  O   UNL     1     -36.243  22.698   3.148  0.00  0.00    -0.446 OA
BRANCH  15  17
ATOM     16  O   UNL     1     -37.592  21.237   1.974  0.00  0.00    -0.245 OA
ATOM     17  C   UNL     1     -36.514  21.565   2.442  0.00  0.00    +0.341 C 
BRANCH  17  18
ATOM     18  C   UNL     1     -35.259  20.785   2.339  0.00  0.00    +0.082 C 
ATOM     19  C   UNL     1     -34.650  20.667   1.151  0.00  0.00    +0.007 C 
BRANCH  19  20
ATOM     20  C   UNL     1     -33.395  19.929   0.923  0.00  0.00    +0.000 C 
ATOM     21  C   UNL     1     -33.237  18.671   1.481  0.00  0.00    +0.003 C 
ATOM     22  C   UNL     1     -32.398  20.508   0.156  0.00  0.00    +0.003 C 
ATOM     23  C   UNL     1     -32.050  17.972   1.265  0.00  0.00    +0.037 C 
ATOM     24  C   UNL     1     -31.210  19.809  -0.061  0.00  0.00    +0.037 C 
ATOM     25  C   UNL     1     -31.037  18.541   0.494  0.00  0.00    +0.134 C 
BRANCH  25  26
ATOM     26  O   UNL     1     -29.877  17.859   0.283  0.00  0.00    -0.506 OA
ATOM     27  H   UNL     1     -29.678  17.102   0.799  0.00  0.00    +0.292 HD
ENDBRANCH  25  26
ENDBRANCH  19  20
ENDBRANCH  17  18
ENDBRANCH  15  17
ENDBRANCH   1  15
TORSDOF 9
ENDMDL
MODEL 6
REMARK VINA RESULT:      -6.1      4.040      6.811
REMARK  Name = 5280555
REMARK  9 active torsions:
REMARK  status: ('A' for Active; 'I' for Inactive)
REMARK    1  A    between atoms: C_1  and  O_15
REMARK    2  A    between atoms: C_2  and  O_7
REMARK    3  A    between atoms: C_3  and  O_9
REMARK    4  A    between atoms: C_5  and  C_12
REMARK    5  A    between atoms: C_12  and  O_13
REMARK    6  A    between atoms: O_15  and  C_17
REMARK    7  A    between atoms: C_17  and  C_18
REMARK    8  A    between atoms: C_19  and  C_20
REMARK    9  A    between atoms: C_25  and  O_26
REMARK                            x       y       z     vdW  Elec       q    Type
REMARK                         _______ _______ _______ _____ _____    ______ ____
ROOT
ATOM      1  C   UNL     1     -33.021  28.582   3.158  0.00  0.00    +0.203 C 
ATOM      2  C   UNL     1     -32.528  29.943   2.659  0.00  0.00    +0.182 C 
ATOM      3  C   UNL     1     -32.650  31.017   3.755  0.00  0.00    +0.163 C 
ATOM      4  C   UNL     1     -32.263  28.129   4.419  0.00  0.00    +0.079 C 
ATOM      5  C   UNL     1     -31.987  29.250   5.380  0.00  0.00    +0.055 C 
ATOM      6  C   UNL     1     -32.163  30.549   5.096  0.00  0.00    +0.007 C 
ENDROOT
BRANCH   2   7
ATOM      7  O   UNL     1     -31.168  29.805   2.246  0.00  0.00    -0.378 OA
ATOM      8  H   UNL     1     -30.689  29.258   2.888  0.00  0.00    +0.211 HD
ENDBRANCH   2   7
BRANCH   3   9
ATOM      9  O   UNL     1     -31.927  32.183   3.375  0.00  0.00    -0.377 OA
ATOM     10  H   UNL     1     -32.313  32.554   2.566  0.00  0.00    +0.211 HD
ENDBRANCH   3   9
BRANCH   5  12
ATOM     11  O   UNL     1     -31.530  29.667   7.675  0.00  0.00    -0.245 OA
ATOM     12  C   UNL     1     -31.509  28.909   6.723  0.00  0.00    +0.334 C 
BRANCH  12  13
ATOM     13  O   UNL     1     -31.053  27.640   6.732  0.00  0.00    -0.477 OA
ATOM     14  H   UNL     1     -31.481  26.985   6.215  0.00  0.00    +0.295 HD
ENDBRANCH  12  13
ENDBRANCH   5  12
BRANCH   1  15
ATOM     15  O   UNL     1     -34.417  28.669   3.435  0.00  0.00    -0.446 OA
BRANCH  15  17
ATOM     16  O   UNL     1     -35.684  28.000   1.624  0.00  0.00    -0.245 OA
ATOM     17  C   UNL     1     -35.212  27.813   2.733  0.00  0.00    +0.341 C 
BRANCH  17  18
ATOM     18  C   UNL     1     -35.412  26.601   3.560  0.00  0.00    +0.082 C 
ATOM     19  C   UNL     1     -34.972  25.416   3.112  0.00  0.00    +0.007 C 
BRANCH  19  20
ATOM     20  C   UNL     1     -35.101  24.145   3.843  0.00  0.00    +0.000 C 
ATOM     21  C   UNL     1     -35.372  22.982   3.141  0.00  0.00    +0.003 C 
ATOM     22  C   UNL     1     -34.948  24.135   5.220  0.00  0.00    +0.003 C 
ATOM     23  C   UNL     1     -35.494  21.777   3.833  0.00  0.00    +0.037 C 
ATOM     24  C   UNL     1     -35.069  22.931   5.913  0.00  0.00    +0.037 C 
ATOM     25  C   UNL     1     -35.342  21.752   5.219  0.00  0.00    +0.134 C 
BRANCH  25  26
ATOM     26  O   UNL     1     -35.461  20.576   5.895  0.00  0.00    -0.506 OA
ATOM     27  H   UNL     1     -34.829  20.345   6.548  0.00  0.00    +0.292 HD
ENDBRANCH  25  26
ENDBRANCH  19  20
ENDBRANCH  17  18
ENDBRANCH  15  17
ENDBRANCH   1  15
TORSDOF 9
ENDMDL
MODEL 7
REMARK VINA RESULT:      -6.1      4.054      6.890
REMARK  Name = 5280555
REMARK  9 active torsions:
REMARK  status: ('A' for Active; 'I' for Inactive)
REMARK    1  A    between atoms: C_1  and  O_15
REMARK    2  A    between atoms: C_2  and  O_7
REMARK    3  A    between atoms: C_3  and  O_9
REMARK    4  A    between atoms: C_5  and  C_12
REMARK    5  A    between atoms: C_12  and  O_13
REMARK    6  A    between atoms: O_15  and  C_17
REMARK    7  A    between atoms: C_17  and  C_18
REMARK    8  A    between atoms: C_19  and  C_20
REMARK    9  A    between atoms: C_25  and  O_26
REMARK                            x       y       z     vdW  Elec       q    Type
REMARK                         _______ _______ _______ _____ _____    ______ ____
ROOT
ATOM      1  C   UNL     1     -36.369  23.611   3.358  0.00  0.00    +0.203 C 
ATOM      2  C   UNL     1     -36.700  22.376   2.517  0.00  0.00    +0.182 C 
ATOM      3  C   UNL     1     -38.209  22.071   2.542  0.00  0.00    +0.163 C 
ATOM      4  C   UNL     1     -37.158  24.847   2.891  0.00  0.00    +0.079 C 
ATOM      5  C   UNL     1     -38.575  24.535   2.503  0.00  0.00    +0.055 C 
ATOM      6  C   UNL     1     -39.060  23.293   2.350  0.00  0.00    +0.007 C 
ENDROOT
BRANCH   2   7
ATOM      7  O   UNL     1     -36.262  22.612   1.179  0.00  0.00    -0.378 OA
ATOM      8  H   UNL     1     -36.042  23.551   1.072  0.00  0.00    +0.211 HD
ENDBRANCH   2   7
BRANCH   3   9
ATOM      9  O   UNL     1     -38.528  21.116   1.536  0.00  0.00    -0.377 OA
ATOM     10  H   UNL     1     -39.251  21.455   0.986  0.00  0.00    +0.211 HD
ENDBRANCH   3   9
BRANCH   5  12
ATOM     11  O   UNL     1     -40.206  25.787   1.310  0.00  0.00    -0.245 OA
ATOM     12  C   UNL     1     -39.498  25.653   2.292  0.00  0.00    +0.334 C 
BRANCH  12  13
ATOM     13  O   UNL     1     -39.438  26.494   3.344  0.00  0.00    -0.477 OA
ATOM     14  H   UNL     1     -40.013  26.373   4.074  0.00  0.00    +0.295 HD
ENDBRANCH  12  13
ENDBRANCH   5  12
BRANCH   1  15
ATOM     15  O   UNL     1     -36.666  23.333   4.725  0.00  0.00    -0.446 OA
BRANCH  15  17
ATOM     16  O   UNL     1     -35.470  22.208   6.349  0.00  0.00    -0.245 OA
ATOM     17  C   UNL     1     -35.590  23.103   5.528  0.00  0.00    +0.341 C 
BRANCH  17  18
ATOM     18  C   UNL     1     -34.575  24.140   5.233  0.00  0.00    +0.082 C 
ATOM     19  C   UNL     1     -34.655  25.334   5.839  0.00  0.00    +0.007 C 
BRANCH  19  20
ATOM     20  C   UNL     1     -33.703  26.439   5.637  0.00  0.00    +0.000 C 
ATOM     21  C   UNL     1     -32.997  26.933   6.723  0.00  0.00    +0.003 C 
ATOM     22  C   UNL     1     -33.532  26.965   4.367  0.00  0.00    +0.003 C 
ATOM     23  C   UNL     1     -32.095  27.980   6.533  0.00  0.00    +0.037 C 
ATOM     24  C   UNL     1     -32.629  28.011   4.176  0.00  0.00    +0.037 C 
ATOM     25  C   UNL     1     -31.912  28.519   5.259  0.00  0.00    +0.134 C 
BRANCH  25  26
ATOM     26  O   UNL     1     -31.031  29.541   5.073  0.00  0.00    -0.506 OA
ATOM     27  H   UNL     1     -31.340  30.425   5.037  0.00  0.00    +0.292 HD
ENDBRANCH  25  26
ENDBRANCH  19  20
ENDBRANCH  17  18
ENDBRANCH  15  17
ENDBRANCH   1  15
TORSDOF 9
ENDMDL
MODEL 8
REMARK VINA RESULT:      -6.0      1.624      3.059
REMARK  Name = 5280555
REMARK  9 active torsions:
REMARK  status: ('A' for Active; 'I' for Inactive)
REMARK    1  A    between atoms: C_1  and  O_15
REMARK    2  A    between atoms: C_2  and  O_7
REMARK    3  A    between atoms: C_3  and  O_9
REMARK    4  A    between atoms: C_5  and  C_12
REMARK    5  A    between atoms: C_12  and  O_13
REMARK    6  A    between atoms: O_15  and  C_17
REMARK    7  A    between atoms: C_17  and  C_18
REMARK    8  A    between atoms: C_19  and  C_20
REMARK    9  A    between atoms: C_25  and  O_26
REMARK                            x       y       z     vdW  Elec       q    Type
REMARK                         _______ _______ _______ _____ _____    ______ ____
ROOT
ATOM      1  C   UNL     1     -36.922  24.237   2.701  0.00  0.00    +0.203 C 
ATOM      2  C   UNL     1     -37.369  25.219   3.787  0.00  0.00    +0.182 C 
ATOM      3  C   UNL     1     -36.238  25.491   4.795  0.00  0.00    +0.163 C 
ATOM      4  C   UNL     1     -35.673  24.741   1.958  0.00  0.00    +0.079 C 
ATOM      5  C   UNL     1     -34.671  25.403   2.861  0.00  0.00    +0.055 C 
ATOM      6  C   UNL     1     -34.910  25.738   4.137  0.00  0.00    +0.007 C 
ENDROOT
BRANCH   2   7
ATOM      7  O   UNL     1     -37.777  26.432   3.156  0.00  0.00    -0.378 OA
ATOM      8  H   UNL     1     -37.223  27.163   3.470  0.00  0.00    +0.211 HD
ENDBRANCH   2   7
BRANCH   3   9
ATOM      9  O   UNL     1     -36.572  26.610   5.609  0.00  0.00    -0.377 OA
ATOM     10  H   UNL     1     -37.019  26.303   6.413  0.00  0.00    +0.211 HD
ENDBRANCH   3   9
BRANCH   5  12
ATOM     11  O   UNL     1     -33.076  25.775   1.138  0.00  0.00    -0.245 OA
ATOM     12  C   UNL     1     -33.338  25.689   2.324  0.00  0.00    +0.334 C 
BRANCH  12  13
ATOM     13  O   UNL     1     -32.464  25.842   3.340  0.00  0.00    -0.477 OA
ATOM     14  H   UNL     1     -32.350  26.682   3.738  0.00  0.00    +0.295 HD
ENDBRANCH  12  13
ENDBRANCH   5  12
BRANCH   1  15
ATOM     15  O   UNL     1     -36.652  22.973   3.304  0.00  0.00    -0.446 OA
BRANCH  15  17
ATOM     16  O   UNL     1     -38.043  21.605   2.066  0.00  0.00    -0.245 OA
ATOM     17  C   UNL     1     -36.955  21.881   2.546  0.00  0.00    +0.341 C 
BRANCH  17  18
ATOM     18  C   UNL     1     -35.723  21.073   2.404  0.00  0.00    +0.082 C 
ATOM     19  C   UNL     1     -35.054  21.086   1.242  0.00  0.00    +0.007 C 
BRANCH  19  20
ATOM     20  C   UNL     1     -33.814  20.335   0.982  0.00  0.00    +0.000 C 
ATOM     21  C   UNL     1     -33.658  19.072   1.530  0.00  0.00    +0.003 C 
ATOM     22  C   UNL     1     -32.828  20.906   0.195  0.00  0.00    +0.003 C 
ATOM     23  C   UNL     1     -32.484  18.360   1.284  0.00  0.00    +0.037 C 
ATOM     24  C   UNL     1     -31.654  20.194  -0.053  0.00  0.00    +0.037 C 
ATOM     25  C   UNL     1     -31.482  18.922   0.492  0.00  0.00    +0.134 C 
BRANCH  25  26
ATOM     26  O   UNL     1     -30.336  18.227   0.251  0.00  0.00    -0.506 OA
ATOM     27  H   UNL     1     -30.143  17.928  -0.615  0.00  0.00    +0.292 HD
ENDBRANCH  25  26
ENDBRANCH  19  20
ENDBRANCH  17  18
ENDBRANCH  15  17
ENDBRANCH   1  15
TORSDOF 9
ENDMDL
MODEL 9
REMARK VINA RESULT:      -6.0      1.497      2.520
REMARK  Name = 5280555
REMARK  9 active torsions:
REMARK  status: ('A' for Active; 'I' for Inactive)
REMARK    1  A    between atoms: C_1  and  O_15
REMARK    2  A    between atoms: C_2  and  O_7
REMARK    3  A    between atoms: C_3  and  O_9
REMARK    4  A    between atoms: C_5  and  C_12
REMARK    5  A    between atoms: C_12  and  O_13
REMARK    6  A    between atoms: O_15  and  C_17
REMARK    7  A    between atoms: C_17  and  C_18
REMARK    8  A    between atoms: C_19  and  C_20
REMARK    9  A    between atoms: C_25  and  O_26
REMARK                            x       y       z     vdW  Elec       q    Type
REMARK                         _______ _______ _______ _____ _____    ______ ____
ROOT
ATOM      1  C   UNL     1     -36.179  22.633   2.986  0.00  0.00    +0.203 C 
ATOM      2  C   UNL     1     -35.631  23.186   4.304  0.00  0.00    +0.182 C 
ATOM      3  C   UNL     1     -35.872  24.702   4.416  0.00  0.00    +0.163 C 
ATOM      4  C   UNL     1     -37.679  22.936   2.821  0.00  0.00    +0.079 C 
ATOM      5  C   UNL     1     -38.064  24.306   3.303  0.00  0.00    +0.055 C 
ATOM      6  C   UNL     1     -37.260  25.111   4.014  0.00  0.00    +0.007 C 
ENDROOT
BRANCH   2   7
ATOM      7  O   UNL     1     -36.270  22.499   5.380  0.00  0.00    -0.378 OA
ATOM      8  H   UNL     1     -36.584  21.635   5.071  0.00  0.00    +0.211 HD
ENDBRANCH   2   7
BRANCH   3   9
ATOM      9  O   UNL     1     -35.625  25.136   5.750  0.00  0.00    -0.377 OA
ATOM     10  H   UNL     1     -36.183  25.904   5.949  0.00  0.00    +0.211 HD
ENDBRANCH   3   9
BRANCH   5  12
ATOM     11  O   UNL     1     -39.787  25.026   1.831  0.00  0.00    -0.245 OA
ATOM     12  C   UNL     1     -39.398  24.809   2.965  0.00  0.00    +0.334 C 
BRANCH  12  13
ATOM     13  O   UNL     1     -40.114  24.987   4.094  0.00  0.00    -0.477 OA
ATOM     14  H   UNL     1     -39.682  25.006   4.925  0.00  0.00    +0.295 HD
ENDBRANCH  12  13
ENDBRANCH   5  12
BRANCH   1  15
ATOM     15  O   UNL     1     -35.446  23.204   1.904  0.00  0.00    -0.446 OA
BRANCH  15  17
ATOM     16  O   UNL     1     -36.034  22.787  -0.290  0.00  0.00    -0.245 OA
ATOM     17  C   UNL     1     -35.456  22.491   0.743  0.00  0.00    +0.341 C 
BRANCH  17  18
ATOM     18  C   UNL     1     -34.635  21.276   0.952  0.00  0.00    +0.082 C 
ATOM     19  C   UNL     1     -33.449  21.166   0.337  0.00  0.00    +0.007 C 
BRANCH  19  20
ATOM     20  C   UNL     1     -32.539  20.016   0.473  0.00  0.00    +0.000 C 
ATOM     21  C   UNL     1     -31.289  20.065  -0.123  0.00  0.00    +0.003 C 
ATOM     22  C   UNL     1     -32.950  18.907   1.194  0.00  0.00    +0.003 C 
ATOM     23  C   UNL     1     -30.427  18.976   0.005  0.00  0.00    +0.037 C 
ATOM     24  C   UNL     1     -32.088  17.818   1.324  0.00  0.00    +0.037 C 
ATOM     25  C   UNL     1     -30.827  17.853   0.728  0.00  0.00    +0.134 C 
BRANCH  25  26
ATOM     26  O   UNL     1     -29.986  16.789   0.854  0.00  0.00    -0.506 OA
ATOM     27  H   UNL     1     -29.140  16.811   0.451  0.00  0.00    +0.292 HD
ENDBRANCH  25  26
ENDBRANCH  19  20
ENDBRANCH  17  18
ENDBRANCH  15  17
ENDBRANCH   1  15
TORSDOF 9
ENDMDL
