MODEL 1
REMARK VINA RESULT:      -7.3      0.000      0.000
REMARK  Name = 5281820
REMARK  2 active torsions:
REMARK  status: ('A' for Active; 'I' for Inactive)
REMARK    1  A    between atoms: C_22  and  O_36
REMARK    2  A    between atoms: C_30  and  O_38
REMARK                            x       y       z     vdW  Elec       q    Type
REMARK                         _______ _______ _______ _____ _____    ______ ____
ROOT
ATOM      1  O   UNL     1     -37.094  22.363   3.615  0.00  0.00    -0.447 OA
ATOM      2  O   UNL     1     -31.798  28.136   6.813  0.00  0.00    -0.270 OA
ATOM      3  O   UNL     1     -32.984  24.758  -2.306  0.00  0.00    -0.270 OA
ATOM      4  N   UNL     1     -30.011  28.057   1.179  0.00  0.00    +0.384 N 
ATOM      5  N   UNL     1     -32.159  29.358   4.866  0.00  0.00    -0.301 N 
ATOM      6  N   UNL     1     -31.448  24.333  -0.612  0.00  0.00    -0.301 N 
ATOM      7  C   UNL     1     -29.733  29.678   3.008  0.00  0.00    -0.022 C 
ATOM      8  C   UNL     1     -30.006  28.216   2.636  0.00  0.00    -0.082 C 
ATOM      9  C   UNL     1     -29.763  29.922   4.525  0.00  0.00    +0.019 C 
ATOM     10  C   UNL     1     -30.154  26.648   0.809  0.00  0.00    -0.080 C 
ATOM     11  C   UNL     1     -30.283  26.515  -0.713  0.00  0.00    -0.002 C 
ATOM     12  C   UNL     1     -31.128  30.357   5.061  0.00  0.00    +0.090 C 
ATOM     13  C   UNL     1     -30.321  25.056  -1.173  0.00  0.00    +0.088 C 
ATOM     14  C   UNL     1     -32.383  28.315   5.750  0.00  0.00    +0.246 C 
ATOM     15  C   UNL     1     -32.692  24.273  -1.218  0.00  0.00    +0.246 C 
ATOM     16  C   UNL     1     -33.428  27.387   5.238  0.00  0.00    +0.058 C 
ATOM     17  C   UNL     1     -34.681  25.269   5.376  0.00  0.00    +0.003 C 
ATOM     18  C   UNL     1     -33.680  23.555  -0.365  0.00  0.00    +0.058 C 
ATOM     19  C   UNL     1     -33.731  26.262   5.903  0.00  0.00    +0.005 C 
ATOM     20  C   UNL     1     -36.002  22.791   0.067  0.00  0.00    +0.003 C 
ATOM     21  C   UNL     1     -36.341  23.327   4.242  0.00  0.00    +0.179 C 
ATOM     22  C   UNL     1     -36.703  24.673   4.167  0.00  0.00    +0.173 C 
ATOM     23  C   UNL     1     -37.035  22.325   2.232  0.00  0.00    +0.179 C 
ATOM     24  C   UNL     1     -34.955  23.420  -0.757  0.00  0.00    +0.005 C 
ATOM     25  C   UNL     1     -35.871  25.641   4.731  0.00  0.00    +0.040 C 
ATOM     26  C   UNL     1     -34.379  23.906   5.517  0.00  0.00    +0.003 C 
ATOM     27  C   UNL     1     -35.990  22.869   1.470  0.00  0.00    +0.041 C 
ATOM     28  C   UNL     1     -35.209  22.934   4.953  0.00  0.00    +0.041 C 
ATOM     29  C   UNL     1     -37.084  22.158  -0.558  0.00  0.00    +0.003 C 
ATOM     30  C   UNL     1     -38.088  21.673   1.592  0.00  0.00    +0.168 C 
ATOM     31  C   UNL     1     -38.114  21.593   0.199  0.00  0.00    +0.040 C 
ATOM     32  H   UNL     1     -29.135  28.415   0.801  0.00  0.00    -0.085 HD
ATOM     33  H   UNL     1     -30.802  28.577   0.798  0.00  0.00    -0.085 HD
ATOM     34  H   UNL     1     -32.728  29.423   4.066  0.00  0.00    +0.150 HD
ATOM     35  H   UNL     1     -31.323  23.862   0.244  0.00  0.00    +0.150 HD
ENDROOT
BRANCH  22  36
ATOM     36  O   UNL     1     -37.843  25.064   3.533  0.00  0.00    -0.468 OA
ATOM     37  C   UNL     1     -37.714  26.073   2.533  0.00  0.00    +0.253 C 
ENDBRANCH  22  36
BRANCH  30  38
ATOM     38  O   UNL     1     -39.107  21.119   2.307  0.00  0.00    -0.503 OA
ATOM     39  H   UNL     1     -38.919  20.593   3.060  0.00  0.00    +0.292 HD
ENDBRANCH  30  38
TORSDOF 2
ENDMDL
MODEL 2
REMARK VINA RESULT:      -7.0      3.944      7.300
REMARK  Name = 5281820
REMARK  2 active torsions:
REMARK  status: ('A' for Active; 'I' for Inactive)
REMARK    1  A    between atoms: C_22  and  O_36
REMARK    2  A    between atoms: C_30  and  O_38
REMARK                            x       y       z     vdW  Elec       q    Type
REMARK                         _______ _______ _______ _____ _____    ______ ____
ROOT
ATOM      1  O   UNL     1     -36.921  23.748   2.686  0.00  0.00    -0.447 OA
ATOM      2  O   UNL     1     -33.085  16.683   0.048  0.00  0.00    -0.270 OA
ATOM      3  O   UNL     1     -30.089  26.007   0.258  0.00  0.00    -0.270 OA
ATOM      4  N   UNL     1     -28.960  20.698  -1.293  0.00  0.00    +0.384 N 
ATOM      5  N   UNL     1     -31.138  17.543   0.988  0.00  0.00    -0.301 N 
ATOM      6  N   UNL     1     -30.914  24.612  -1.410  0.00  0.00    -0.301 N 
ATOM      7  C   UNL     1     -28.894  18.259  -0.986  0.00  0.00    -0.022 C 
ATOM      8  C   UNL     1     -29.767  19.475  -1.316  0.00  0.00    -0.082 C 
ATOM      9  C   UNL     1     -29.692  16.946  -0.944  0.00  0.00    +0.019 C 
ATOM     10  C   UNL     1     -29.753  21.853  -1.720  0.00  0.00    -0.080 C 
ATOM     11  C   UNL     1     -28.930  23.138  -1.572  0.00  0.00    -0.002 C 
ATOM     12  C   UNL     1     -30.208  16.572   0.447  0.00  0.00    +0.090 C 
ATOM     13  C   UNL     1     -29.664  24.369  -2.109  0.00  0.00    +0.088 C 
ATOM     14  C   UNL     1     -32.496  17.528   0.715  0.00  0.00    +0.246 C 
ATOM     15  C   UNL     1     -31.008  25.389  -0.268  0.00  0.00    +0.246 C 
ATOM     16  C   UNL     1     -33.182  18.704   1.315  0.00  0.00    +0.058 C 
ATOM     17  C   UNL     1     -35.174  20.130   1.580  0.00  0.00    +0.003 C 
ATOM     18  C   UNL     1     -32.389  25.372   0.290  0.00  0.00    +0.058 C 
ATOM     19  C   UNL     1     -34.486  18.924   1.092  0.00  0.00    +0.005 C 
ATOM     20  C   UNL     1     -34.006  26.002   2.067  0.00  0.00    +0.003 C 
ATOM     21  C   UNL     1     -36.385  22.525   2.360  0.00  0.00    +0.179 C 
ATOM     22  C   UNL     1     -35.533  21.863   3.245  0.00  0.00    +0.173 C 
ATOM     23  C   UNL     1     -36.055  24.828   2.695  0.00  0.00    +0.179 C 
ATOM     24  C   UNL     1     -32.683  26.036   1.418  0.00  0.00    +0.005 C 
ATOM     25  C   UNL     1     -34.928  20.670   2.852  0.00  0.00    +0.040 C 
ATOM     26  C   UNL     1     -36.101  20.764   0.740  0.00  0.00    +0.003 C 
ATOM     27  C   UNL     1     -34.831  24.867   2.009  0.00  0.00    +0.041 C 
ATOM     28  C   UNL     1     -36.710  21.960   1.128  0.00  0.00    +0.041 C 
ATOM     29  C   UNL     1     -34.428  27.099   2.828  0.00  0.00    +0.003 C 
ATOM     30  C   UNL     1     -36.473  25.943   3.422  0.00  0.00    +0.168 C 
ATOM     31  C   UNL     1     -35.658  27.073   3.491  0.00  0.00    +0.040 C 
ATOM     32  H   UNL     1     -28.167  20.586  -1.924  0.00  0.00    -0.085 HD
ATOM     33  H   UNL     1     -28.638  20.858  -0.339  0.00  0.00    -0.085 HD
ATOM     34  H   UNL     1     -30.787  18.249   1.577  0.00  0.00    +0.150 HD
ATOM     35  H   UNL     1     -31.735  24.202  -1.765  0.00  0.00    +0.150 HD
ENDROOT
BRANCH  22  36
ATOM     36  O   UNL     1     -35.262  22.372   4.479  0.00  0.00    -0.468 OA
ATOM     37  C   UNL     1     -35.130  21.439   5.550  0.00  0.00    +0.253 C 
ENDBRANCH  22  36
BRANCH  30  38
ATOM     38  O   UNL     1     -37.664  25.942   4.083  0.00  0.00    -0.503 OA
ATOM     39  H   UNL     1     -37.732  25.538   4.925  0.00  0.00    +0.292 HD
ENDBRANCH  30  38
TORSDOF 2
ENDMDL
MODEL 3
REMARK VINA RESULT:      -6.7      2.425      2.565
REMARK  Name = 5281820
REMARK  2 active torsions:
REMARK  status: ('A' for Active; 'I' for Inactive)
REMARK    1  A    between atoms: C_22  and  O_36
REMARK    2  A    between atoms: C_30  and  O_38
REMARK                            x       y       z     vdW  Elec       q    Type
REMARK                         _______ _______ _______ _____ _____    ______ ____
ROOT
ATOM      1  O   UNL     1     -35.849  21.991   3.369  0.00  0.00    -0.447 OA
ATOM      2  O   UNL     1     -33.823  30.192   3.847  0.00  0.00    -0.270 OA
ATOM      3  O   UNL     1     -31.564  23.322  -2.759  0.00  0.00    -0.270 OA
ATOM      4  N   UNL     1     -30.847  28.643  -1.018  0.00  0.00    +0.384 N 
ATOM      5  N   UNL     1     -34.119  30.268   1.541  0.00  0.00    -0.301 N 
ATOM      6  N   UNL     1     -30.423  24.288  -0.979  0.00  0.00    -0.301 N 
ATOM      7  C   UNL     1     -31.593  30.808  -0.123  0.00  0.00    -0.022 C 
ATOM      8  C   UNL     1     -31.241  29.352   0.202  0.00  0.00    -0.082 C 
ATOM      9  C   UNL     1     -32.063  31.597   1.109  0.00  0.00    +0.019 C 
ATOM     10  C   UNL     1     -30.395  27.285  -0.709  0.00  0.00    -0.080 C 
ATOM     11  C   UNL     1     -30.106  26.519  -2.006  0.00  0.00    -0.002 C 
ATOM     12  C   UNL     1     -33.580  31.593   1.312  0.00  0.00    +0.090 C 
ATOM     13  C   UNL     1     -29.522  25.129  -1.747  0.00  0.00    +0.088 C 
ATOM     14  C   UNL     1     -34.165  29.672   2.791  0.00  0.00    +0.246 C 
ATOM     15  C   UNL     1     -31.387  23.478  -1.557  0.00  0.00    +0.246 C 
ATOM     16  C   UNL     1     -34.667  28.273   2.706  0.00  0.00    +0.058 C 
ATOM     17  C   UNL     1     -35.094  26.074   3.730  0.00  0.00    +0.003 C 
ATOM     18  C   UNL     1     -32.232  22.816  -0.524  0.00  0.00    +0.058 C 
ATOM     19  C   UNL     1     -34.705  27.491   3.794  0.00  0.00    +0.005 C 
ATOM     20  C   UNL     1     -34.172  21.391   0.084  0.00  0.00    +0.003 C 
ATOM     21  C   UNL     1     -35.652  23.343   3.524  0.00  0.00    +0.179 C 
ATOM     22  C   UNL     1     -36.433  24.261   2.822  0.00  0.00    +0.173 C 
ATOM     23  C   UNL     1     -35.456  21.437   2.163  0.00  0.00    +0.179 C 
ATOM     24  C   UNL     1     -33.249  22.017  -0.879  0.00  0.00    +0.005 C 
ATOM     25  C   UNL     1     -36.151  25.623   2.924  0.00  0.00    +0.040 C 
ATOM     26  C   UNL     1     -34.377  25.142   4.496  0.00  0.00    +0.003 C 
ATOM     27  C   UNL     1     -34.520  22.016   1.293  0.00  0.00    +0.041 C 
ATOM     28  C   UNL     1     -34.655  23.777   4.397  0.00  0.00    +0.041 C 
ATOM     29  C   UNL     1     -34.784  20.173  -0.240  0.00  0.00    +0.003 C 
ATOM     30  C   UNL     1     -36.032  20.208   1.837  0.00  0.00    +0.168 C 
ATOM     31  C   UNL     1     -35.698  19.581   0.636  0.00  0.00    +0.040 C 
ATOM     32  H   UNL     1     -30.088  29.152  -1.470  0.00  0.00    -0.085 HD
ATOM     33  H   UNL     1     -31.655  28.585  -1.637  0.00  0.00    -0.085 HD
ATOM     34  H   UNL     1     -34.468  29.765   0.770  0.00  0.00    +0.150 HD
ATOM     35  H   UNL     1     -30.347  24.295   0.003  0.00  0.00    +0.150 HD
ENDROOT
BRANCH  22  36
ATOM     36  O   UNL     1     -37.454  23.852   2.018  0.00  0.00    -0.468 OA
ATOM     37  C   UNL     1     -38.766  23.868   2.577  0.00  0.00    +0.253 C 
ENDBRANCH  22  36
BRANCH  30  38
ATOM     38  O   UNL     1     -36.930  19.613   2.670  0.00  0.00    -0.503 OA
ATOM     39  H   UNL     1     -36.831  19.691   3.598  0.00  0.00    +0.292 HD
ENDBRANCH  30  38
TORSDOF 2
ENDMDL
MODEL 4
REMARK VINA RESULT:      -6.5      3.491      4.922
REMARK  Name = 5281820
REMARK  2 active torsions:
REMARK  status: ('A' for Active; 'I' for Inactive)
REMARK    1  A    between atoms: C_22  and  O_36
REMARK    2  A    between atoms: C_30  and  O_38
REMARK                            x       y       z     vdW  Elec       q    Type
REMARK                         _______ _______ _______ _____ _____    ______ ____
ROOT
ATOM      1  O   UNL     1     -36.173  22.476   1.933  0.00  0.00    -0.447 OA
ATOM      2  O   UNL     1     -30.918  29.062   2.705  0.00  0.00    -0.270 OA
ATOM      3  O   UNL     1     -40.448  28.585   0.490  0.00  0.00    -0.270 OA
ATOM      4  N   UNL     1     -35.873  31.840   1.073  0.00  0.00    +0.384 N 
ATOM      5  N   UNL     1     -32.684  30.188   3.719  0.00  0.00    -0.301 N 
ATOM      6  N   UNL     1     -38.510  28.869  -0.763  0.00  0.00    -0.301 N 
ATOM      7  C   UNL     1     -33.809  32.595   2.175  0.00  0.00    -0.022 C 
ATOM      8  C   UNL     1     -34.454  31.535   1.276  0.00  0.00    -0.082 C 
ATOM      9  C   UNL     1     -32.328  32.306   2.468  0.00  0.00    +0.019 C 
ATOM     10  C   UNL     1     -36.477  30.903   0.123  0.00  0.00    -0.080 C 
ATOM     11  C   UNL     1     -37.986  31.160   0.019  0.00  0.00    -0.002 C 
ATOM     12  C   UNL     1     -32.089  31.508   3.752  0.00  0.00    +0.090 C 
ATOM     13  C   UNL     1     -38.656  30.287  -1.044  0.00  0.00    +0.088 C 
ATOM     14  C   UNL     1     -32.053  29.084   3.169  0.00  0.00    +0.246 C 
ATOM     15  C   UNL     1     -39.409  28.150   0.007  0.00  0.00    +0.246 C 
ATOM     16  C   UNL     1     -32.944  27.891   3.178  0.00  0.00    +0.058 C 
ATOM     17  C   UNL     1     -33.446  25.575   2.505  0.00  0.00    +0.003 C 
ATOM     18  C   UNL     1     -38.949  26.749   0.214  0.00  0.00    +0.058 C 
ATOM     19  C   UNL     1     -32.555  26.741   2.609  0.00  0.00    +0.005 C 
ATOM     20  C   UNL     1     -39.230  24.521   1.275  0.00  0.00    +0.003 C 
ATOM     21  C   UNL     1     -35.239  23.459   2.158  0.00  0.00    +0.179 C 
ATOM     22  C   UNL     1     -35.196  24.133   3.379  0.00  0.00    +0.173 C 
ATOM     23  C   UNL     1     -37.487  22.884   1.779  0.00  0.00    +0.179 C 
ATOM     24  C   UNL     1     -39.662  25.896   0.964  0.00  0.00    +0.005 C 
ATOM     25  C   UNL     1     -34.303  25.191   3.548  0.00  0.00    +0.040 C 
ATOM     26  C   UNL     1     -33.443  24.828   1.317  0.00  0.00    +0.003 C 
ATOM     27  C   UNL     1     -37.873  24.182   1.411  0.00  0.00    +0.041 C 
ATOM     28  C   UNL     1     -34.337  23.769   1.142  0.00  0.00    +0.041 C 
ATOM     29  C   UNL     1     -40.194  23.534   1.516  0.00  0.00    +0.003 C 
ATOM     30  C   UNL     1     -38.461  21.907   1.985  0.00  0.00    +0.168 C 
ATOM     31  C   UNL     1     -39.811  22.234   1.857  0.00  0.00    +0.040 C 
ATOM     32  H   UNL     1     -35.962  32.788   0.709  0.00  0.00    -0.085 HD
ATOM     33  H   UNL     1     -36.356  31.754   1.967  0.00  0.00    -0.085 HD
ATOM     34  H   UNL     1     -33.582  30.070   4.104  0.00  0.00    +0.150 HD
ATOM     35  H   UNL     1     -37.733  28.396  -1.137  0.00  0.00    +0.150 HD
ENDROOT
BRANCH  22  36
ATOM     36  O   UNL     1     -36.027  23.795   4.403  0.00  0.00    -0.468 OA
ATOM     37  C   UNL     1     -35.422  23.271   5.584  0.00  0.00    +0.253 C 
ENDBRANCH  22  36
BRANCH  30  38
ATOM     38  O   UNL     1     -38.114  20.634   2.324  0.00  0.00    -0.503 OA
ATOM     39  H   UNL     1     -38.676  20.127   2.876  0.00  0.00    +0.292 HD
ENDBRANCH  30  38
TORSDOF 2
ENDMDL
MODEL 5
REMARK VINA RESULT:      -6.5      4.894      7.456
REMARK  Name = 5281820
REMARK  2 active torsions:
REMARK  status: ('A' for Active; 'I' for Inactive)
REMARK    1  A    between atoms: C_22  and  O_36
REMARK    2  A    between atoms: C_30  and  O_38
REMARK                            x       y       z     vdW  Elec       q    Type
REMARK                         _______ _______ _______ _____ _____    ______ ____
ROOT
ATOM      1  O   UNL     1     -39.024  23.310   2.680  0.00  0.00    -0.447 OA
ATOM      2  O   UNL     1     -43.026  30.453   0.544  0.00  0.00    -0.270 OA
ATOM      3  O   UNL     1     -33.529  28.502   1.944  0.00  0.00    -0.270 OA
ATOM      4  N   UNL     1     -37.459  32.410   0.873  0.00  0.00    +0.384 N 
ATOM      5  N   UNL     1     -41.249  30.865  -0.900  0.00  0.00    -0.301 N 
ATOM      6  N   UNL     1     -35.177  29.516   3.233  0.00  0.00    -0.301 N 
ATOM      7  C   UNL     1     -39.486  33.285  -0.209  0.00  0.00    -0.022 C 
ATOM      8  C   UNL     1     -38.924  32.379   0.893  0.00  0.00    -0.082 C 
ATOM      9  C   UNL     1     -41.022  33.260  -0.275  0.00  0.00    +0.019 C 
ATOM     10  C   UNL     1     -36.907  31.643   1.992  0.00  0.00    -0.080 C 
ATOM     11  C   UNL     1     -35.378  31.583   1.884  0.00  0.00    -0.002 C 
ATOM     12  C   UNL     1     -41.588  32.228  -1.253  0.00  0.00    +0.090 C 
ATOM     13  C   UNL     1     -34.733  30.891   3.086  0.00  0.00    +0.088 C 
ATOM     14  C   UNL     1     -41.987  30.105  -0.006  0.00  0.00    +0.246 C 
ATOM     15  C   UNL     1     -34.549  28.444   2.622  0.00  0.00    +0.246 C 
ATOM     16  C   UNL     1     -41.343  28.787   0.244  0.00  0.00    +0.058 C 
ATOM     17  C   UNL     1     -41.185  26.673   1.499  0.00  0.00    +0.003 C 
ATOM     18  C   UNL     1     -35.286  27.172   2.862  0.00  0.00    +0.058 C 
ATOM     19  C   UNL     1     -41.850  27.937   1.148  0.00  0.00    +0.005 C 
ATOM     20  C   UNL     1     -35.579  24.740   2.456  0.00  0.00    +0.003 C 
ATOM     21  C   UNL     1     -39.783  24.381   2.270  0.00  0.00    +0.179 C 
ATOM     22  C   UNL     1     -39.877  24.708   0.917  0.00  0.00    +0.173 C 
ATOM     23  C   UNL     1     -37.649  23.449   2.594  0.00  0.00    +0.179 C 
ATOM     24  C   UNL     1     -34.860  26.020   2.325  0.00  0.00    +0.005 C 
ATOM     25  C   UNL     1     -40.575  25.855   0.535  0.00  0.00    +0.040 C 
ATOM     26  C   UNL     1     -41.152  26.278   2.845  0.00  0.00    +0.003 C 
ATOM     27  C   UNL     1     -36.980  24.681   2.543  0.00  0.00    +0.041 C 
ATOM     28  C   UNL     1     -40.455  25.132   3.232  0.00  0.00    +0.041 C 
ATOM     29  C   UNL     1     -34.860  23.539   2.420  0.00  0.00    +0.003 C 
ATOM     30  C   UNL     1     -36.913  22.264   2.588  0.00  0.00    +0.168 C 
ATOM     31  C   UNL     1     -35.522  22.310   2.497  0.00  0.00    +0.040 C 
ATOM     32  H   UNL     1     -37.144  33.377   0.944  0.00  0.00    -0.085 HD
ATOM     33  H   UNL     1     -37.136  31.992   0.000  0.00  0.00    -0.085 HD
ATOM     34  H   UNL     1     -40.455  30.458  -1.315  0.00  0.00    +0.150 HD
ATOM     35  H   UNL     1     -35.966  29.337   3.794  0.00  0.00    +0.150 HD
ENDROOT
BRANCH  22  36
ATOM     36  O   UNL     1     -39.281  23.944  -0.039  0.00  0.00    -0.468 OA
ATOM     37  C   UNL     1     -38.393  24.605  -0.939  0.00  0.00    +0.253 C 
ENDBRANCH  22  36
BRANCH  30  38
ATOM     38  O   UNL     1     -37.535  21.053   2.656  0.00  0.00    -0.503 OA
ATOM     39  H   UNL     1     -37.346  20.470   3.364  0.00  0.00    +0.292 HD
ENDBRANCH  30  38
TORSDOF 2
ENDMDL
MODEL 6
REMARK VINA RESULT:      -6.5      3.989      8.520
REMARK  Name = 5281820
REMARK  2 active torsions:
REMARK  status: ('A' for Active; 'I' for Inactive)
REMARK    1  A    between atoms: C_22  and  O_36
REMARK    2  A    between atoms: C_30  and  O_38
REMARK                            x       y       z     vdW  Elec       q    Type
REMARK                         _______ _______ _______ _____ _____    ______ ____
ROOT
ATOM      1  O   UNL     1     -33.040  26.687   5.797  0.00  0.00    -0.447 OA
ATOM      2  O   UNL     1     -39.317  23.985   0.809  0.00  0.00    -0.270 OA
ATOM      3  O   UNL     1     -34.500  32.508   1.143  0.00  0.00    -0.270 OA
ATOM      4  N   UNL     1     -38.701  29.523  -1.162  0.00  0.00    +0.384 N 
ATOM      5  N   UNL     1     -38.239  25.092  -0.930  0.00  0.00    -0.301 N 
ATOM      6  N   UNL     1     -36.573  31.792   1.916  0.00  0.00    -0.301 N 
ATOM      7  C   UNL     1     -39.728  27.503  -2.118  0.00  0.00    -0.022 C 
ATOM      8  C   UNL     1     -39.292  28.222  -0.836  0.00  0.00    -0.082 C 
ATOM      9  C   UNL     1     -40.313  26.108  -1.849  0.00  0.00    +0.019 C 
ATOM     10  C   UNL     1     -38.386  30.272   0.057  0.00  0.00    -0.080 C 
ATOM     11  C   UNL     1     -37.657  31.572  -0.300  0.00  0.00    -0.002 C 
ATOM     12  C   UNL     1     -39.287  24.975  -1.924  0.00  0.00    +0.090 C 
ATOM     13  C   UNL     1     -37.401  32.455   0.924  0.00  0.00    +0.088 C 
ATOM     14  C   UNL     1     -38.361  24.609   0.362  0.00  0.00    +0.246 C 
ATOM     15  C   UNL     1     -35.190  31.855   1.918  0.00  0.00    +0.246 C 
ATOM     16  C   UNL     1     -37.175  24.967   1.188  0.00  0.00    +0.058 C 
ATOM     17  C   UNL     1     -36.028  25.100   3.364  0.00  0.00    +0.003 C 
ATOM     18  C   UNL     1     -34.607  30.994   2.985  0.00  0.00    +0.058 C 
ATOM     19  C   UNL     1     -37.135  24.670   2.494  0.00  0.00    +0.005 C 
ATOM     20  C   UNL     1     -32.632  29.997   4.113  0.00  0.00    +0.003 C 
ATOM     21  C   UNL     1     -34.005  26.105   5.009  0.00  0.00    +0.179 C 
ATOM     22  C   UNL     1     -33.677  25.566   3.765  0.00  0.00    +0.173 C 
ATOM     23  C   UNL     1     -32.540  27.907   5.375  0.00  0.00    +0.179 C 
ATOM     24  C   UNL     1     -33.278  30.887   3.132  0.00  0.00    +0.005 C 
ATOM     25  C   UNL     1     -34.690  25.068   2.944  0.00  0.00    +0.040 C 
ATOM     26  C   UNL     1     -36.326  25.565   4.654  0.00  0.00    +0.003 C 
ATOM     27  C   UNL     1     -33.206  28.773   4.495  0.00  0.00    +0.041 C 
ATOM     28  C   UNL     1     -35.316  26.065   5.479  0.00  0.00    +0.041 C 
ATOM     29  C   UNL     1     -31.375  30.337   4.628  0.00  0.00    +0.003 C 
ATOM     30  C   UNL     1     -31.302  28.277   5.901  0.00  0.00    +0.168 C 
ATOM     31  C   UNL     1     -30.720  29.488   5.524  0.00  0.00    +0.040 C 
ATOM     32  H   UNL     1     -39.362  30.059  -1.722  0.00  0.00    -0.085 HD
ATOM     33  H   UNL     1     -37.837  29.367  -1.681  0.00  0.00    -0.085 HD
ATOM     34  H   UNL     1     -37.400  25.538  -1.186  0.00  0.00    +0.150 HD
ATOM     35  H   UNL     1     -37.018  31.270   2.622  0.00  0.00    +0.150 HD
ENDROOT
BRANCH  22  36
ATOM     36  O   UNL     1     -32.389  25.537   3.323  0.00  0.00    -0.468 OA
ATOM     37  C   UNL     1     -32.123  26.144   2.059  0.00  0.00    +0.253 C 
ENDBRANCH  22  36
BRANCH  30  38
ATOM     38  O   UNL     1     -30.640  27.465   6.772  0.00  0.00    -0.503 OA
ATOM     39  H   UNL     1     -29.728  27.598   6.936  0.00  0.00    +0.292 HD
ENDBRANCH  30  38
TORSDOF 2
ENDMDL
MODEL 7
REMARK VINA RESULT:      -6.3      5.590      8.372
REMARK  Name = 5281820
REMARK  2 active torsions:
REMARK  status: ('A' for Active; 'I' for Inactive)
REMARK    1  A    between atoms: C_22  and  O_36
REMARK    2  A    between atoms: C_30  and  O_38
REMARK                            x       y       z     vdW  Elec       q    Type
REMARK                         _______ _______ _______ _____ _____    ______ ____
ROOT
ATOM      1  O   UNL     1     -43.277  28.523  -0.120  0.00  0.00    -0.447 OA
ATOM      2  O   UNL     1     -37.509  23.398   3.351  0.00  0.00    -0.270 OA
ATOM      3  O   UNL     1     -37.415  33.035   1.601  0.00  0.00    -0.270 OA
ATOM      4  N   UNL     1     -34.554  28.516   3.404  0.00  0.00    +0.384 N 
ATOM      5  N   UNL     1     -37.064  25.123   4.847  0.00  0.00    -0.301 N 
ATOM      6  N   UNL     1     -36.489  31.190   0.531  0.00  0.00    -0.301 N 
ATOM      7  C   UNL     1     -34.280  26.405   4.635  0.00  0.00    -0.022 C 
ATOM      8  C   UNL     1     -34.844  27.080   3.380  0.00  0.00    -0.082 C 
ATOM      9  C   UNL     1     -34.593  24.901   4.695  0.00  0.00    +0.019 C 
ATOM     10  C   UNL     1     -34.983  29.156   2.159  0.00  0.00    -0.080 C 
ATOM     11  C   UNL     1     -34.786  30.674   2.253  0.00  0.00    -0.002 C 
ATOM     12  C   UNL     1     -35.876  24.561   5.456  0.00  0.00    +0.090 C 
ATOM     13  C   UNL     1     -35.110  31.389   0.940  0.00  0.00    +0.088 C 
ATOM     14  C   UNL     1     -37.761  24.501   3.824  0.00  0.00    +0.246 C 
ATOM     15  C   UNL     1     -37.527  32.019   0.925  0.00  0.00    +0.246 C 
ATOM     16  C   UNL     1     -38.870  25.359   3.324  0.00  0.00    +0.058 C 
ATOM     17  C   UNL     1     -40.645  25.844   1.686  0.00  0.00    +0.003 C 
ATOM     18  C   UNL     1     -38.842  31.511   0.444  0.00  0.00    +0.058 C 
ATOM     19  C   UNL     1     -39.611  24.978   2.274  0.00  0.00    +0.005 C 
ATOM     20  C   UNL     1     -41.319  31.667   0.374  0.00  0.00    +0.003 C 
ATOM     21  C   UNL     1     -42.458  27.602   0.489  0.00  0.00    +0.179 C 
ATOM     22  C   UNL     1     -42.415  27.498   1.880  0.00  0.00    +0.173 C 
ATOM     23  C   UNL     1     -42.912  29.854  -0.009  0.00  0.00    +0.179 C 
ATOM     24  C   UNL     1     -39.979  32.152   0.750  0.00  0.00    +0.005 C 
ATOM     25  C   UNL     1     -41.507  26.622   2.475  0.00  0.00    +0.040 C 
ATOM     26  C   UNL     1     -40.765  25.899   0.289  0.00  0.00    +0.003 C 
ATOM     27  C   UNL     1     -41.612  30.296   0.278  0.00  0.00    +0.041 C 
ATOM     28  C   UNL     1     -41.672  26.775  -0.311  0.00  0.00    +0.041 C 
ATOM     29  C   UNL     1     -42.356  32.588   0.178  0.00  0.00    +0.003 C 
ATOM     30  C   UNL     1     -43.924  30.788  -0.231  0.00  0.00    +0.168 C 
ATOM     31  C   UNL     1     -43.646  32.151  -0.133  0.00  0.00    +0.040 C 
ATOM     32  H   UNL     1     -33.551  28.653   3.521  0.00  0.00    -0.085 HD
ATOM     33  H   UNL     1     -35.064  28.938   4.180  0.00  0.00    -0.085 HD
ATOM     34  H   UNL     1     -37.392  25.991   5.176  0.00  0.00    +0.150 HD
ATOM     35  H   UNL     1     -36.698  30.426  -0.053  0.00  0.00    +0.150 HD
ENDROOT
BRANCH  22  36
ATOM     36  O   UNL     1     -43.227  28.253   2.671  0.00  0.00    -0.468 OA
ATOM     37  C   UNL     1     -42.785  28.501   4.004  0.00  0.00    +0.253 C 
ENDBRANCH  22  36
BRANCH  30  38
ATOM     38  O   UNL     1     -45.192  30.388  -0.531  0.00  0.00    -0.503 OA
ATOM     39  H   UNL     1     -45.582  29.677  -0.062  0.00  0.00    +0.292 HD
ENDBRANCH  30  38
TORSDOF 2
ENDMDL
MODEL 8
REMARK VINA RESULT:      -6.3      3.435      6.143
REMARK  Name = 5281820
REMARK  2 active torsions:
REMARK  status: ('A' for Active; 'I' for Inactive)
REMARK    1  A    between atoms: C_22  and  O_36
REMARK    2  A    between atoms: C_30  and  O_38
REMARK                            x       y       z     vdW  Elec       q    Type
REMARK                         _______ _______ _______ _____ _____    ______ ____
ROOT
ATOM      1  O   UNL     1     -36.610  26.259   3.067  0.00  0.00    -0.447 OA
ATOM      2  O   UNL     1     -28.939  25.623  -0.447  0.00  0.00    -0.270 OA
ATOM      3  O   UNL     1     -36.167  19.093   0.591  0.00  0.00    -0.270 OA
ATOM      4  N   UNL     1     -30.869  20.073  -1.090  0.00  0.00    +0.384 N 
ATOM      5  N   UNL     1     -29.943  24.320  -2.093  0.00  0.00    -0.301 N 
ATOM      6  N   UNL     1     -34.173  19.488   1.718  0.00  0.00    -0.301 N 
ATOM      7  C   UNL     1     -29.087  21.371  -2.182  0.00  0.00    -0.022 C 
ATOM      8  C   UNL     1     -29.974  21.224  -0.940  0.00  0.00    -0.082 C 
ATOM      9  C   UNL     1     -28.157  22.592  -2.109  0.00  0.00    +0.019 C 
ATOM     10  C   UNL     1     -31.640  19.850   0.134  0.00  0.00    -0.080 C 
ATOM     11  C   UNL     1     -32.657  18.723  -0.085  0.00  0.00    -0.002 C 
ATOM     12  C   UNL     1     -28.736  23.857  -2.746  0.00  0.00    +0.090 C 
ATOM     13  C   UNL     1     -33.417  18.364   1.195  0.00  0.00    +0.088 C 
ATOM     14  C   UNL     1     -29.935  25.143  -0.978  0.00  0.00    +0.246 C 
ATOM     15  C   UNL     1     -35.476  19.769   1.345  0.00  0.00    +0.246 C 
ATOM     16  C   UNL     1     -31.312  25.366  -0.460  0.00  0.00    +0.058 C 
ATOM     17  C   UNL     1     -32.852  26.214   1.267  0.00  0.00    +0.003 C 
ATOM     18  C   UNL     1     -35.957  21.038   1.958  0.00  0.00    +0.058 C 
ATOM     19  C   UNL     1     -31.516  26.062   0.668  0.00  0.00    +0.005 C 
ATOM     20  C   UNL     1     -37.699  22.791   2.202  0.00  0.00    +0.003 C 
ATOM     21  C   UNL     1     -35.374  26.307   2.467  0.00  0.00    +0.179 C 
ATOM     22  C   UNL     1     -35.260  26.487   1.088  0.00  0.00    +0.173 C 
ATOM     23  C   UNL     1     -37.375  25.130   2.833  0.00  0.00    +0.179 C 
ATOM     24  C   UNL     1     -37.185  21.507   1.693  0.00  0.00    +0.005 C 
ATOM     25  C   UNL     1     -34.000  26.436   0.491  0.00  0.00    +0.040 C 
ATOM     26  C   UNL     1     -32.979  26.123   2.662  0.00  0.00    +0.003 C 
ATOM     27  C   UNL     1     -36.856  23.894   2.418  0.00  0.00    +0.041 C 
ATOM     28  C   UNL     1     -34.239  26.172   3.263  0.00  0.00    +0.041 C 
ATOM     29  C   UNL     1     -39.075  22.950   2.407  0.00  0.00    +0.003 C 
ATOM     30  C   UNL     1     -38.745  25.259   3.062  0.00  0.00    +0.168 C 
ATOM     31  C   UNL     1     -39.592  24.172   2.845  0.00  0.00    +0.040 C 
ATOM     32  H   UNL     1     -30.313  19.243  -1.292  0.00  0.00    -0.085 HD
ATOM     33  H   UNL     1     -31.517  20.263  -1.855  0.00  0.00    -0.085 HD
ATOM     34  H   UNL     1     -30.811  24.036  -2.458  0.00  0.00    +0.150 HD
ATOM     35  H   UNL     1     -33.736  20.082   2.371  0.00  0.00    +0.150 HD
ENDROOT
BRANCH  22  36
ATOM     36  O   UNL     1     -36.357  26.688   0.307  0.00  0.00    -0.468 OA
ATOM     37  C   UNL     1     -36.533  25.810  -0.803  0.00  0.00    +0.253 C 
ENDBRANCH  22  36
BRANCH  30  38
ATOM     38  O   UNL     1     -39.276  26.441   3.484  0.00  0.00    -0.503 OA
ATOM     39  H   UNL     1     -38.795  27.237   3.372  0.00  0.00    +0.292 HD
ENDBRANCH  30  38
TORSDOF 2
ENDMDL
MODEL 9
REMARK VINA RESULT:      -6.2      3.877      6.130
REMARK  Name = 5281820
REMARK  2 active torsions:
REMARK  status: ('A' for Active; 'I' for Inactive)
REMARK    1  A    between atoms: C_22  and  O_36
REMARK    2  A    between atoms: C_30  and  O_38
REMARK                            x       y       z     vdW  Elec       q    Type
REMARK                         _______ _______ _______ _____ _____    ______ ____
ROOT
ATOM      1  O   UNL     1     -33.513  18.041  -1.615  0.00  0.00    -0.447 OA
ATOM      2  O   UNL     1     -35.994  22.467   5.155  0.00  0.00    -0.270 OA
ATOM      3  O   UNL     1     -31.142  25.136  -2.925  0.00  0.00    -0.270 OA
ATOM      4  N   UNL     1     -33.123  26.660   2.136  0.00  0.00    +0.384 N 
ATOM      5  N   UNL     1     -36.504  24.192   3.681  0.00  0.00    -0.301 N 
ATOM      6  N   UNL     1     -30.503  24.658  -0.740  0.00  0.00    -0.301 N 
ATOM      7  C   UNL     1     -34.795  26.733   3.939  0.00  0.00    -0.022 C 
ATOM      8  C   UNL     1     -33.710  25.901   3.245  0.00  0.00    -0.082 C 
ATOM      9  C   UNL     1     -35.486  25.974   5.083  0.00  0.00    +0.019 C 
ATOM     10  C   UNL     1     -32.007  25.926   1.537  0.00  0.00    -0.080 C 
ATOM     11  C   UNL     1     -31.487  26.677   0.304  0.00  0.00    -0.002 C 
ATOM     12  C   UNL     1     -36.754  25.229   4.662  0.00  0.00    +0.090 C 
ATOM     13  C   UNL     1     -30.246  26.018  -0.301  0.00  0.00    +0.088 C 
ATOM     14  C   UNL     1     -36.116  22.905   4.017  0.00  0.00    +0.246 C 
ATOM     15  C   UNL     1     -30.958  24.341  -2.010  0.00  0.00    +0.246 C 
ATOM     16  C   UNL     1     -35.826  22.093   2.804  0.00  0.00    +0.058 C 
ATOM     17  C   UNL     1     -34.952  20.050   1.740  0.00  0.00    +0.003 C 
ATOM     18  C   UNL     1     -31.236  22.884  -2.140  0.00  0.00    +0.058 C 
ATOM     19  C   UNL     1     -35.350  20.845   2.913  0.00  0.00    +0.005 C 
ATOM     20  C   UNL     1     -32.088  20.961  -3.460  0.00  0.00    +0.003 C 
ATOM     21  C   UNL     1     -34.031  18.658  -0.502  0.00  0.00    +0.179 C 
ATOM     22  C   UNL     1     -35.238  19.355  -0.571  0.00  0.00    +0.173 C 
ATOM     23  C   UNL     1     -33.006  18.863  -2.607  0.00  0.00    +0.179 C 
ATOM     24  C   UNL     1     -31.719  22.377  -3.284  0.00  0.00    +0.005 C 
ATOM     25  C   UNL     1     -35.693  20.052   0.548  0.00  0.00    +0.040 C 
ATOM     26  C   UNL     1     -33.787  19.271   1.816  0.00  0.00    +0.003 C 
ATOM     27  C   UNL     1     -32.593  20.188  -2.401  0.00  0.00    +0.041 C 
ATOM     28  C   UNL     1     -33.326  18.573   0.698  0.00  0.00    +0.041 C 
ATOM     29  C   UNL     1     -32.008  20.381  -4.733  0.00  0.00    +0.003 C 
ATOM     30  C   UNL     1     -32.890  18.294  -3.875  0.00  0.00    +0.168 C 
ATOM     31  C   UNL     1     -32.395  19.054  -4.936  0.00  0.00    +0.040 C 
ATOM     32  H   UNL     1     -32.785  27.555   2.487  0.00  0.00    -0.085 HD
ATOM     33  H   UNL     1     -33.840  26.803   1.425  0.00  0.00    -0.085 HD
ATOM     34  H   UNL     1     -36.613  24.414   2.728  0.00  0.00    +0.150 HD
ATOM     35  H   UNL     1     -30.349  23.924  -0.103  0.00  0.00    +0.150 HD
ENDROOT
BRANCH  22  36
ATOM     36  O   UNL     1     -35.970  19.389  -1.719  0.00  0.00    -0.468 OA
ATOM     37  C   UNL     1     -36.322  20.675  -2.226  0.00  0.00    +0.253 C 
ENDBRANCH  22  36
BRANCH  30  38
ATOM     38  O   UNL     1     -33.266  17.004  -4.101  0.00  0.00    -0.503 OA
ATOM     39  H   UNL     1     -34.155  16.807  -4.321  0.00  0.00    +0.292 HD
ENDBRANCH  30  38
TORSDOF 2
ENDMDL
