MODEL 1
REMARK VINA RESULT:      -6.6      0.000      0.000
REMARK  Name = 195761
REMARK  12 active torsions:
REMARK  status: ('A' for Active; 'I' for Inactive)
REMARK    1  A    between atoms: C_1  and  C_5
REMARK    2  A    between atoms: C_1  and  N_17
REMARK    3  A    between atoms: C_1  and  C_33
REMARK    4  A    between atoms: C_6  and  C_8
REMARK    5  A    between atoms: C_8  and  N_10
REMARK    6  A    between atoms: C_8  and  C_13
REMARK    7  A    between atoms: C_13  and  C_14
REMARK    8  A    between atoms: C_14  and  S_15
REMARK    9  A    between atoms: N_17  and  C_20
REMARK   10  A    between atoms: C_20  and  C_30
REMARK   11  A    between atoms: C_30  and  O_31
REMARK   12  A    between atoms: C_33  and  C_34
REMARK                            x       y       z     vdW  Elec       q    Type
REMARK                         _______ _______ _______ _____ _____    ______ ____
ROOT
ATOM      1  C   UNL     1     -35.366  21.193   1.681  0.00  0.00    +0.018 C 
ENDROOT
BRANCH   1   5
ATOM      2  O   UNL     1     -35.373  20.739   4.063  0.00  0.00    -0.277 OA
ATOM      3  O   UNL     1     -35.960  22.959   5.665  0.00  0.00    -0.273 OA
ATOM      4  N   UNL     1     -35.822  22.909   3.337  0.00  0.00    -0.256 N 
ATOM      5  C   UNL     1     -35.508  21.559   3.157  0.00  0.00    +0.208 C 
ATOM      6  C   UNL     1     -36.028  23.525   4.575  0.00  0.00    +0.246 C 
ATOM      7  H   UNL     1     -35.904  23.469   2.533  0.00  0.00    +0.157 HD
BRANCH   6   8
ATOM      8  C   UNL     1     -36.414  24.992   4.422  0.00  0.00    +0.150 C 
BRANCH   8  10
ATOM      9  O   UNL     1     -38.169  24.778   2.080  0.00  0.00    -0.265 OA
ATOM     10  N   UNL     1     -37.853  25.052   4.382  0.00  0.00    -0.291 N 
ATOM     11  C   UNL     1     -38.587  24.940   3.220  0.00  0.00    +0.300 C 
ATOM     12  H   UNL     1     -38.338  25.180   5.229  0.00  0.00    +0.150 HD
ENDBRANCH   8  10
BRANCH   8  13
ATOM     13  C   UNL     1     -35.830  25.824   5.569  0.00  0.00    +0.041 C 
BRANCH  13  14
ATOM     14  C   UNL     1     -34.370  26.195   5.320  0.00  0.00    +0.060 C 
BRANCH  14  15
ATOM     15  S   UNL     1     -34.188  27.025   3.715  0.00  0.00    -0.139 S 
ATOM     16  C   UNL     1     -33.136  25.799   2.904  0.00  0.00    +0.069 C 
ENDBRANCH  14  15
ENDBRANCH  13  14
ENDBRANCH   8  13
ENDBRANCH   6   8
ENDBRANCH   1   5
BRANCH   1  17
ATOM     17  N   UNL     1     -35.180  19.744   1.641  0.00  0.00    +0.400 N 
ATOM     18  H   UNL     1     -34.980  19.407   2.582  0.00  0.00    -0.083 HD
ATOM     19  H   UNL     1     -36.034  19.314   1.284  0.00  0.00    -0.083 HD
BRANCH  17  20
ATOM     20  C   UNL     1     -34.075  19.389   0.760  0.00  0.00    +0.055 C 
ATOM     21  C   UNL     1     -33.087  18.400   1.421  0.00  0.00    +0.017 C 
ATOM     22  C   UNL     1     -33.251  20.628   0.339  0.00  0.00    +0.017 C 
ATOM     23  C   UNL     1     -31.800  18.771   0.746  0.00  0.00    -0.028 C 
ATOM     24  C   UNL     1     -31.892  20.027   0.136  0.00  0.00    -0.028 C 
ATOM     25  C   UNL     1     -30.618  18.049   0.719  0.00  0.00    -0.005 C 
ATOM     26  C   UNL     1     -30.805  20.587  -0.513  0.00  0.00    -0.005 C 
ATOM     27  C   UNL     1     -29.520  18.601   0.056  0.00  0.00    -0.000 C 
ATOM     28  C   UNL     1     -29.612  19.861  -0.556  0.00  0.00    -0.000 C 
BRANCH  20  30
ATOM     29  O   UNL     1     -34.985  19.364  -1.480  0.00  0.00    -0.252 OA
ATOM     30  C   UNL     1     -34.728  18.760  -0.447  0.00  0.00    +0.299 C 
BRANCH  30  31
ATOM     31  O   UNL     1     -34.974  17.443  -0.198  0.00  0.00    -0.446 OA
ATOM     32  C   UNL     1     -36.285  16.985  -0.544  0.00  0.00    +0.256 C 
ENDBRANCH  30  31
ENDBRANCH  20  30
ENDBRANCH  17  20
ENDBRANCH   1  17
BRANCH   1  33
ATOM     33  C   UNL     1     -36.600  21.639   0.877  0.00  0.00    -0.012 C 
BRANCH  33  34
ATOM     34  C   UNL     1     -37.849  20.744   1.017  0.00  0.00    -0.002 C 
ATOM     35  C   UNL     1     -38.298  20.266  -0.367  0.00  0.00    -0.000 C 
ATOM     36  C   UNL     1     -39.006  21.458   1.716  0.00  0.00    -0.000 C 
ENDBRANCH  33  34
ENDBRANCH   1  33
TORSDOF 12
ENDMDL
MODEL 2
REMARK VINA RESULT:      -6.4      2.283      3.806
REMARK  Name = 195761
REMARK  12 active torsions:
REMARK  status: ('A' for Active; 'I' for Inactive)
REMARK    1  A    between atoms: C_1  and  C_5
REMARK    2  A    between atoms: C_1  and  N_17
REMARK    3  A    between atoms: C_1  and  C_33
REMARK    4  A    between atoms: C_6  and  C_8
REMARK    5  A    between atoms: C_8  and  N_10
REMARK    6  A    between atoms: C_8  and  C_13
REMARK    7  A    between atoms: C_13  and  C_14
REMARK    8  A    between atoms: C_14  and  S_15
REMARK    9  A    between atoms: N_17  and  C_20
REMARK   10  A    between atoms: C_20  and  C_30
REMARK   11  A    between atoms: C_30  and  O_31
REMARK   12  A    between atoms: C_33  and  C_34
REMARK                            x       y       z     vdW  Elec       q    Type
REMARK                         _______ _______ _______ _____ _____    ______ ____
ROOT
ATOM      1  C   UNL     1     -37.957  21.476   1.206  0.00  0.00    +0.018 C 
ENDROOT
BRANCH   1   5
ATOM      2  O   UNL     1     -40.067  22.255   2.113  0.00  0.00    -0.277 OA
ATOM      3  O   UNL     1     -39.886  24.617   3.604  0.00  0.00    -0.273 OA
ATOM      4  N   UNL     1     -38.136  23.484   2.559  0.00  0.00    -0.256 N 
ATOM      5  C   UNL     1     -38.854  22.422   2.002  0.00  0.00    +0.208 C 
ATOM      6  C   UNL     1     -38.694  24.513   3.322  0.00  0.00    +0.246 C 
ATOM      7  H   UNL     1     -37.166  23.510   2.401  0.00  0.00    +0.157 HD
BRANCH   6   8
ATOM      8  C   UNL     1     -37.649  25.549   3.727  0.00  0.00    +0.150 C 
BRANCH   8  10
ATOM      9  O   UNL     1     -35.444  26.779   5.219  0.00  0.00    -0.265 OA
ATOM     10  N   UNL     1     -36.885  24.983   4.809  0.00  0.00    -0.291 N 
ATOM     11  C   UNL     1     -35.861  25.650   5.447  0.00  0.00    +0.300 C 
ATOM     12  H   UNL     1     -37.105  24.072   5.109  0.00  0.00    +0.150 HD
ENDBRANCH   8  10
BRANCH   8  13
ATOM     13  C   UNL     1     -36.770  25.921   2.528  0.00  0.00    +0.041 C 
BRANCH  13  14
ATOM     14  C   UNL     1     -37.471  26.897   1.585  0.00  0.00    +0.060 C 
BRANCH  14  15
ATOM     15  S   UNL     1     -36.363  28.267   1.148  0.00  0.00    -0.139 S 
ATOM     16  C   UNL     1     -34.991  27.294   0.487  0.00  0.00    +0.069 C 
ENDBRANCH  14  15
ENDBRANCH  13  14
ENDBRANCH   8  13
ENDBRANCH   6   8
ENDBRANCH   1   5
BRANCH   1  17
ATOM     17  N   UNL     1     -37.172  20.736   2.193  0.00  0.00    +0.400 N 
ATOM     18  H   UNL     1     -37.472  21.009   3.129  0.00  0.00    -0.083 HD
ATOM     19  H   UNL     1     -37.324  19.737   2.049  0.00  0.00    -0.083 HD
BRANCH  17  20
ATOM     20  C   UNL     1     -35.751  21.021   2.042  0.00  0.00    +0.055 C 
ATOM     21  C   UNL     1     -35.454  21.903   0.808  0.00  0.00    +0.017 C 
ATOM     22  C   UNL     1     -34.918  19.729   1.877  0.00  0.00    +0.017 C 
ATOM     23  C   UNL     1     -34.075  21.444   0.440  0.00  0.00    -0.028 C 
ATOM     24  C   UNL     1     -33.772  20.218   1.042  0.00  0.00    -0.028 C 
ATOM     25  C   UNL     1     -33.173  22.064  -0.409  0.00  0.00    -0.005 C 
ATOM     26  C   UNL     1     -32.563  19.586   0.808  0.00  0.00    -0.005 C 
ATOM     27  C   UNL     1     -31.945  21.440  -0.642  0.00  0.00    -0.000 C 
ATOM     28  C   UNL     1     -31.642  20.210  -0.038  0.00  0.00    -0.000 C 
BRANCH  20  30
ATOM     29  O   UNL     1     -35.184  22.944   3.392  0.00  0.00    -0.252 OA
ATOM     30  C   UNL     1     -35.362  21.736   3.313  0.00  0.00    +0.299 C 
BRANCH  30  31
ATOM     31  O   UNL     1     -35.248  20.834   4.328  0.00  0.00    -0.446 OA
ATOM     32  C   UNL     1     -35.170  21.393   5.643  0.00  0.00    +0.256 C 
ENDBRANCH  30  31
ENDBRANCH  20  30
ENDBRANCH  17  20
ENDBRANCH   1  17
BRANCH   1  33
ATOM     33  C   UNL     1     -38.791  20.540   0.313  0.00  0.00    -0.012 C 
BRANCH  33  34
ATOM     34  C   UNL     1     -38.330  20.432  -1.156  0.00  0.00    -0.002 C 
ATOM     35  C   UNL     1     -37.145  19.468  -1.255  0.00  0.00    -0.000 C 
ATOM     36  C   UNL     1     -37.943  21.787  -1.750  0.00  0.00    -0.000 C 
ENDBRANCH  33  34
ENDBRANCH   1  33
TORSDOF 12
ENDMDL
MODEL 3
REMARK VINA RESULT:      -6.3      2.017      3.242
REMARK  Name = 195761
REMARK  12 active torsions:
REMARK  status: ('A' for Active; 'I' for Inactive)
REMARK    1  A    between atoms: C_1  and  C_5
REMARK    2  A    between atoms: C_1  and  N_17
REMARK    3  A    between atoms: C_1  and  C_33
REMARK    4  A    between atoms: C_6  and  C_8
REMARK    5  A    between atoms: C_8  and  N_10
REMARK    6  A    between atoms: C_8  and  C_13
REMARK    7  A    between atoms: C_13  and  C_14
REMARK    8  A    between atoms: C_14  and  S_15
REMARK    9  A    between atoms: N_17  and  C_20
REMARK   10  A    between atoms: C_20  and  C_30
REMARK   11  A    between atoms: C_30  and  O_31
REMARK   12  A    between atoms: C_33  and  C_34
REMARK                            x       y       z     vdW  Elec       q    Type
REMARK                         _______ _______ _______ _____ _____    ______ ____
ROOT
ATOM      1  C   UNL     1     -35.953  21.971   2.306  0.00  0.00    +0.018 C 
ENDROOT
BRANCH   1   5
ATOM      2  O   UNL     1     -38.217  21.138   2.060  0.00  0.00    -0.277 OA
ATOM      3  O   UNL     1     -40.203  23.100   2.263  0.00  0.00    -0.273 OA
ATOM      4  N   UNL     1     -37.900  23.415   2.448  0.00  0.00    -0.256 N 
ATOM      5  C   UNL     1     -37.474  22.097   2.259  0.00  0.00    +0.208 C 
ATOM      6  C   UNL     1     -39.233  23.835   2.438  0.00  0.00    +0.246 C 
ATOM      7  H   UNL     1     -37.209  24.099   2.599  0.00  0.00    +0.157 HD
BRANCH   6   8
ATOM      8  C   UNL     1     -39.353  25.345   2.612  0.00  0.00    +0.150 C 
BRANCH   8  10
ATOM      9  O   UNL     1     -41.513  27.330   2.648  0.00  0.00    -0.265 OA
ATOM     10  N   UNL     1     -40.327  25.579   3.647  0.00  0.00    -0.291 N 
ATOM     11  C   UNL     1     -41.308  26.545   3.565  0.00  0.00    +0.300 C 
ATOM     12  H   UNL     1     -40.290  25.020   4.457  0.00  0.00    +0.150 HD
ENDBRANCH   8  10
BRANCH   8  13
ATOM     13  C   UNL     1     -37.989  25.957   2.949  0.00  0.00    +0.041 C 
BRANCH  13  14
ATOM     14  C   UNL     1     -37.453  26.824   1.811  0.00  0.00    +0.060 C 
BRANCH  14  15
ATOM     15  S   UNL     1     -35.665  26.578   1.612  0.00  0.00    -0.139 S 
ATOM     16  C   UNL     1     -35.161  26.930   3.311  0.00  0.00    +0.069 C 
ENDBRANCH  14  15
ENDBRANCH  13  14
ENDBRANCH   8  13
ENDBRANCH   6   8
ENDBRANCH   1   5
BRANCH   1  17
ATOM     17  N   UNL     1     -35.483  22.245   0.949  0.00  0.00    +0.400 N 
ATOM     18  H   UNL     1     -36.288  22.392   0.341  0.00  0.00    -0.083 HD
ATOM     19  H   UNL     1     -34.895  23.079   0.969  0.00  0.00    -0.083 HD
BRANCH  17  20
ATOM     20  C   UNL     1     -34.695  21.129   0.440  0.00  0.00    +0.055 C 
ATOM     21  C   UNL     1     -34.543  19.992   1.477  0.00  0.00    +0.017 C 
ATOM     22  C   UNL     1     -33.266  21.565   0.044  0.00  0.00    +0.017 C 
ATOM     23  C   UNL     1     -33.213  19.417   1.093  0.00  0.00    -0.028 C 
ATOM     24  C   UNL     1     -32.492  20.303   0.285  0.00  0.00    -0.028 C 
ATOM     25  C   UNL     1     -32.672  18.201   1.478  0.00  0.00    -0.005 C 
ATOM     26  C   UNL     1     -31.217  19.993  -0.154  0.00  0.00    -0.005 C 
ATOM     27  C   UNL     1     -31.390  17.874   1.029  0.00  0.00    -0.000 C 
ATOM     28  C   UNL     1     -30.667  18.763   0.218  0.00  0.00    -0.000 C 
BRANCH  20  30
ATOM     29  O   UNL     1     -35.274  21.071  -1.907  0.00  0.00    -0.252 OA
ATOM     30  C   UNL     1     -35.450  20.644  -0.774  0.00  0.00    +0.299 C 
BRANCH  30  31
ATOM     31  O   UNL     1     -36.335  19.675  -0.403  0.00  0.00    -0.446 OA
ATOM     32  C   UNL     1     -37.589  19.691  -1.093  0.00  0.00    +0.256 C 
ENDBRANCH  30  31
ENDBRANCH  20  30
ENDBRANCH  17  20
ENDBRANCH   1  17
BRANCH   1  33
ATOM     33  C   UNL     1     -35.346  22.941   3.334  0.00  0.00    -0.012 C 
BRANCH  33  34
ATOM     34  C   UNL     1     -35.780  22.721   4.799  0.00  0.00    -0.002 C 
ATOM     35  C   UNL     1     -35.570  24.011   5.597  0.00  0.00    -0.000 C 
ATOM     36  C   UNL     1     -35.023  21.573   5.467  0.00  0.00    -0.000 C 
ENDBRANCH  33  34
ENDBRANCH   1  33
TORSDOF 12
ENDMDL
MODEL 4
REMARK VINA RESULT:      -6.2      1.521      2.411
REMARK  Name = 195761
REMARK  12 active torsions:
REMARK  status: ('A' for Active; 'I' for Inactive)
REMARK    1  A    between atoms: C_1  and  C_5
REMARK    2  A    between atoms: C_1  and  N_17
REMARK    3  A    between atoms: C_1  and  C_33
REMARK    4  A    between atoms: C_6  and  C_8
REMARK    5  A    between atoms: C_8  and  N_10
REMARK    6  A    between atoms: C_8  and  C_13
REMARK    7  A    between atoms: C_13  and  C_14
REMARK    8  A    between atoms: C_14  and  S_15
REMARK    9  A    between atoms: N_17  and  C_20
REMARK   10  A    between atoms: C_20  and  C_30
REMARK   11  A    between atoms: C_30  and  O_31
REMARK   12  A    between atoms: C_33  and  C_34
REMARK                            x       y       z     vdW  Elec       q    Type
REMARK                         _______ _______ _______ _____ _____    ______ ____
ROOT
ATOM      1  C   UNL     1     -35.329  21.262   1.905  0.00  0.00    +0.018 C 
ENDROOT
BRANCH   1   5
ATOM      2  O   UNL     1     -35.291  20.732   4.271  0.00  0.00    -0.277 OA
ATOM      3  O   UNL     1     -35.820  22.906   5.955  0.00  0.00    -0.273 OA
ATOM      4  N   UNL     1     -35.731  22.929   3.625  0.00  0.00    -0.256 N 
ATOM      5  C   UNL     1     -35.436  21.582   3.395  0.00  0.00    +0.208 C 
ATOM      6  C   UNL     1     -35.904  23.506   4.886  0.00  0.00    +0.246 C 
ATOM      7  H   UNL     1     -35.823  23.515   2.840  0.00  0.00    +0.157 HD
BRANCH   6   8
ATOM      8  C   UNL     1     -36.277  24.982   4.787  0.00  0.00    +0.150 C 
BRANCH   8  10
ATOM      9  O   UNL     1     -34.118  26.396   6.181  0.00  0.00    -0.265 OA
ATOM     10  N   UNL     1     -35.150  25.669   4.212  0.00  0.00    -0.291 N 
ATOM     11  C   UNL     1     -34.184  26.307   4.962  0.00  0.00    +0.300 C 
ATOM     12  H   UNL     1     -35.064  25.685   3.231  0.00  0.00    +0.150 HD
ENDBRANCH   8  10
BRANCH   8  13
ATOM     13  C   UNL     1     -37.552  25.159   3.954  0.00  0.00    +0.041 C 
BRANCH  13  14
ATOM     14  C   UNL     1     -37.328  26.079   2.755  0.00  0.00    +0.060 C 
BRANCH  14  15
ATOM     15  S   UNL     1     -38.757  26.024   1.635  0.00  0.00    -0.139 S 
ATOM     16  C   UNL     1     -40.048  25.755   2.871  0.00  0.00    +0.069 C 
ENDBRANCH  14  15
ENDBRANCH  13  14
ENDBRANCH   8  13
ENDBRANCH   6   8
ENDBRANCH   1   5
BRANCH   1  17
ATOM     17  N   UNL     1     -35.214  19.808   1.812  0.00  0.00    +0.400 N 
ATOM     18  H   UNL     1     -35.009  19.430   2.737  0.00  0.00    -0.083 HD
ATOM     19  H   UNL     1     -36.095  19.431   1.462  0.00  0.00    -0.083 HD
BRANCH  17  20
ATOM     20  C   UNL     1     -34.147  19.432   0.893  0.00  0.00    +0.055 C 
ATOM     21  C   UNL     1     -33.129  18.461   1.535  0.00  0.00    +0.017 C 
ATOM     22  C   UNL     1     -33.345  20.661   0.406  0.00  0.00    +0.017 C 
ATOM     23  C   UNL     1     -31.874  18.816   0.796  0.00  0.00    -0.028 C 
ATOM     24  C   UNL     1     -31.995  20.056   0.159  0.00  0.00    -0.028 C 
ATOM     25  C   UNL     1     -30.693  18.095   0.736  0.00  0.00    -0.005 C 
ATOM     26  C   UNL     1     -30.938  20.601  -0.550  0.00  0.00    -0.005 C 
ATOM     27  C   UNL     1     -29.626  18.631   0.011  0.00  0.00    -0.000 C 
ATOM     28  C   UNL     1     -29.747  19.875  -0.627  0.00  0.00    -0.000 C 
BRANCH  20  30
ATOM     29  O   UNL     1     -35.176  17.593  -0.291  0.00  0.00    -0.252 OA
ATOM     30  C   UNL     1     -34.851  18.772  -0.268  0.00  0.00    +0.299 C 
BRANCH  30  31
ATOM     31  O   UNL     1     -35.057  19.687  -1.256  0.00  0.00    -0.446 OA
ATOM     32  C   UNL     1     -35.020  19.172  -2.591  0.00  0.00    +0.256 C 
ENDBRANCH  30  31
ENDBRANCH  20  30
ENDBRANCH  17  20
ENDBRANCH   1  17
BRANCH   1  33
ATOM     33  C   UNL     1     -36.549  21.795   1.134  0.00  0.00    -0.012 C 
BRANCH  33  34
ATOM     34  C   UNL     1     -37.867  21.022   1.352  0.00  0.00    -0.002 C 
ATOM     35  C   UNL     1     -38.342  20.429   0.022  0.00  0.00    -0.000 C 
ATOM     36  C   UNL     1     -38.969  21.900   1.947  0.00  0.00    -0.000 C 
ENDBRANCH  33  34
ENDBRANCH   1  33
TORSDOF 12
ENDMDL
MODEL 5
REMARK VINA RESULT:      -5.8      2.836      4.626
REMARK  Name = 195761
REMARK  12 active torsions:
REMARK  status: ('A' for Active; 'I' for Inactive)
REMARK    1  A    between atoms: C_1  and  C_5
REMARK    2  A    between atoms: C_1  and  N_17
REMARK    3  A    between atoms: C_1  and  C_33
REMARK    4  A    between atoms: C_6  and  C_8
REMARK    5  A    between atoms: C_8  and  N_10
REMARK    6  A    between atoms: C_8  and  C_13
REMARK    7  A    between atoms: C_13  and  C_14
REMARK    8  A    between atoms: C_14  and  S_15
REMARK    9  A    between atoms: N_17  and  C_20
REMARK   10  A    between atoms: C_20  and  C_30
REMARK   11  A    between atoms: C_30  and  O_31
REMARK   12  A    between atoms: C_33  and  C_34
REMARK                            x       y       z     vdW  Elec       q    Type
REMARK                         _______ _______ _______ _____ _____    ______ ____
ROOT
ATOM      1  C   UNL     1     -36.773  22.205   2.656  0.00  0.00    +0.018 C 
ENDROOT
BRANCH   1   5
ATOM      2  O   UNL     1     -38.929  21.357   1.938  0.00  0.00    -0.277 OA
ATOM      3  O   UNL     1     -40.883  23.327   1.567  0.00  0.00    -0.273 OA
ATOM      4  N   UNL     1     -38.682  23.653   2.263  0.00  0.00    -0.256 N 
ATOM      5  C   UNL     1     -38.240  22.327   2.251  0.00  0.00    +0.208 C 
ATOM      6  C   UNL     1     -39.971  24.071   1.922  0.00  0.00    +0.246 C 
ATOM      7  H   UNL     1     -38.037  24.345   2.533  0.00  0.00    +0.157 HD
BRANCH   6   8
ATOM      8  C   UNL     1     -40.110  25.588   1.980  0.00  0.00    +0.150 C 
BRANCH   8  10
ATOM      9  O   UNL     1     -37.820  27.376   1.575  0.00  0.00    -0.265 OA
ATOM     10  N   UNL     1     -39.600  26.111   0.739  0.00  0.00    -0.291 N 
ATOM     11  C   UNL     1     -38.509  26.951   0.657  0.00  0.00    +0.300 C 
ATOM     12  H   UNL     1     -40.054  25.855  -0.096  0.00  0.00    +0.150 HD
ENDBRANCH   8  10
BRANCH   8  13
ATOM     13  C   UNL     1     -41.571  25.986   2.221  0.00  0.00    +0.041 C 
BRANCH  13  14
ATOM     14  C   UNL     1     -41.762  26.667   3.575  0.00  0.00    +0.060 C 
BRANCH  14  15
ATOM     15  S   UNL     1     -43.523  26.987   3.882  0.00  0.00    -0.139 S 
ATOM     16  C   UNL     1     -44.200  26.145   2.433  0.00  0.00    +0.069 C 
ENDBRANCH  14  15
ENDBRANCH  13  14
ENDBRANCH   8  13
ENDBRANCH   6   8
ENDBRANCH   1   5
BRANCH   1  17
ATOM     17  N   UNL     1     -35.997  22.682   1.512  0.00  0.00    +0.400 N 
ATOM     18  H   UNL     1     -36.630  23.104   0.833  0.00  0.00    -0.083 HD
ATOM     19  H   UNL     1     -35.319  23.370   1.841  0.00  0.00    -0.083 HD
BRANCH  17  20
ATOM     20  C   UNL     1     -35.279  21.582   0.880  0.00  0.00    +0.055 C 
ATOM     21  C   UNL     1     -35.080  20.382   1.834  0.00  0.00    +0.017 C 
ATOM     22  C   UNL     1     -33.872  22.010   0.403  0.00  0.00    +0.017 C 
ATOM     23  C   UNL     1     -33.798  19.802   1.317  0.00  0.00    -0.028 C 
ATOM     24  C   UNL     1     -33.116  20.720   0.511  0.00  0.00    -0.028 C 
ATOM     25  C   UNL     1     -33.262  18.554   1.588  0.00  0.00    -0.005 C 
ATOM     26  C   UNL     1     -31.885  20.409  -0.041  0.00  0.00    -0.005 C 
ATOM     27  C   UNL     1     -32.026  18.227   1.024  0.00  0.00    -0.000 C 
ATOM     28  C   UNL     1     -31.342  19.148   0.216  0.00  0.00    -0.000 C 
BRANCH  20  30
ATOM     29  O   UNL     1     -36.290  21.883  -1.295  0.00  0.00    -0.252 OA
ATOM     30  C   UNL     1     -36.134  21.188  -0.300  0.00  0.00    +0.299 C 
BRANCH  30  31
ATOM     31  O   UNL     1     -36.686  19.963  -0.074  0.00  0.00    -0.446 OA
ATOM     32  C   UNL     1     -37.796  19.624  -0.912  0.00  0.00    +0.256 C 
ENDBRANCH  30  31
ENDBRANCH  20  30
ENDBRANCH  17  20
ENDBRANCH   1  17
BRANCH   1  33
ATOM     33  C   UNL     1     -36.479  23.014   3.931  0.00  0.00    -0.012 C 
BRANCH  33  34
ATOM     34  C   UNL     1     -35.109  22.749   4.590  0.00  0.00    -0.002 C 
ATOM     35  C   UNL     1     -35.299  21.903   5.852  0.00  0.00    -0.000 C 
ATOM     36  C   UNL     1     -34.369  24.041   4.942  0.00  0.00    -0.000 C 
ENDBRANCH  33  34
ENDBRANCH   1  33
TORSDOF 12
ENDMDL
MODEL 6
REMARK VINA RESULT:      -5.8      3.262      5.600
REMARK  Name = 195761
REMARK  12 active torsions:
REMARK  status: ('A' for Active; 'I' for Inactive)
REMARK    1  A    between atoms: C_1  and  C_5
REMARK    2  A    between atoms: C_1  and  N_17
REMARK    3  A    between atoms: C_1  and  C_33
REMARK    4  A    between atoms: C_6  and  C_8
REMARK    5  A    between atoms: C_8  and  N_10
REMARK    6  A    between atoms: C_8  and  C_13
REMARK    7  A    between atoms: C_13  and  C_14
REMARK    8  A    between atoms: C_14  and  S_15
REMARK    9  A    between atoms: N_17  and  C_20
REMARK   10  A    between atoms: C_20  and  C_30
REMARK   11  A    between atoms: C_30  and  O_31
REMARK   12  A    between atoms: C_33  and  C_34
REMARK                            x       y       z     vdW  Elec       q    Type
REMARK                         _______ _______ _______ _____ _____    ______ ____
ROOT
ATOM      1  C   UNL     1     -37.273  25.418   2.014  0.00  0.00    +0.018 C 
ENDROOT
BRANCH   1   5
ATOM      2  O   UNL     1     -37.225  27.814   1.643  0.00  0.00    -0.277 OA
ATOM      3  O   UNL     1     -35.005  29.114   2.747  0.00  0.00    -0.273 OA
ATOM      4  N   UNL     1     -35.492  26.836   2.858  0.00  0.00    -0.256 N 
ATOM      5  C   UNL     1     -36.690  26.824   2.140  0.00  0.00    +0.208 C 
ATOM      6  C   UNL     1     -34.725  27.976   3.117  0.00  0.00    +0.246 C 
ATOM      7  H   UNL     1     -35.162  25.978   3.208  0.00  0.00    +0.157 HD
BRANCH   6   8
ATOM      8  C   UNL     1     -33.444  27.638   3.872  0.00  0.00    +0.150 C 
BRANCH   8  10
ATOM      9  O   UNL     1     -31.930  27.474   6.379  0.00  0.00    -0.265 OA
ATOM     10  N   UNL     1     -33.831  26.997   5.102  0.00  0.00    -0.291 N 
ATOM     11  C   UNL     1     -33.040  26.977   6.232  0.00  0.00    +0.300 C 
ATOM     12  H   UNL     1     -34.707  26.549   5.139  0.00  0.00    +0.150 HD
ENDBRANCH   8  10
BRANCH   8  13
ATOM     13  C   UNL     1     -32.534  26.749   3.016  0.00  0.00    +0.041 C 
BRANCH  13  14
ATOM     14  C   UNL     1     -31.176  27.399   2.759  0.00  0.00    +0.060 C 
BRANCH  14  15
ATOM     15  S   UNL     1     -31.211  29.152   3.232  0.00  0.00    -0.139 S 
ATOM     16  C   UNL     1     -29.684  29.194   4.198  0.00  0.00    +0.069 C 
ENDBRANCH  14  15
ENDBRANCH  13  14
ENDBRANCH   8  13
ENDBRANCH   6   8
ENDBRANCH   1   5
BRANCH   1  17
ATOM     17  N   UNL     1     -37.059  24.775   3.310  0.00  0.00    +0.400 N 
ATOM     18  H   UNL     1     -36.633  25.446   3.948  0.00  0.00    -0.083 HD
ATOM     19  H   UNL     1     -37.961  24.464   3.673  0.00  0.00    -0.083 HD
BRANCH  17  20
ATOM     20  C   UNL     1     -36.184  23.618   3.175  0.00  0.00    +0.055 C 
ATOM     21  C   UNL     1     -35.226  23.740   1.968  0.00  0.00    +0.017 C 
ATOM     22  C   UNL     1     -36.984  22.309   2.979  0.00  0.00    +0.017 C 
ATOM     23  C   UNL     1     -35.033  22.300   1.595  0.00  0.00    -0.028 C 
ATOM     24  C   UNL     1     -36.024  21.493   2.165  0.00  0.00    -0.028 C 
ATOM     25  C   UNL     1     -34.061  21.761   0.769  0.00  0.00    -0.005 C 
ATOM     26  C   UNL     1     -36.064  20.131   1.920  0.00  0.00    -0.005 C 
ATOM     27  C   UNL     1     -34.086  20.386   0.526  0.00  0.00    -0.000 C 
ATOM     28  C   UNL     1     -35.081  19.576   1.098  0.00  0.00    -0.000 C 
BRANCH  20  30
ATOM     29  O   UNL     1     -34.328  24.120   4.640  0.00  0.00    -0.252 OA
ATOM     30  C   UNL     1     -35.406  23.568   4.468  0.00  0.00    +0.299 C 
BRANCH  30  31
ATOM     31  O   UNL     1     -36.091  22.826   5.384  0.00  0.00    -0.446 OA
ATOM     32  C   UNL     1     -35.283  22.127   6.337  0.00  0.00    +0.256 C 
ENDBRANCH  30  31
ENDBRANCH  20  30
ENDBRANCH  17  20
ENDBRANCH   1  17
BRANCH   1  33
ATOM     33  C   UNL     1     -38.762  25.465   1.632  0.00  0.00    -0.012 C 
BRANCH  33  34
ATOM     34  C   UNL     1     -39.214  24.436   0.575  0.00  0.00    -0.002 C 
ATOM     35  C   UNL     1     -39.946  23.279   1.262  0.00  0.00    -0.000 C 
ATOM     36  C   UNL     1     -38.047  23.890  -0.248  0.00  0.00    -0.000 C 
ENDBRANCH  33  34
ENDBRANCH   1  33
TORSDOF 12
ENDMDL
MODEL 7
REMARK VINA RESULT:      -5.8      2.587      7.802
REMARK  Name = 195761
REMARK  12 active torsions:
REMARK  status: ('A' for Active; 'I' for Inactive)
REMARK    1  A    between atoms: C_1  and  C_5
REMARK    2  A    between atoms: C_1  and  N_17
REMARK    3  A    between atoms: C_1  and  C_33
REMARK    4  A    between atoms: C_6  and  C_8
REMARK    5  A    between atoms: C_8  and  N_10
REMARK    6  A    between atoms: C_8  and  C_13
REMARK    7  A    between atoms: C_13  and  C_14
REMARK    8  A    between atoms: C_14  and  S_15
REMARK    9  A    between atoms: N_17  and  C_20
REMARK   10  A    between atoms: C_20  and  C_30
REMARK   11  A    between atoms: C_30  and  O_31
REMARK   12  A    between atoms: C_33  and  C_34
REMARK                            x       y       z     vdW  Elec       q    Type
REMARK                         _______ _______ _______ _____ _____    ______ ____
ROOT
ATOM      1  C   UNL     1     -36.752  24.850   3.907  0.00  0.00    +0.018 C 
ENDROOT
BRANCH   1   5
ATOM      2  O   UNL     1     -36.275  22.994   5.392  0.00  0.00    -0.277 OA
ATOM      3  O   UNL     1     -35.269  20.715   4.114  0.00  0.00    -0.273 OA
ATOM      4  N   UNL     1     -35.887  22.727   3.109  0.00  0.00    -0.256 N 
ATOM      5  C   UNL     1     -36.293  23.433   4.244  0.00  0.00    +0.208 C 
ATOM      6  C   UNL     1     -35.401  21.416   3.113  0.00  0.00    +0.246 C 
ATOM      7  H   UNL     1     -35.947  23.186   2.241  0.00  0.00    +0.157 HD
BRANCH   6   8
ATOM      8  C   UNL     1     -34.988  20.960   1.717  0.00  0.00    +0.150 C 
BRANCH   8  10
ATOM      9  O   UNL     1     -32.538  19.585   0.872  0.00  0.00    -0.265 OA
ATOM     10  N   UNL     1     -34.685  19.555   1.800  0.00  0.00    -0.291 N 
ATOM     11  C   UNL     1     -33.495  19.006   1.371  0.00  0.00    +0.300 C 
ATOM     12  H   UNL     1     -35.364  18.953   2.183  0.00  0.00    +0.150 HD
ENDBRANCH   8  10
BRANCH   8  13
ATOM     13  C   UNL     1     -36.099  21.256   0.704  0.00  0.00    +0.041 C 
BRANCH  13  14
ATOM     14  C   UNL     1     -37.172  20.169   0.698  0.00  0.00    +0.060 C 
BRANCH  14  15
ATOM     15  S   UNL     1     -37.198  19.309  -0.901  0.00  0.00    -0.139 S 
ATOM     16  C   UNL     1     -37.370  17.618  -0.286  0.00  0.00    +0.069 C 
ENDBRANCH  14  15
ENDBRANCH  13  14
ENDBRANCH   8  13
ENDBRANCH   6   8
ENDBRANCH   1   5
BRANCH   1  17
ATOM     17  N   UNL     1     -38.208  24.846   4.043  0.00  0.00    +0.400 N 
ATOM     18  H   UNL     1     -38.488  24.041   4.604  0.00  0.00    -0.083 HD
ATOM     19  H   UNL     1     -38.497  25.713   4.497  0.00  0.00    -0.083 HD
BRANCH  17  20
ATOM     20  C   UNL     1     -38.849  24.766   2.736  0.00  0.00    +0.055 C 
ATOM     21  C   UNL     1     -39.485  23.381   2.475  0.00  0.00    +0.017 C 
ATOM     22  C   UNL     1     -37.849  25.021   1.586  0.00  0.00    +0.017 C 
ATOM     23  C   UNL     1     -39.373  23.280   0.983  0.00  0.00    -0.028 C 
ATOM     24  C   UNL     1     -38.450  24.205   0.481  0.00  0.00    -0.028 C 
ATOM     25  C   UNL     1     -40.023  22.392   0.142  0.00  0.00    -0.005 C 
ATOM     26  C   UNL     1     -38.158  24.260  -0.871  0.00  0.00    -0.005 C 
ATOM     27  C   UNL     1     -39.743  22.449  -1.225  0.00  0.00    -0.000 C 
ATOM     28  C   UNL     1     -38.818  23.377  -1.729  0.00  0.00    -0.000 C 
BRANCH  20  30
ATOM     29  O   UNL     1     -40.863  25.847   3.524  0.00  0.00    -0.252 OA
ATOM     30  C   UNL     1     -39.908  25.841   2.758  0.00  0.00    +0.299 C 
BRANCH  30  31
ATOM     31  O   UNL     1     -39.627  26.778   1.809  0.00  0.00    -0.446 OA
ATOM     32  C   UNL     1     -40.712  27.120   0.941  0.00  0.00    +0.256 C 
ENDBRANCH  30  31
ENDBRANCH  20  30
ENDBRANCH  17  20
ENDBRANCH   1  17
BRANCH   1  33
ATOM     33  C   UNL     1     -36.089  25.885   4.833  0.00  0.00    -0.012 C 
BRANCH  33  34
ATOM     34  C   UNL     1     -34.561  26.036   4.680  0.00  0.00    -0.002 C 
ATOM     35  C   UNL     1     -33.926  26.261   6.055  0.00  0.00    -0.000 C 
ATOM     36  C   UNL     1     -34.176  27.180   3.742  0.00  0.00    -0.000 C 
ENDBRANCH  33  34
ENDBRANCH   1  33
TORSDOF 12
ENDMDL
MODEL 8
REMARK VINA RESULT:      -5.7      4.328      7.573
REMARK  Name = 195761
REMARK  12 active torsions:
REMARK  status: ('A' for Active; 'I' for Inactive)
REMARK    1  A    between atoms: C_1  and  C_5
REMARK    2  A    between atoms: C_1  and  N_17
REMARK    3  A    between atoms: C_1  and  C_33
REMARK    4  A    between atoms: C_6  and  C_8
REMARK    5  A    between atoms: C_8  and  N_10
REMARK    6  A    between atoms: C_8  and  C_13
REMARK    7  A    between atoms: C_13  and  C_14
REMARK    8  A    between atoms: C_14  and  S_15
REMARK    9  A    between atoms: N_17  and  C_20
REMARK   10  A    between atoms: C_20  and  C_30
REMARK   11  A    between atoms: C_30  and  O_31
REMARK   12  A    between atoms: C_33  and  C_34
REMARK                            x       y       z     vdW  Elec       q    Type
REMARK                         _______ _______ _______ _____ _____    ______ ____
ROOT
ATOM      1  C   UNL     1     -34.554  27.142   3.621  0.00  0.00    +0.018 C 
ENDROOT
BRANCH   1   5
ATOM      2  O   UNL     1     -33.253  25.871   5.224  0.00  0.00    -0.277 OA
ATOM      3  O   UNL     1     -31.349  27.373   6.623  0.00  0.00    -0.273 OA
ATOM      4  N   UNL     1     -32.811  28.147   4.981  0.00  0.00    -0.256 N 
ATOM      5  C   UNL     1     -33.478  26.954   4.688  0.00  0.00    +0.208 C 
ATOM      6  C   UNL     1     -31.792  28.283   5.927  0.00  0.00    +0.246 C 
ATOM      7  H   UNL     1     -33.081  28.952   4.484  0.00  0.00    +0.157 HD
BRANCH   6   8
ATOM      8  C   UNL     1     -31.320  29.729   6.048  0.00  0.00    +0.150 C 
BRANCH   8  10
ATOM      9  O   UNL     1     -28.860  29.580   7.640  0.00  0.00    -0.265 OA
ATOM     10  N   UNL     1     -29.957  29.772   5.583  0.00  0.00    -0.291 N 
ATOM     11  C   UNL     1     -28.865  29.695   6.420  0.00  0.00    +0.300 C 
ATOM     12  H   UNL     1     -29.798  29.863   4.616  0.00  0.00    +0.150 HD
ENDBRANCH   8  10
BRANCH   8  13
ATOM     13  C   UNL     1     -32.236  30.662   5.248  0.00  0.00    +0.041 C 
BRANCH  13  14
ATOM     14  C   UNL     1     -31.448  31.564   4.301  0.00  0.00    +0.060 C 
BRANCH  14  15
ATOM     15  S   UNL     1     -31.941  31.265   2.579  0.00  0.00    -0.139 S 
ATOM     16  C   UNL     1     -33.152  32.598   2.418  0.00  0.00    +0.069 C 
ENDBRANCH  14  15
ENDBRANCH  13  14
ENDBRANCH   8  13
ENDBRANCH   6   8
ENDBRANCH   1   5
BRANCH   1  17
ATOM     17  N   UNL     1     -35.801  26.664   4.217  0.00  0.00    +0.400 N 
ATOM     18  H   UNL     1     -35.671  26.559   5.223  0.00  0.00    -0.083 HD
ATOM     19  H   UNL     1     -36.537  27.344   4.023  0.00  0.00    -0.083 HD
BRANCH  17  20
ATOM     20  C   UNL     1     -36.187  25.380   3.647  0.00  0.00    +0.055 C 
ATOM     21  C   UNL     1     -35.934  24.203   4.618  0.00  0.00    +0.017 C 
ATOM     22  C   UNL     1     -35.405  25.065   2.351  0.00  0.00    +0.017 C 
ATOM     23  C   UNL     1     -35.669  23.081   3.660  0.00  0.00    -0.028 C 
ATOM     24  C   UNL     1     -35.370  23.565   2.382  0.00  0.00    -0.028 C 
ATOM     25  C   UNL     1     -35.655  21.722   3.929  0.00  0.00    -0.005 C 
ATOM     26  C   UNL     1     -35.051  22.703   1.347  0.00  0.00    -0.005 C 
ATOM     27  C   UNL     1     -35.347  20.843   2.888  0.00  0.00    -0.000 C 
ATOM     28  C   UNL     1     -35.047  21.330   1.606  0.00  0.00    -0.000 C 
BRANCH  20  30
ATOM     29  O   UNL     1     -38.528  24.808   3.843  0.00  0.00    -0.252 OA
ATOM     30  C   UNL     1     -37.661  25.516   3.349  0.00  0.00    +0.299 C 
BRANCH  30  31
ATOM     31  O   UNL     1     -37.855  26.533   2.463  0.00  0.00    -0.446 OA
ATOM     32  C   UNL     1     -38.898  26.324   1.505  0.00  0.00    +0.256 C 
ENDBRANCH  30  31
ENDBRANCH  20  30
ENDBRANCH  17  20
ENDBRANCH   1  17
BRANCH   1  33
ATOM     33  C   UNL     1     -34.651  28.613   3.182  0.00  0.00    -0.012 C 
BRANCH  33  34
ATOM     34  C   UNL     1     -35.370  28.865   1.840  0.00  0.00    -0.002 C 
ATOM     35  C   UNL     1     -34.383  28.684   0.684  0.00  0.00    -0.000 C 
ATOM     36  C   UNL     1     -36.001  30.256   1.766  0.00  0.00    -0.000 C 
ENDBRANCH  33  34
ENDBRANCH   1  33
TORSDOF 12
ENDMDL
MODEL 9
REMARK VINA RESULT:      -5.7      4.393      7.251
REMARK  Name = 195761
REMARK  12 active torsions:
REMARK  status: ('A' for Active; 'I' for Inactive)
REMARK    1  A    between atoms: C_1  and  C_5
REMARK    2  A    between atoms: C_1  and  N_17
REMARK    3  A    between atoms: C_1  and  C_33
REMARK    4  A    between atoms: C_6  and  C_8
REMARK    5  A    between atoms: C_8  and  N_10
REMARK    6  A    between atoms: C_8  and  C_13
REMARK    7  A    between atoms: C_13  and  C_14
REMARK    8  A    between atoms: C_14  and  S_15
REMARK    9  A    between atoms: N_17  and  C_20
REMARK   10  A    between atoms: C_20  and  C_30
REMARK   11  A    between atoms: C_30  and  O_31
REMARK   12  A    between atoms: C_33  and  C_34
REMARK                            x       y       z     vdW  Elec       q    Type
REMARK                         _______ _______ _______ _____ _____    ______ ____
ROOT
ATOM      1  C   UNL     1     -35.663  26.488   1.942  0.00  0.00    +0.018 C 
ENDROOT
BRANCH   1   5
ATOM      2  O   UNL     1     -37.190  28.244   1.261  0.00  0.00    -0.277 OA
ATOM      3  O   UNL     1     -36.445  30.813   2.087  0.00  0.00    -0.273 OA
ATOM      4  N   UNL     1     -35.311  28.821   2.515  0.00  0.00    -0.256 N 
ATOM      5  C   UNL     1     -36.162  27.929   1.858  0.00  0.00    +0.208 C 
ATOM      6  C   UNL     1     -35.503  30.204   2.589  0.00  0.00    +0.246 C 
ATOM      7  H   UNL     1     -34.516  28.449   2.958  0.00  0.00    +0.157 HD
BRANCH   6   8
ATOM      8  C   UNL     1     -34.360  30.896   3.324  0.00  0.00    +0.150 C 
BRANCH   8  10
ATOM      9  O   UNL     1     -32.545  30.646   5.615  0.00  0.00    -0.265 OA
ATOM     10  N   UNL     1     -33.332  29.911   3.539  0.00  0.00    -0.291 N 
ATOM     11  C   UNL     1     -32.527  29.882   4.658  0.00  0.00    +0.300 C 
ATOM     12  H   UNL     1     -33.196  29.221   2.849  0.00  0.00    +0.150 HD
ENDBRANCH   8  10
BRANCH   8  13
ATOM     13  C   UNL     1     -33.853  32.098   2.519  0.00  0.00    +0.041 C 
BRANCH  13  14
ATOM     14  C   UNL     1     -32.973  31.671   1.346  0.00  0.00    +0.060 C 
BRANCH  14  15
ATOM     15  S   UNL     1     -31.496  32.722   1.243  0.00  0.00    -0.139 S 
ATOM     16  C   UNL     1     -31.277  33.040   3.009  0.00  0.00    +0.069 C 
ENDBRANCH  14  15
ENDBRANCH  13  14
ENDBRANCH   8  13
ENDBRANCH   6   8
ENDBRANCH   1   5
BRANCH   1  17
ATOM     17  N   UNL     1     -36.828  25.641   1.690  0.00  0.00    +0.400 N 
ATOM     18  H   UNL     1     -37.668  26.219   1.698  0.00  0.00    -0.083 HD
ATOM     19  H   UNL     1     -36.715  25.192   0.780  0.00  0.00    -0.083 HD
BRANCH  17  20
ATOM     20  C   UNL     1     -36.946  24.608   2.711  0.00  0.00    +0.055 C 
ATOM     21  C   UNL     1     -36.359  25.051   4.070  0.00  0.00    +0.017 C 
ATOM     22  C   UNL     1     -36.208  23.311   2.307  0.00  0.00    +0.017 C 
ATOM     23  C   UNL     1     -35.910  23.739   4.641  0.00  0.00    -0.028 C 
ATOM     24  C   UNL     1     -35.824  22.758   3.647  0.00  0.00    -0.028 C 
ATOM     25  C   UNL     1     -35.562  23.459   5.952  0.00  0.00    -0.005 C 
ATOM     26  C   UNL     1     -35.390  21.477   3.944  0.00  0.00    -0.005 C 
ATOM     27  C   UNL     1     -35.135  22.166   6.263  0.00  0.00    -0.000 C 
ATOM     28  C   UNL     1     -35.049  21.181   5.266  0.00  0.00    -0.000 C 
BRANCH  20  30
ATOM     29  O   UNL     1     -39.104  24.673   3.799  0.00  0.00    -0.252 OA
ATOM     30  C   UNL     1     -38.429  24.350   2.831  0.00  0.00    +0.299 C 
BRANCH  30  31
ATOM     31  O   UNL     1     -38.875  23.717   1.709  0.00  0.00    -0.446 OA
ATOM     32  C   UNL     1     -39.737  22.597   1.936  0.00  0.00    +0.256 C 
ENDBRANCH  30  31
ENDBRANCH  20  30
ENDBRANCH  17  20
ENDBRANCH   1  17
BRANCH   1  33
ATOM     33  C   UNL     1     -34.533  26.231   0.930  0.00  0.00    -0.012 C 
BRANCH  33  34
ATOM     34  C   UNL     1     -33.364  25.362   1.440  0.00  0.00    -0.002 C 
ATOM     35  C   UNL     1     -32.441  26.206   2.323  0.00  0.00    -0.000 C 
ATOM     36  C   UNL     1     -32.558  24.738   0.300  0.00  0.00    -0.000 C 
ENDBRANCH  33  34
ENDBRANCH   1  33
TORSDOF 12
ENDMDL
