MODEL 1
REMARK VINA RESULT:      -6.6      0.000      0.000
REMARK  Name = 52950369
REMARK  7 active torsions:
REMARK  status: ('A' for Active; 'I' for Inactive)
REMARK    1  A    between atoms: C_3  and  C_19
REMARK    2  A    between atoms: C_4  and  O_27
REMARK    3  A    between atoms: C_5  and  O_15
REMARK    4  A    between atoms: C_6  and  O_17
REMARK    5  A    between atoms: C_20  and  C_23
REMARK    6  A    between atoms: O_27  and  C_29
REMARK    7  A    between atoms: C_29  and  C_31
REMARK                            x       y       z     vdW  Elec       q    Type
REMARK                         _______ _______ _______ _____ _____    ______ ____
ROOT
ATOM      1  C   UNL     1     -33.951  26.303   1.183  0.00  0.00    +0.013 C 
ATOM      2  C   UNL     1     -34.471  27.799   1.195  0.00  0.00    +0.042 C 
ATOM      3  C   UNL     1     -34.981  25.196   0.733  0.00  0.00    +0.055 C 
ATOM      4  C   UNL     1     -36.291  25.332   1.595  0.00  0.00    +0.166 C 
ATOM      5  C   UNL     1     -35.809  27.833   2.004  0.00  0.00    +0.144 C 
ATOM      6  C   UNL     1     -36.835  26.777   1.551  0.00  0.00    +0.174 C 
ATOM      7  C   UNL     1     -32.574  26.211   0.485  0.00  0.00    +0.005 C 
ATOM      8  C   UNL     1     -33.366  28.676   1.846  0.00  0.00    -0.046 C 
ATOM      9  C   UNL     1     -34.688  28.408  -0.214  0.00  0.00    +0.007 C 
ATOM     10  C   UNL     1     -35.286  25.231  -0.780  0.00  0.00    +0.008 C 
ATOM     11  C   UNL     1     -31.533  27.052   1.222  0.00  0.00    +0.025 C 
ATOM     12  C   UNL     1     -37.393  24.328   1.203  0.00  0.00    +0.047 C 
ATOM     13  C   UNL     1     -32.069  28.310   1.829  0.00  0.00    -0.035 C 
ATOM     14  C   UNL     1     -33.736  29.991   2.483  0.00  0.00    +0.026 C 
ENDROOT
BRANCH   5  15
ATOM     15  O   UNL     1     -36.440  29.112   1.857  0.00  0.00    -0.382 OA
ATOM     16  H   UNL     1     -37.378  29.040   2.096  0.00  0.00    +0.210 HD
ENDBRANCH   5  15
BRANCH   6  17
ATOM     17  O   UNL     1     -37.967  26.899   2.426  0.00  0.00    -0.379 OA
ATOM     18  H   UNL     1     -37.713  27.406   3.212  0.00  0.00    +0.211 HD
ENDBRANCH   6  17
BRANCH   3  19
ATOM     19  C   UNL     1     -34.353  23.830   0.990  0.00  0.00    -0.024 C 
ATOM     20  C   UNL     1     -34.107  22.932   0.027  0.00  0.00    -0.005 C 
BRANCH  20  23
ATOM     21  O   UNL     1     -32.007  19.931   0.217  0.00  0.00    -0.440 OA
ATOM     22  O   UNL     1     -33.242  18.480   1.509  0.00  0.00    -0.245 OA
ATOM     23  C   UNL     1     -33.519  21.646   0.275  0.00  0.00    +0.027 C 
ATOM     24  C   UNL     1     -32.199  21.266  -0.265  0.00  0.00    +0.236 C 
ATOM     25  C   UNL     1     -34.053  20.661   0.991  0.00  0.00    +0.081 C 
ATOM     26  C   UNL     1     -33.091  19.557   0.959  0.00  0.00    +0.342 C 
ENDBRANCH  20  23
ENDBRANCH   3  19
BRANCH   4  27
ATOM     27  O   UNL     1     -35.972  25.080   2.978  0.00  0.00    -0.450 OA
BRANCH  27  29
ATOM     28  O   UNL     1     -38.079  24.489   3.689  0.00  0.00    -0.245 OA
ATOM     29  C   UNL     1     -36.870  24.324   3.650  0.00  0.00    +0.343 C 
BRANCH  29  31
ATOM     30  N   UNL     1     -35.306  20.969   4.342  0.00  0.00    -0.242 NA
ATOM     31  C   UNL     1     -36.174  23.225   4.366  0.00  0.00    +0.095 C 
ATOM     32  C   UNL     1     -35.738  23.387   5.677  0.00  0.00    +0.010 C 
ATOM     33  C   UNL     1     -35.935  22.008   3.749  0.00  0.00    +0.105 C 
ATOM     34  C   UNL     1     -35.087  22.341   6.321  0.00  0.00    +0.021 C 
ATOM     35  C   UNL     1     -34.897  21.163   5.616  0.00  0.00    +0.099 C 
ENDBRANCH  29  31
ENDBRANCH  27  29
ENDBRANCH   4  27
TORSDOF 7
ENDMDL
MODEL 2
REMARK VINA RESULT:      -6.5      3.653      5.541
REMARK  Name = 52950369
REMARK  7 active torsions:
REMARK  status: ('A' for Active; 'I' for Inactive)
REMARK    1  A    between atoms: C_3  and  C_19
REMARK    2  A    between atoms: C_4  and  O_27
REMARK    3  A    between atoms: C_5  and  O_15
REMARK    4  A    between atoms: C_6  and  O_17
REMARK    5  A    between atoms: C_20  and  C_23
REMARK    6  A    between atoms: O_27  and  C_29
REMARK    7  A    between atoms: C_29  and  C_31
REMARK                            x       y       z     vdW  Elec       q    Type
REMARK                         _______ _______ _______ _____ _____    ______ ____
ROOT
ATOM      1  C   UNL     1     -36.236  23.441   3.033  0.00  0.00    +0.013 C 
ATOM      2  C   UNL     1     -35.564  24.705   3.713  0.00  0.00    +0.042 C 
ATOM      3  C   UNL     1     -36.719  23.609   1.541  0.00  0.00    +0.055 C 
ATOM      4  C   UNL     1     -37.658  24.869   1.444  0.00  0.00    +0.166 C 
ATOM      5  C   UNL     1     -36.522  25.923   3.506  0.00  0.00    +0.144 C 
ATOM      6  C   UNL     1     -36.975  26.116   2.046  0.00  0.00    +0.174 C 
ATOM      7  C   UNL     1     -35.388  22.172   3.288  0.00  0.00    +0.005 C 
ATOM      8  C   UNL     1     -35.348  24.372   5.215  0.00  0.00    -0.046 C 
ATOM      9  C   UNL     1     -34.152  25.043   3.170  0.00  0.00    +0.007 C 
ATOM     10  C   UNL     1     -35.554  23.685   0.531  0.00  0.00    +0.008 C 
ATOM     11  C   UNL     1     -35.277  21.883   4.784  0.00  0.00    +0.025 C 
ATOM     12  C   UNL     1     -38.151  25.161   0.013  0.00  0.00    +0.047 C 
ATOM     13  C   UNL     1     -35.218  23.102   5.648  0.00  0.00    -0.035 C 
ATOM     14  C   UNL     1     -35.243  25.492   6.219  0.00  0.00    +0.026 C 
ENDROOT
BRANCH   5  15
ATOM     15  O   UNL     1     -35.867  27.137   3.899  0.00  0.00    -0.382 OA
ATOM     16  H   UNL     1     -35.633  27.649   3.109  0.00  0.00    +0.210 HD
ENDBRANCH   5  15
BRANCH   6  17
ATOM     17  O   UNL     1     -37.889  27.223   2.041  0.00  0.00    -0.379 OA
ATOM     18  H   UNL     1     -37.396  28.049   2.158  0.00  0.00    +0.211 HD
ENDBRANCH   6  17
BRANCH   3  19
ATOM     19  C   UNL     1     -37.512  22.364   1.155  0.00  0.00    -0.024 C 
ATOM     20  C   UNL     1     -37.222  21.599   0.095  0.00  0.00    -0.005 C 
BRANCH  20  23
ATOM     21  O   UNL     1     -39.749  19.123  -0.877  0.00  0.00    -0.440 OA
ATOM     22  O   UNL     1     -38.577  17.143  -0.942  0.00  0.00    -0.245 OA
ATOM     23  C   UNL     1     -37.973  20.429  -0.266  0.00  0.00    +0.027 C 
ATOM     24  C   UNL     1     -39.415  20.483  -0.577  0.00  0.00    +0.236 C 
ATOM     25  C   UNL     1     -37.500  19.190  -0.366  0.00  0.00    +0.081 C 
ATOM     26  C   UNL     1     -38.632  18.346  -0.756  0.00  0.00    +0.342 C 
ENDBRANCH  20  23
ENDBRANCH   3  19
BRANCH   4  27
ATOM     27  O   UNL     1     -38.832  24.642   2.250  0.00  0.00    -0.450 OA
BRANCH  27  29
ATOM     28  O   UNL     1     -40.333  23.788   0.727  0.00  0.00    -0.245 OA
ATOM     29  C   UNL     1     -40.002  24.607   1.570  0.00  0.00    +0.343 C 
BRANCH  29  31
ATOM     30  N   UNL     1     -41.660  27.182   3.762  0.00  0.00    -0.242 NA
ATOM     31  C   UNL     1     -40.868  25.737   1.993  0.00  0.00    +0.095 C 
ATOM     32  C   UNL     1     -41.674  26.404   1.077  0.00  0.00    +0.010 C 
ATOM     33  C   UNL     1     -40.897  26.161   3.311  0.00  0.00    +0.105 C 
ATOM     34  C   UNL     1     -42.473  27.459   1.501  0.00  0.00    +0.021 C 
ATOM     35  C   UNL     1     -42.431  27.806   2.843  0.00  0.00    +0.099 C 
ENDBRANCH  29  31
ENDBRANCH  27  29
ENDBRANCH   4  27
TORSDOF 7
ENDMDL
MODEL 3
REMARK VINA RESULT:      -6.4      2.877      6.361
REMARK  Name = 52950369
REMARK  7 active torsions:
REMARK  status: ('A' for Active; 'I' for Inactive)
REMARK    1  A    between atoms: C_3  and  C_19
REMARK    2  A    between atoms: C_4  and  O_27
REMARK    3  A    between atoms: C_5  and  O_15
REMARK    4  A    between atoms: C_6  and  O_17
REMARK    5  A    between atoms: C_20  and  C_23
REMARK    6  A    between atoms: O_27  and  C_29
REMARK    7  A    between atoms: C_29  and  C_31
REMARK                            x       y       z     vdW  Elec       q    Type
REMARK                         _______ _______ _______ _____ _____    ______ ____
ROOT
ATOM      1  C   UNL     1     -37.914  23.264   0.169  0.00  0.00    +0.013 C 
ATOM      2  C   UNL     1     -38.674  21.990  -0.388  0.00  0.00    +0.042 C 
ATOM      3  C   UNL     1     -36.369  23.109   0.440  0.00  0.00    +0.055 C 
ATOM      4  C   UNL     1     -36.132  21.859   1.368  0.00  0.00    +0.166 C 
ATOM      5  C   UNL     1     -38.326  20.783   0.543  0.00  0.00    +0.144 C 
ATOM      6  C   UNL     1     -36.816  20.602   0.789  0.00  0.00    +0.174 C 
ATOM      7  C   UNL     1     -38.293  24.522  -0.647  0.00  0.00    +0.005 C 
ATOM      8  C   UNL     1     -40.193  22.312  -0.395  0.00  0.00    -0.046 C 
ATOM      9  C   UNL     1     -38.331  21.639  -1.859  0.00  0.00    +0.007 C 
ATOM     10  C   UNL     1     -35.531  23.025  -0.854  0.00  0.00    +0.008 C 
ATOM     11  C   UNL     1     -39.792  24.803  -0.550  0.00  0.00    +0.025 C 
ATOM     12  C   UNL     1     -34.645  21.580   1.659  0.00  0.00    +0.047 C 
ATOM     13  C   UNL     1     -40.649  23.579  -0.476  0.00  0.00    -0.035 C 
ATOM     14  C   UNL     1     -41.195  21.187  -0.348  0.00  0.00    +0.026 C 
ENDROOT
BRANCH   5  15
ATOM     15  O   UNL     1     -38.800  19.560  -0.039  0.00  0.00    -0.382 OA
ATOM     16  H   UNL     1     -39.754  19.477   0.115  0.00  0.00    +0.210 HD
ENDBRANCH   5  15
BRANCH   6  17
ATOM     17  O   UNL     1     -36.676  19.504   1.704  0.00  0.00    -0.379 OA
ATOM     18  H   UNL     1     -36.979  18.688   1.278  0.00  0.00    +0.211 HD
ENDBRANCH   6  17
BRANCH   3  19
ATOM     19  C   UNL     1     -35.883  24.364   1.159  0.00  0.00    -0.024 C 
ATOM     20  C   UNL     1     -34.608  24.772   1.159  0.00  0.00    -0.005 C 
BRANCH  20  23
ATOM     21  O   UNL     1     -32.751  27.410   2.906  0.00  0.00    -0.440 OA
ATOM     22  O   UNL     1     -34.331  29.047   3.261  0.00  0.00    -0.245 OA
ATOM     23  C   UNL     1     -34.156  25.953   1.840  0.00  0.00    +0.027 C 
ATOM     24  C   UNL     1     -32.760  26.117   2.292  0.00  0.00    +0.236 C 
ATOM     25  C   UNL     1     -34.893  27.016   2.146  0.00  0.00    +0.081 C 
ATOM     26  C   UNL     1     -34.002  27.955   2.830  0.00  0.00    +0.342 C 
ENDBRANCH  20  23
ENDBRANCH   3  19
BRANCH   4  27
ATOM     27  O   UNL     1     -36.768  22.094   2.642  0.00  0.00    -0.450 OA
BRANCH  27  29
ATOM     28  O   UNL     1     -35.428  20.984   4.149  0.00  0.00    -0.245 OA
ATOM     29  C   UNL     1     -35.955  21.998   3.719  0.00  0.00    +0.343 C 
BRANCH  29  31
ATOM     30  N   UNL     1     -36.717  25.486   4.917  0.00  0.00    -0.242 NA
ATOM     31  C   UNL     1     -35.777  23.335   4.340  0.00  0.00    +0.095 C 
ATOM     32  C   UNL     1     -34.565  23.701   4.917  0.00  0.00    +0.010 C 
ATOM     33  C   UNL     1     -36.812  24.255   4.367  0.00  0.00    +0.105 C 
ATOM     34  C   UNL     1     -34.428  24.959   5.493  0.00  0.00    +0.021 C 
ATOM     35  C   UNL     1     -35.524  25.807   5.467  0.00  0.00    +0.099 C 
ENDBRANCH  29  31
ENDBRANCH  27  29
ENDBRANCH   4  27
TORSDOF 7
ENDMDL
MODEL 4
REMARK VINA RESULT:      -6.4      2.335      4.248
REMARK  Name = 52950369
REMARK  7 active torsions:
REMARK  status: ('A' for Active; 'I' for Inactive)
REMARK    1  A    between atoms: C_3  and  C_19
REMARK    2  A    between atoms: C_4  and  O_27
REMARK    3  A    between atoms: C_5  and  O_15
REMARK    4  A    between atoms: C_6  and  O_17
REMARK    5  A    between atoms: C_20  and  C_23
REMARK    6  A    between atoms: O_27  and  C_29
REMARK    7  A    between atoms: C_29  and  C_31
REMARK                            x       y       z     vdW  Elec       q    Type
REMARK                         _______ _______ _______ _____ _____    ______ ____
ROOT
ATOM      1  C   UNL     1     -36.518  23.992   0.972  0.00  0.00    +0.013 C 
ATOM      2  C   UNL     1     -37.672  25.041   1.251  0.00  0.00    +0.042 C 
ATOM      3  C   UNL     1     -36.311  22.859   2.049  0.00  0.00    +0.055 C 
ATOM      4  C   UNL     1     -36.140  23.523   3.467  0.00  0.00    +0.166 C 
ATOM      5  C   UNL     1     -37.473  25.593   2.700  0.00  0.00    +0.144 C 
ATOM      6  C   UNL     1     -37.302  24.495   3.766  0.00  0.00    +0.174 C 
ATOM      7  C   UNL     1     -36.593  23.477  -0.485  0.00  0.00    +0.005 C 
ATOM      8  C   UNL     1     -37.566  26.155   0.174  0.00  0.00    -0.046 C 
ATOM      9  C   UNL     1     -39.104  24.467   1.095  0.00  0.00    +0.007 C 
ATOM     10  C   UNL     1     -37.438  21.804   2.045  0.00  0.00    +0.008 C 
ATOM     11  C   UNL     1     -36.419  24.625  -1.477  0.00  0.00    +0.025 C 
ATOM     12  C   UNL     1     -35.981  22.502   4.611  0.00  0.00    +0.047 C 
ATOM     13  C   UNL     1     -37.007  25.926  -1.031  0.00  0.00    -0.035 C 
ATOM     14  C   UNL     1     -38.133  27.523   0.458  0.00  0.00    +0.026 C 
ENDROOT
BRANCH   5  15
ATOM     15  O   UNL     1     -38.612  26.374   3.090  0.00  0.00    -0.382 OA
ATOM     16  H   UNL     1     -38.925  26.078   3.959  0.00  0.00    +0.210 HD
ENDBRANCH   5  15
BRANCH   6  17
ATOM     17  O   UNL     1     -37.069  25.164   5.015  0.00  0.00    -0.379 OA
ATOM     18  H   UNL     1     -36.954  24.506   5.717  0.00  0.00    +0.211 HD
ENDBRANCH   6  17
BRANCH   3  19
ATOM     19  C   UNL     1     -35.037  22.096   1.698  0.00  0.00    -0.024 C 
ATOM     20  C   UNL     1     -34.999  20.775   1.483  0.00  0.00    -0.005 C 
BRANCH  20  23
ATOM     21  O   UNL     1     -31.767  19.596   0.209  0.00  0.00    -0.440 OA
ATOM     22  O   UNL     1     -31.526  17.518   1.169  0.00  0.00    -0.245 OA
ATOM     23  C   UNL     1     -33.797  20.061   1.156  0.00  0.00    +0.027 C 
ATOM     24  C   UNL     1     -32.770  20.618   0.255  0.00  0.00    +0.236 C 
ATOM     25  C   UNL     1     -33.455  18.853   1.595  0.00  0.00    +0.081 C 
ATOM     26  C   UNL     1     -32.155  18.547   0.993  0.00  0.00    +0.342 C 
ENDBRANCH  20  23
ENDBRANCH   3  19
BRANCH   4  27
ATOM     27  O   UNL     1     -34.947  24.334   3.464  0.00  0.00    -0.450 OA
BRANCH  27  29
ATOM     28  O   UNL     1     -34.521  23.906   5.686  0.00  0.00    -0.245 OA
ATOM     29  C   UNL     1     -34.426  24.598   4.685  0.00  0.00    +0.343 C 
BRANCH  29  31
ATOM     30  N   UNL     1     -32.784  27.776   5.862  0.00  0.00    -0.242 NA
ATOM     31  C   UNL     1     -33.696  25.891   4.655  0.00  0.00    +0.095 C 
ATOM     32  C   UNL     1     -33.243  26.430   3.456  0.00  0.00    +0.010 C 
ATOM     33  C   UNL     1     -33.443  26.597   5.820  0.00  0.00    +0.105 C 
ATOM     34  C   UNL     1     -32.561  27.641   3.458  0.00  0.00    +0.021 C 
ATOM     35  C   UNL     1     -32.358  28.269   4.677  0.00  0.00    +0.099 C 
ENDBRANCH  29  31
ENDBRANCH  27  29
ENDBRANCH   4  27
TORSDOF 7
ENDMDL
MODEL 5
REMARK VINA RESULT:      -6.3      3.340      5.262
REMARK  Name = 52950369
REMARK  7 active torsions:
REMARK  status: ('A' for Active; 'I' for Inactive)
REMARK    1  A    between atoms: C_3  and  C_19
REMARK    2  A    between atoms: C_4  and  O_27
REMARK    3  A    between atoms: C_5  and  O_15
REMARK    4  A    between atoms: C_6  and  O_17
REMARK    5  A    between atoms: C_20  and  C_23
REMARK    6  A    between atoms: O_27  and  C_29
REMARK    7  A    between atoms: C_29  and  C_31
REMARK                            x       y       z     vdW  Elec       q    Type
REMARK                         _______ _______ _______ _____ _____    ______ ____
ROOT
ATOM      1  C   UNL     1     -35.930  24.079   2.772  0.00  0.00    +0.013 C 
ATOM      2  C   UNL     1     -35.145  25.182   3.594  0.00  0.00    +0.042 C 
ATOM      3  C   UNL     1     -36.196  24.382   1.248  0.00  0.00    +0.055 C 
ATOM      4  C   UNL     1     -36.894  25.788   1.118  0.00  0.00    +0.166 C 
ATOM      5  C   UNL     1     -35.855  26.553   3.351  0.00  0.00    +0.144 C 
ATOM      6  C   UNL     1     -36.091  26.876   1.863  0.00  0.00    +0.174 C 
ATOM      7  C   UNL     1     -35.342  22.675   3.047  0.00  0.00    +0.005 C 
ATOM      8  C   UNL     1     -35.169  24.762   5.089  0.00  0.00    -0.046 C 
ATOM      9  C   UNL     1     -33.641  25.293   3.233  0.00  0.00    +0.007 C 
ATOM     10  C   UNL     1     -34.922  24.296   0.380  0.00  0.00    +0.008 C 
ATOM     11  C   UNL     1     -35.460  22.315   4.527  0.00  0.00    +0.025 C 
ATOM     12  C   UNL     1     -37.157  26.213  -0.340  0.00  0.00    +0.047 C 
ATOM     13  C   UNL     1     -35.304  23.473   5.461  0.00  0.00    -0.035 C 
ATOM     14  C   UNL     1     -35.000  25.808   6.162  0.00  0.00    +0.026 C 
ENDROOT
BRANCH   5  15
ATOM     15  O   UNL     1     -35.060  27.621   3.884  0.00  0.00    -0.382 OA
ATOM     16  H   UNL     1     -35.639  28.283   4.294  0.00  0.00    +0.210 HD
ENDBRANCH   5  15
BRANCH   6  17
ATOM     17  O   UNL     1     -36.801  28.123   1.819  0.00  0.00    -0.379 OA
ATOM     18  H   UNL     1     -37.135  28.336   2.704  0.00  0.00    +0.211 HD
ENDBRANCH   6  17
BRANCH   3  19
ATOM     19  C   UNL     1     -37.132  23.307   0.705  0.00  0.00    -0.024 C 
ATOM     20  C   UNL     1     -36.966  22.709  -0.482  0.00  0.00    -0.005 C 
BRANCH  20  23
ATOM     21  O   UNL     1     -39.099  20.491  -2.478  0.00  0.00    -0.440 OA
ATOM     22  O   UNL     1     -39.927  18.995  -0.937  0.00  0.00    -0.245 OA
ATOM     23  C   UNL     1     -37.852  21.700  -0.990  0.00  0.00    +0.027 C 
ATOM     24  C   UNL     1     -38.218  21.618  -2.417  0.00  0.00    +0.236 C 
ATOM     25  C   UNL     1     -38.441  20.740  -0.282  0.00  0.00    +0.081 C 
ATOM     26  C   UNL     1     -39.243  19.961  -1.228  0.00  0.00    +0.342 C 
ENDBRANCH  20  23
ENDBRANCH   3  19
BRANCH   4  27
ATOM     27  O   UNL     1     -38.178  25.736   1.773  0.00  0.00    -0.450 OA
BRANCH  27  29
ATOM     28  O   UNL     1     -39.512  27.392   0.891  0.00  0.00    -0.245 OA
ATOM     29  C   UNL     1     -39.215  26.218   1.051  0.00  0.00    +0.343 C 
BRANCH  29  31
ATOM     30  N   UNL     1     -41.175  23.016   0.757  0.00  0.00    -0.242 NA
ATOM     31  C   UNL     1     -39.982  25.096   0.452  0.00  0.00    +0.095 C 
ATOM     32  C   UNL     1     -40.234  25.049  -0.915  0.00  0.00    +0.010 C 
ATOM     33  C   UNL     1     -40.470  24.064   1.237  0.00  0.00    +0.105 C 
ATOM     34  C   UNL     1     -40.956  23.987  -1.447  0.00  0.00    +0.021 C 
ATOM     35  C   UNL     1     -41.400  23.004  -0.576  0.00  0.00    +0.099 C 
ENDBRANCH  29  31
ENDBRANCH  27  29
ENDBRANCH   4  27
TORSDOF 7
ENDMDL
MODEL 6
REMARK VINA RESULT:      -6.2      2.548      4.701
REMARK  Name = 52950369
REMARK  7 active torsions:
REMARK  status: ('A' for Active; 'I' for Inactive)
REMARK    1  A    between atoms: C_3  and  C_19
REMARK    2  A    between atoms: C_4  and  O_27
REMARK    3  A    between atoms: C_5  and  O_15
REMARK    4  A    between atoms: C_6  and  O_17
REMARK    5  A    between atoms: C_20  and  C_23
REMARK    6  A    between atoms: O_27  and  C_29
REMARK    7  A    between atoms: C_29  and  C_31
REMARK                            x       y       z     vdW  Elec       q    Type
REMARK                         _______ _______ _______ _____ _____    ______ ____
ROOT
ATOM      1  C   UNL     1     -34.424  24.401   1.898  0.00  0.00    +0.013 C 
ATOM      2  C   UNL     1     -35.591  24.724   2.920  0.00  0.00    +0.042 C 
ATOM      3  C   UNL     1     -34.825  23.634   0.580  0.00  0.00    +0.055 C 
ATOM      4  C   UNL     1     -35.617  22.329   0.965  0.00  0.00    +0.166 C 
ATOM      5  C   UNL     1     -36.371  23.396   3.189  0.00  0.00    +0.144 C 
ATOM      6  C   UNL     1     -36.796  22.654   1.908  0.00  0.00    +0.174 C 
ATOM      7  C   UNL     1     -33.545  25.652   1.663  0.00  0.00    +0.005 C 
ATOM      8  C   UNL     1     -34.943  25.300   4.209  0.00  0.00    -0.046 C 
ATOM      9  C   UNL     1     -36.571  25.825   2.438  0.00  0.00    +0.007 C 
ATOM     10  C   UNL     1     -35.618  24.510  -0.414  0.00  0.00    +0.008 C 
ATOM     11  C   UNL     1     -32.898  26.115   2.968  0.00  0.00    +0.025 C 
ATOM     12  C   UNL     1     -36.106  21.522  -0.254  0.00  0.00    +0.047 C 
ATOM     13  C   UNL     1     -33.745  25.918   4.185  0.00  0.00    -0.035 C 
ATOM     14  C   UNL     1     -35.679  25.203   5.521  0.00  0.00    +0.026 C 
ENDROOT
BRANCH   5  15
ATOM     15  O   UNL     1     -37.571  23.670   3.925  0.00  0.00    -0.382 OA
ATOM     16  H   UNL     1     -37.928  22.842   4.282  0.00  0.00    +0.210 HD
ENDBRANCH   5  15
BRANCH   6  17
ATOM     17  O   UNL     1     -37.435  21.439   2.327  0.00  0.00    -0.379 OA
ATOM     18  H   UNL     1     -37.261  21.291   3.269  0.00  0.00    +0.211 HD
ENDBRANCH   6  17
BRANCH   3  19
ATOM     19  C   UNL     1     -33.545  23.244  -0.152  0.00  0.00    -0.024 C 
ATOM     20  C   UNL     1     -33.259  23.627  -1.403  0.00  0.00    -0.005 C 
BRANCH  20  23
ATOM     21  O   UNL     1     -30.668  22.563  -3.772  0.00  0.00    -0.440 OA
ATOM     22  O   UNL     1     -28.728  22.653  -2.537  0.00  0.00    -0.245 OA
ATOM     23  C   UNL     1     -32.053  23.255  -2.088  0.00  0.00    +0.027 C 
ATOM     24  C   UNL     1     -32.048  22.836  -3.503  0.00  0.00    +0.236 C 
ATOM     25  C   UNL     1     -30.828  23.235  -1.571  0.00  0.00    +0.081 C 
ATOM     26  C   UNL     1     -29.934  22.792  -2.643  0.00  0.00    +0.342 C 
ENDBRANCH  20  23
ENDBRANCH   3  19
BRANCH   4  27
ATOM     27  O   UNL     1     -34.748  21.458   1.718  0.00  0.00    -0.450 OA
BRANCH  27  29
ATOM     28  O   UNL     1     -35.844  19.463   1.375  0.00  0.00    -0.245 OA
ATOM     29  C   UNL     1     -34.832  20.145   1.403  0.00  0.00    +0.343 C 
BRANCH  29  31
ATOM     30  N   UNL     1     -31.855  17.841   1.308  0.00  0.00    -0.242 NA
ATOM     31  C   UNL     1     -33.483  19.613   1.082  0.00  0.00    +0.095 C 
ATOM     32  C   UNL     1     -32.599  20.334   0.287  0.00  0.00    +0.010 C 
ATOM     33  C   UNL     1     -33.066  18.382   1.563  0.00  0.00    +0.105 C 
ATOM     34  C   UNL     1     -31.343  19.810   0.002  0.00  0.00    +0.021 C 
ATOM     35  C   UNL     1     -31.022  18.570   0.532  0.00  0.00    +0.099 C 
ENDBRANCH  29  31
ENDBRANCH  27  29
ENDBRANCH   4  27
TORSDOF 7
ENDMDL
MODEL 7
REMARK VINA RESULT:      -6.0      3.685      5.803
REMARK  Name = 52950369
REMARK  7 active torsions:
REMARK  status: ('A' for Active; 'I' for Inactive)
REMARK    1  A    between atoms: C_3  and  C_19
REMARK    2  A    between atoms: C_4  and  O_27
REMARK    3  A    between atoms: C_5  and  O_15
REMARK    4  A    between atoms: C_6  and  O_17
REMARK    5  A    between atoms: C_20  and  C_23
REMARK    6  A    between atoms: O_27  and  C_29
REMARK    7  A    between atoms: C_29  and  C_31
REMARK                            x       y       z     vdW  Elec       q    Type
REMARK                         _______ _______ _______ _____ _____    ______ ____
ROOT
ATOM      1  C   UNL     1     -36.308  22.935   2.324  0.00  0.00    +0.013 C 
ATOM      2  C   UNL     1     -35.802  23.648   3.646  0.00  0.00    +0.042 C 
ATOM      3  C   UNL     1     -36.848  23.871   1.175  0.00  0.00    +0.055 C 
ATOM      4  C   UNL     1     -37.956  24.821   1.764  0.00  0.00    +0.166 C 
ATOM      5  C   UNL     1     -36.926  24.626   4.120  0.00  0.00    +0.144 C 
ATOM      6  C   UNL     1     -37.439  25.567   3.014  0.00  0.00    +0.174 C 
ATOM      7  C   UNL     1     -35.285  21.875   1.853  0.00  0.00    +0.005 C 
ATOM      8  C   UNL     1     -35.503  22.540   4.693  0.00  0.00    -0.046 C 
ATOM      9  C   UNL     1     -34.465  24.416   3.482  0.00  0.00    +0.007 C 
ATOM     10  C   UNL     1     -35.732  24.666   0.465  0.00  0.00    +0.008 C 
ATOM     11  C   UNL     1     -35.096  20.792   2.914  0.00  0.00    +0.025 C 
ATOM     12  C   UNL     1     -38.522  25.820   0.735  0.00  0.00    +0.047 C 
ATOM     13  C   UNL     1     -35.185  21.283   4.324  0.00  0.00    -0.035 C 
ATOM     14  C   UNL     1     -35.529  22.875   6.163  0.00  0.00    +0.026 C 
ENDROOT
BRANCH   5  15
ATOM     15  O   UNL     1     -36.437  25.461   5.179  0.00  0.00    -0.382 OA
ATOM     16  H   UNL     1     -37.171  25.973   5.554  0.00  0.00    +0.210 HD
ENDBRANCH   5  15
BRANCH   6  17
ATOM     17  O   UNL     1     -38.498  26.344   3.591  0.00  0.00    -0.379 OA
ATOM     18  H   UNL     1     -38.761  25.953   4.439  0.00  0.00    +0.211 HD
ENDBRANCH   6  17
BRANCH   3  19
ATOM     19  C   UNL     1     -37.469  22.988   0.096  0.00  0.00    -0.024 C 
ATOM     20  C   UNL     1     -37.268  23.167  -1.216  0.00  0.00    -0.005 C 
BRANCH  20  23
ATOM     21  O   UNL     1     -38.944  21.738  -4.149  0.00  0.00    -0.440 OA
ATOM     22  O   UNL     1     -38.823  19.467  -3.795  0.00  0.00    -0.245 OA
ATOM     23  C   UNL     1     -37.857  22.336  -2.227  0.00  0.00    +0.027 C 
ATOM     24  C   UNL     1     -38.507  22.896  -3.428  0.00  0.00    +0.236 C 
ATOM     25  C   UNL     1     -37.900  21.006  -2.226  0.00  0.00    +0.081 C 
ATOM     26  C   UNL     1     -38.595  20.615  -3.455  0.00  0.00    +0.342 C 
ENDBRANCH  20  23
ENDBRANCH   3  19
BRANCH   4  27
ATOM     27  O   UNL     1     -39.066  24.022   2.221  0.00  0.00    -0.450 OA
BRANCH  27  29
ATOM     28  O   UNL     1     -40.940  25.317   1.892  0.00  0.00    -0.245 OA
ATOM     29  C   UNL     1     -40.263  24.326   1.669  0.00  0.00    +0.343 C 
BRANCH  29  31
ATOM     30  N   UNL     1     -40.829  20.903   0.206  0.00  0.00    -0.242 NA
ATOM     31  C   UNL     1     -40.669  23.259   0.719  0.00  0.00    +0.095 C 
ATOM     32  C   UNL     1     -41.254  23.573  -0.503  0.00  0.00    +0.010 C 
ATOM     33  C   UNL     1     -40.481  21.921   1.023  0.00  0.00    +0.105 C 
ATOM     34  C   UNL     1     -41.626  22.553  -1.371  0.00  0.00    +0.021 C 
ATOM     35  C   UNL     1     -41.394  21.245  -0.973  0.00  0.00    +0.099 C 
ENDBRANCH  29  31
ENDBRANCH  27  29
ENDBRANCH   4  27
TORSDOF 7
ENDMDL
MODEL 8
REMARK VINA RESULT:      -6.0      2.411      5.034
REMARK  Name = 52950369
REMARK  7 active torsions:
REMARK  status: ('A' for Active; 'I' for Inactive)
REMARK    1  A    between atoms: C_3  and  C_19
REMARK    2  A    between atoms: C_4  and  O_27
REMARK    3  A    between atoms: C_5  and  O_15
REMARK    4  A    between atoms: C_6  and  O_17
REMARK    5  A    between atoms: C_20  and  C_23
REMARK    6  A    between atoms: O_27  and  C_29
REMARK    7  A    between atoms: C_29  and  C_31
REMARK                            x       y       z     vdW  Elec       q    Type
REMARK                         _______ _______ _______ _____ _____    ______ ____
ROOT
ATOM      1  C   UNL     1     -37.377  24.015   1.215  0.00  0.00    +0.013 C 
ATOM      2  C   UNL     1     -38.629  24.769   1.826  0.00  0.00    +0.042 C 
ATOM      3  C   UNL     1     -36.338  23.417   2.239  0.00  0.00    +0.055 C 
ATOM      4  C   UNL     1     -35.885  24.551   3.233  0.00  0.00    +0.166 C 
ATOM      5  C   UNL     1     -38.098  25.820   2.854  0.00  0.00    +0.144 C 
ATOM      6  C   UNL     1     -37.106  25.240   3.880  0.00  0.00    +0.174 C 
ATOM      7  C   UNL     1     -37.823  23.026   0.112  0.00  0.00    +0.005 C 
ATOM      8  C   UNL     1     -39.401  25.430   0.651  0.00  0.00    -0.046 C 
ATOM      9  C   UNL     1     -39.662  23.836   2.509  0.00  0.00    +0.007 C 
ATOM     10  C   UNL     1     -36.871  22.178   2.991  0.00  0.00    +0.008 C 
ATOM     11  C   UNL     1     -38.517  23.764  -1.032  0.00  0.00    +0.025 C 
ATOM     12  C   UNL     1     -34.902  24.065   4.317  0.00  0.00    +0.047 C 
ATOM     13  C   UNL     1     -39.329  24.946  -0.605  0.00  0.00    -0.035 C 
ATOM     14  C   UNL     1     -40.286  26.621   0.916  0.00  0.00    +0.026 C 
ENDROOT
BRANCH   5  15
ATOM     15  O   UNL     1     -39.190  26.373   3.602  0.00  0.00    -0.382 OA
ATOM     16  H   UNL     1     -38.965  26.381   4.546  0.00  0.00    +0.210 HD
ENDBRANCH   5  15
BRANCH   6  17
ATOM     17  O   UNL     1     -36.671  26.336   4.699  0.00  0.00    -0.379 OA
ATOM     18  H   UNL     1     -35.722  26.249   4.877  0.00  0.00    +0.211 HD
ENDBRANCH   6  17
BRANCH   3  19
ATOM     19  C   UNL     1     -35.125  22.927   1.454  0.00  0.00    -0.024 C 
ATOM     20  C   UNL     1     -34.789  21.636   1.338  0.00  0.00    -0.005 C 
BRANCH  20  23
ATOM     21  O   UNL     1     -31.987  19.792  -0.148  0.00  0.00    -0.440 OA
ATOM     22  O   UNL     1     -31.037  21.311  -1.593  0.00  0.00    -0.245 OA
ATOM     23  C   UNL     1     -33.644  21.179   0.600  0.00  0.00    +0.027 C 
ATOM     24  C   UNL     1     -33.099  19.817   0.754  0.00  0.00    +0.236 C 
ATOM     25  C   UNL     1     -32.945  21.886  -0.284  0.00  0.00    +0.081 C 
ATOM     26  C   UNL     1     -31.880  21.004  -0.768  0.00  0.00    +0.342 C 
ENDBRANCH  20  23
ENDBRANCH   3  19
BRANCH   4  27
ATOM     27  O   UNL     1     -35.206  25.583   2.489  0.00  0.00    -0.450 OA
BRANCH  27  29
ATOM     28  O   UNL     1     -33.776  26.301   4.145  0.00  0.00    -0.245 OA
ATOM     29  C   UNL     1     -34.011  25.967   2.994  0.00  0.00    +0.343 C 
BRANCH  29  31
ATOM     30  N   UNL     1     -30.660  26.199   1.291  0.00  0.00    -0.242 NA
ATOM     31  C   UNL     1     -32.976  25.933   1.929  0.00  0.00    +0.095 C 
ATOM     32  C   UNL     1     -33.309  25.615   0.617  0.00  0.00    +0.010 C 
ATOM     33  C   UNL     1     -31.649  26.214   2.211  0.00  0.00    +0.105 C 
ATOM     34  C   UNL     1     -32.320  25.589  -0.359  0.00  0.00    +0.021 C 
ATOM     35  C   UNL     1     -31.021  25.886   0.026  0.00  0.00    +0.099 C 
ENDBRANCH  29  31
ENDBRANCH  27  29
ENDBRANCH   4  27
TORSDOF 7
ENDMDL
MODEL 9
REMARK VINA RESULT:      -6.0      2.944      6.911
REMARK  Name = 52950369
REMARK  7 active torsions:
REMARK  status: ('A' for Active; 'I' for Inactive)
REMARK    1  A    between atoms: C_3  and  C_19
REMARK    2  A    between atoms: C_4  and  O_27
REMARK    3  A    between atoms: C_5  and  O_15
REMARK    4  A    between atoms: C_6  and  O_17
REMARK    5  A    between atoms: C_20  and  C_23
REMARK    6  A    between atoms: O_27  and  C_29
REMARK    7  A    between atoms: C_29  and  C_31
REMARK                            x       y       z     vdW  Elec       q    Type
REMARK                         _______ _______ _______ _____ _____    ______ ____
ROOT
ATOM      1  C   UNL     1     -34.948  21.315   0.223  0.00  0.00    +0.013 C 
ATOM      2  C   UNL     1     -35.205  19.965  -0.566  0.00  0.00    +0.042 C 
ATOM      3  C   UNL     1     -35.822  21.562   1.512  0.00  0.00    +0.055 C 
ATOM      4  C   UNL     1     -37.344  21.408   1.138  0.00  0.00    +0.166 C 
ATOM      5  C   UNL     1     -36.742  19.853  -0.830  0.00  0.00    +0.144 C 
ATOM      6  C   UNL     1     -37.606  20.062   0.429  0.00  0.00    +0.174 C 
ATOM      7  C   UNL     1     -33.432  21.542   0.431  0.00  0.00    +0.005 C 
ATOM      8  C   UNL     1     -34.383  20.025  -1.883  0.00  0.00    -0.046 C 
ATOM      9  C   UNL     1     -34.699  18.695   0.165  0.00  0.00    +0.007 C 
ATOM     10  C   UNL     1     -35.430  20.653   2.696  0.00  0.00    +0.008 C 
ATOM     11  C   UNL     1     -32.709  21.651  -0.911  0.00  0.00    +0.025 C 
ATOM     12  C   UNL     1     -38.294  21.580   2.339  0.00  0.00    +0.047 C 
ATOM     13  C   UNL     1     -33.273  20.783  -1.991  0.00  0.00    -0.035 C 
ATOM     14  C   UNL     1     -34.805  19.190  -3.065  0.00  0.00    +0.026 C 
ENDROOT
BRANCH   5  15
ATOM     15  O   UNL     1     -37.060  18.550  -1.338  0.00  0.00    -0.382 OA
ATOM     16  H   UNL     1     -37.982  18.334  -1.123  0.00  0.00    +0.210 HD
ENDBRANCH   5  15
BRANCH   6  17
ATOM     17  O   UNL     1     -38.976  19.991   0.006  0.00  0.00    -0.379 OA
ATOM     18  H   UNL     1     -39.543  20.395   0.680  0.00  0.00    +0.211 HD
ENDBRANCH   6  17
BRANCH   3  19
ATOM     19  C   UNL     1     -35.568  22.988   1.992  0.00  0.00    -0.024 C 
ATOM     20  C   UNL     1     -35.611  23.357   3.279  0.00  0.00    -0.005 C 
BRANCH  20  23
ATOM     21  O   UNL     1     -35.534  26.603   4.986  0.00  0.00    -0.440 OA
ATOM     22  O   UNL     1     -34.026  27.832   3.755  0.00  0.00    -0.245 OA
ATOM     23  C   UNL     1     -35.374  24.700   3.726  0.00  0.00    +0.027 C 
ATOM     24  C   UNL     1     -36.054  25.271   4.904  0.00  0.00    +0.236 C 
ATOM     25  C   UNL     1     -34.548  25.581   3.168  0.00  0.00    +0.081 C 
ATOM     26  C   UNL     1     -34.645  26.804   3.969  0.00  0.00    +0.342 C 
ENDBRANCH  20  23
ENDBRANCH   3  19
BRANCH   4  27
ATOM     27  O   UNL     1     -37.697  22.427   0.180  0.00  0.00    -0.450 OA
BRANCH  27  29
ATOM     28  O   UNL     1     -39.922  22.864   0.579  0.00  0.00    -0.245 OA
ATOM     29  C   UNL     1     -38.750  23.203   0.524  0.00  0.00    +0.343 C 
BRANCH  29  31
ATOM     30  N   UNL     1     -38.338  26.489   2.317  0.00  0.00    -0.242 NA
ATOM     31  C   UNL     1     -38.284  24.578   0.838  0.00  0.00    +0.095 C 
ATOM     32  C   UNL     1     -37.391  25.240   0.003  0.00  0.00    +0.010 C 
ATOM     33  C   UNL     1     -38.723  25.240   1.973  0.00  0.00    +0.105 C 
ATOM     34  C   UNL     1     -36.971  26.526   0.323  0.00  0.00    +0.021 C 
ATOM     35  C   UNL     1     -37.469  27.101   1.482  0.00  0.00    +0.099 C 
ENDBRANCH  29  31
ENDBRANCH  27  29
ENDBRANCH   4  27
TORSDOF 7
ENDMDL
