MODEL 1
REMARK VINA RESULT:      -6.2      0.000      0.000
REMARK  Name = 195734
REMARK  3 active torsions:
REMARK  status: ('A' for Active; 'I' for Inactive)
REMARK    1  A    between atoms: C_4  and  O_18
REMARK    2  A    between atoms: C_14  and  O_20
REMARK    3  A    between atoms: C_16  and  O_22
REMARK                            x       y       z     vdW  Elec       q    Type
REMARK                         _______ _______ _______ _____ _____    ______ ____
ROOT
ATOM      1  O   UNL     1     -36.602  19.798  -0.076  0.00  0.00    -0.329 OA
ATOM      2  O   UNL     1     -37.880  24.445   1.199  0.00  0.00    -0.287 OA
ATOM      3  O   UNL     1     -35.215  20.625   3.826  0.00  0.00    -0.287 OA
ATOM      4  C   UNL     1     -37.854  20.419  -0.382  0.00  0.00    +0.188 C 
ATOM      5  C   UNL     1     -37.750  21.927  -0.094  0.00  0.00    +0.085 C 
ATOM      6  C   UNL     1     -37.113  22.205   1.243  0.00  0.00    +0.023 C 
ATOM      7  C   UNL     1     -36.434  21.250   1.894  0.00  0.00    +0.046 C 
ATOM      8  C   UNL     1     -36.251  19.875   1.309  0.00  0.00    +0.174 C 
ATOM      9  C   UNL     1     -37.273  23.570   1.807  0.00  0.00    +0.192 C 
ATOM     10  C   UNL     1     -35.824  21.503   3.225  0.00  0.00    +0.197 C 
ATOM     11  C   UNL     1     -36.676  23.844   3.127  0.00  0.00    +0.048 C 
ATOM     12  C   UNL     1     -35.977  22.848   3.810  0.00  0.00    +0.076 C 
ATOM     13  C   UNL     1     -38.137  20.188  -1.867  0.00  0.00    +0.061 C 
ATOM     14  C   UNL     1     -35.415  23.125   5.062  0.00  0.00    +0.140 C 
ATOM     15  C   UNL     1     -36.813  25.116   3.695  0.00  0.00    +0.040 C 
ATOM     16  C   UNL     1     -36.251  25.387   4.944  0.00  0.00    +0.137 C 
ATOM     17  C   UNL     1     -35.553  24.393   5.625  0.00  0.00    +0.073 C 
ENDROOT
BRANCH   4  18
ATOM     18  O   UNL     1     -38.938  19.875   0.375  0.00  0.00    -0.363 OA
ATOM     19  H   UNL     1     -39.437  19.252  -0.176  0.00  0.00    +0.213 HD
ENDBRANCH   4  18
BRANCH  14  20
ATOM     20  O   UNL     1     -34.719  22.198   5.781  0.00  0.00    -0.505 OA
ATOM     21  H   UNL     1     -33.865  21.932   5.501  0.00  0.00    +0.292 HD
ENDBRANCH  14  20
BRANCH  16  22
ATOM     22  O   UNL     1     -36.385  26.625   5.494  0.00  0.00    -0.505 OA
ATOM     23  H   UNL     1     -36.253  27.389   4.968  0.00  0.00    +0.292 HD
ENDBRANCH  16  22
TORSDOF 3
ENDMDL
MODEL 2
REMARK VINA RESULT:      -6.0      3.083      6.569
REMARK  Name = 195734
REMARK  3 active torsions:
REMARK  status: ('A' for Active; 'I' for Inactive)
REMARK    1  A    between atoms: C_4  and  O_18
REMARK    2  A    between atoms: C_14  and  O_20
REMARK    3  A    between atoms: C_16  and  O_22
REMARK                            x       y       z     vdW  Elec       q    Type
REMARK                         _______ _______ _______ _____ _____    ______ ____
ROOT
ATOM      1  O   UNL     1     -33.431  28.466   1.827  0.00  0.00    -0.329 OA
ATOM      2  O   UNL     1     -33.719  25.671   5.946  0.00  0.00    -0.287 OA
ATOM      3  O   UNL     1     -35.265  24.775   0.906  0.00  0.00    -0.287 OA
ATOM      4  C   UNL     1     -33.755  28.956   3.132  0.00  0.00    +0.188 C 
ATOM      5  C   UNL     1     -33.448  27.863   4.170  0.00  0.00    +0.085 C 
ATOM      6  C   UNL     1     -33.982  26.518   3.750  0.00  0.00    +0.023 C 
ATOM      7  C   UNL     1     -34.357  26.291   2.483  0.00  0.00    +0.046 C 
ATOM      8  C   UNL     1     -34.232  27.351   1.422  0.00  0.00    +0.174 C 
ATOM      9  C   UNL     1     -34.080  25.464   4.792  0.00  0.00    +0.192 C 
ATOM     10  C   UNL     1     -34.910  24.977   2.062  0.00  0.00    +0.197 C 
ATOM     11  C   UNL     1     -34.626  24.153   4.397  0.00  0.00    +0.048 C 
ATOM     12  C   UNL     1     -35.025  23.918   3.081  0.00  0.00    +0.076 C 
ATOM     13  C   UNL     1     -32.887  30.187   3.395  0.00  0.00    +0.061 C 
ATOM     14  C   UNL     1     -35.541  22.666   2.721  0.00  0.00    +0.140 C 
ATOM     15  C   UNL     1     -34.742  23.137   5.354  0.00  0.00    +0.040 C 
ATOM     16  C   UNL     1     -35.256  21.891   4.991  0.00  0.00    +0.137 C 
ATOM     17  C   UNL     1     -35.654  21.657   3.677  0.00  0.00    +0.073 C 
ENDROOT
BRANCH   4  18
ATOM     18  O   UNL     1     -35.128  29.337   3.251  0.00  0.00    -0.363 OA
ATOM     19  H   UNL     1     -35.554  29.289   2.380  0.00  0.00    +0.213 HD
ENDBRANCH   4  18
BRANCH  14  20
ATOM     20  O   UNL     1     -35.948  22.372   1.453  0.00  0.00    -0.505 OA
ATOM     21  H   UNL     1     -35.358  21.954   0.857  0.00  0.00    +0.292 HD
ENDBRANCH  14  20
BRANCH  16  22
ATOM     22  O   UNL     1     -35.368  20.906   5.923  0.00  0.00    -0.505 OA
ATOM     23  H   UNL     1     -34.636  20.349   6.107  0.00  0.00    +0.292 HD
ENDBRANCH  16  22
TORSDOF 3
ENDMDL
MODEL 3
REMARK VINA RESULT:      -5.9      2.241      6.436
REMARK  Name = 195734
REMARK  3 active torsions:
REMARK  status: ('A' for Active; 'I' for Inactive)
REMARK    1  A    between atoms: C_4  and  O_18
REMARK    2  A    between atoms: C_14  and  O_20
REMARK    3  A    between atoms: C_16  and  O_22
REMARK                            x       y       z     vdW  Elec       q    Type
REMARK                         _______ _______ _______ _____ _____    ______ ____
ROOT
ATOM      1  O   UNL     1     -33.151  26.336   4.118  0.00  0.00    -0.329 OA
ATOM      2  O   UNL     1     -35.595  22.068   4.935  0.00  0.00    -0.287 OA
ATOM      3  O   UNL     1     -34.219  24.590   0.424  0.00  0.00    -0.287 OA
ATOM      4  C   UNL     1     -34.119  26.128   5.151  0.00  0.00    +0.188 C 
ATOM      5  C   UNL     1     -34.414  24.623   5.267  0.00  0.00    +0.085 C 
ATOM      6  C   UNL     1     -34.646  23.986   3.921  0.00  0.00    +0.023 C 
ATOM      7  C   UNL     1     -34.288  24.614   2.791  0.00  0.00    +0.046 C 
ATOM      8  C   UNL     1     -33.615  25.961   2.818  0.00  0.00    +0.174 C 
ATOM      9  C   UNL     1     -35.287  22.646   3.898  0.00  0.00    +0.192 C 
ATOM     10  C   UNL     1     -34.534  24.009   1.457  0.00  0.00    +0.197 C 
ATOM     11  C   UNL     1     -35.541  22.026   2.585  0.00  0.00    +0.048 C 
ATOM     12  C   UNL     1     -35.177  22.683   1.409  0.00  0.00    +0.076 C 
ATOM     13  C   UNL     1     -33.522  26.647   6.459  0.00  0.00    +0.061 C 
ATOM     14  C   UNL     1     -35.425  22.080   0.169  0.00  0.00    +0.140 C 
ATOM     15  C   UNL     1     -36.151  20.768   2.522  0.00  0.00    +0.040 C 
ATOM     16  C   UNL     1     -36.395  20.171   1.285  0.00  0.00    +0.137 C 
ATOM     17  C   UNL     1     -36.033  20.826   0.111  0.00  0.00    +0.073 C 
ENDROOT
BRANCH   4  18
ATOM     18  O   UNL     1     -35.344  26.824   4.905  0.00  0.00    -0.363 OA
ATOM     19  H   UNL     1     -35.153  27.667   4.463  0.00  0.00    +0.213 HD
ENDBRANCH   4  18
BRANCH  14  20
ATOM     20  O   UNL     1     -35.094  22.667  -1.017  0.00  0.00    -0.505 OA
ATOM     21  H   UNL     1     -34.505  23.396  -1.031  0.00  0.00    +0.292 HD
ENDBRANCH  14  20
BRANCH  16  22
ATOM     22  O   UNL     1     -36.988  18.947   1.227  0.00  0.00    -0.505 OA
ATOM     23  H   UNL     1     -36.467  18.170   1.281  0.00  0.00    +0.292 HD
ENDBRANCH  16  22
TORSDOF 3
ENDMDL
MODEL 4
REMARK VINA RESULT:      -5.9      2.064      2.206
REMARK  Name = 195734
REMARK  3 active torsions:
REMARK  status: ('A' for Active; 'I' for Inactive)
REMARK    1  A    between atoms: C_4  and  O_18
REMARK    2  A    between atoms: C_14  and  O_20
REMARK    3  A    between atoms: C_16  and  O_22
REMARK                            x       y       z     vdW  Elec       q    Type
REMARK                         _______ _______ _______ _____ _____    ______ ____
ROOT
ATOM      1  O   UNL     1     -34.054  19.637   0.206  0.00  0.00    -0.329 OA
ATOM      2  O   UNL     1     -34.563  24.581   0.608  0.00  0.00    -0.287 OA
ATOM      3  O   UNL     1     -35.472  20.603   4.065  0.00  0.00    -0.287 OA
ATOM      4  C   UNL     1     -34.557  20.498  -0.821  0.00  0.00    +0.188 C 
ATOM      5  C   UNL     1     -34.277  21.960  -0.432  0.00  0.00    +0.085 C 
ATOM      6  C   UNL     1     -34.652  22.247   0.999  0.00  0.00    +0.023 C 
ATOM      7  C   UNL     1     -34.867  21.248   1.868  0.00  0.00    +0.046 C 
ATOM      8  C   UNL     1     -34.714  19.806   1.465  0.00  0.00    +0.174 C 
ATOM      9  C   UNL     1     -34.778  23.671   1.402  0.00  0.00    +0.192 C 
ATOM     10  C   UNL     1     -35.263  21.517   3.275  0.00  0.00    +0.197 C 
ATOM     11  C   UNL     1     -35.170  23.962   2.793  0.00  0.00    +0.048 C 
ATOM     12  C   UNL     1     -35.403  22.923   3.696  0.00  0.00    +0.076 C 
ATOM     13  C   UNL     1     -33.824  20.151  -2.117  0.00  0.00    +0.061 C 
ATOM     14  C   UNL     1     -35.774  23.216   5.015  0.00  0.00    +0.140 C 
ATOM     15  C   UNL     1     -35.307  25.291   3.208  0.00  0.00    +0.040 C 
ATOM     16  C   UNL     1     -35.677  25.578   4.523  0.00  0.00    +0.137 C 
ATOM     17  C   UNL     1     -35.909  24.542   5.424  0.00  0.00    +0.073 C 
ENDROOT
BRANCH   4  18
ATOM     18  O   UNL     1     -35.961  20.335  -1.036  0.00  0.00    -0.363 OA
ATOM     19  H   UNL     1     -36.228  20.836  -1.822  0.00  0.00    +0.213 HD
ENDBRANCH   4  18
BRANCH  14  20
ATOM     20  O   UNL     1     -36.015  22.249   5.946  0.00  0.00    -0.505 OA
ATOM     21  H   UNL     1     -35.301  21.858   6.411  0.00  0.00    +0.292 HD
ENDBRANCH  14  20
BRANCH  16  22
ATOM     22  O   UNL     1     -35.809  26.872   4.924  0.00  0.00    -0.505 OA
ATOM     23  H   UNL     1     -36.505  27.400   4.583  0.00  0.00    +0.292 HD
ENDBRANCH  16  22
TORSDOF 3
ENDMDL
MODEL 5
REMARK VINA RESULT:      -5.8      2.624      6.234
REMARK  Name = 195734
REMARK  3 active torsions:
REMARK  status: ('A' for Active; 'I' for Inactive)
REMARK    1  A    between atoms: C_4  and  O_18
REMARK    2  A    between atoms: C_14  and  O_20
REMARK    3  A    between atoms: C_16  and  O_22
REMARK                            x       y       z     vdW  Elec       q    Type
REMARK                         _______ _______ _______ _____ _____    ______ ____
ROOT
ATOM      1  O   UNL     1     -33.973  27.395   4.906  0.00  0.00    -0.329 OA
ATOM      2  O   UNL     1     -34.456  24.993   0.564  0.00  0.00    -0.287 OA
ATOM      3  O   UNL     1     -34.894  23.337   5.630  0.00  0.00    -0.287 OA
ATOM      4  C   UNL     1     -33.143  27.598   3.758  0.00  0.00    +0.188 C 
ATOM      5  C   UNL     1     -33.789  26.908   2.543  0.00  0.00    +0.085 C 
ATOM      6  C   UNL     1     -34.247  25.509   2.866  0.00  0.00    +0.023 C 
ATOM      7  C   UNL     1     -34.369  25.099   4.137  0.00  0.00    +0.046 C 
ATOM      8  C   UNL     1     -34.086  26.022   5.292  0.00  0.00    +0.174 C 
ATOM      9  C   UNL     1     -34.551  24.608   1.724  0.00  0.00    +0.192 C 
ATOM     10  C   UNL     1     -34.796  23.715   4.467  0.00  0.00    +0.197 C 
ATOM     11  C   UNL     1     -34.976  23.229   2.029  0.00  0.00    +0.048 C 
ATOM     12  C   UNL     1     -35.094  22.800   3.351  0.00  0.00    +0.076 C 
ATOM     13  C   UNL     1     -33.047  29.104   3.514  0.00  0.00    +0.061 C 
ATOM     14  C   UNL     1     -35.500  21.487   3.624  0.00  0.00    +0.140 C 
ATOM     15  C   UNL     1     -35.264  22.348   0.980  0.00  0.00    +0.040 C 
ATOM     16  C   UNL     1     -35.667  21.041   1.256  0.00  0.00    +0.137 C 
ATOM     17  C   UNL     1     -35.785  20.612   2.575  0.00  0.00    +0.073 C 
ENDROOT
BRANCH   4  18
ATOM     18  O   UNL     1     -31.822  27.083   3.937  0.00  0.00    -0.363 OA
ATOM     19  H   UNL     1     -31.521  27.272   4.840  0.00  0.00    +0.213 HD
ENDBRANCH   4  18
BRANCH  14  20
ATOM     20  O   UNL     1     -35.637  21.004   4.892  0.00  0.00    -0.505 OA
ATOM     21  H   UNL     1     -34.948  21.126   5.516  0.00  0.00    +0.292 HD
ENDBRANCH  14  20
BRANCH  16  22
ATOM     22  O   UNL     1     -35.946  20.187   0.234  0.00  0.00    -0.505 OA
ATOM     23  H   UNL     1     -35.406  19.434   0.091  0.00  0.00    +0.292 HD
ENDBRANCH  16  22
TORSDOF 3
ENDMDL
MODEL 6
REMARK VINA RESULT:      -5.8      2.062      5.679
REMARK  Name = 195734
REMARK  3 active torsions:
REMARK  status: ('A' for Active; 'I' for Inactive)
REMARK    1  A    between atoms: C_4  and  O_18
REMARK    2  A    between atoms: C_14  and  O_20
REMARK    3  A    between atoms: C_16  and  O_22
REMARK                            x       y       z     vdW  Elec       q    Type
REMARK                         _______ _______ _______ _____ _____    ______ ____
ROOT
ATOM      1  O   UNL     1     -34.104  24.310   5.709  0.00  0.00    -0.329 OA
ATOM      2  O   UNL     1     -38.099  26.246   3.438  0.00  0.00    -0.287 OA
ATOM      3  O   UNL     1     -35.982  21.336   3.371  0.00  0.00    -0.287 OA
ATOM      4  C   UNL     1     -34.168  25.618   5.130  0.00  0.00    +0.188 C 
ATOM      5  C   UNL     1     -35.634  25.952   4.805  0.00  0.00    +0.085 C 
ATOM      6  C   UNL     1     -36.331  24.817   4.102  0.00  0.00    +0.023 C 
ATOM      7  C   UNL     1     -35.806  23.583   4.098  0.00  0.00    +0.046 C 
ATOM      8  C   UNL     1     -34.520  23.271   4.816  0.00  0.00    +0.174 C 
ATOM      9  C   UNL     1     -37.613  25.120   3.415  0.00  0.00    +0.192 C 
ATOM     10  C   UNL     1     -36.470  22.460   3.386  0.00  0.00    +0.197 C 
ATOM     11  C   UNL     1     -38.290  24.021   2.702  0.00  0.00    +0.048 C 
ATOM     12  C   UNL     1     -37.739  22.739   2.689  0.00  0.00    +0.076 C 
ATOM     13  C   UNL     1     -33.620  26.608   6.158  0.00  0.00    +0.061 C 
ATOM     14  C   UNL     1     -38.395  21.706   2.009  0.00  0.00    +0.140 C 
ATOM     15  C   UNL     1     -39.496  24.270   2.036  0.00  0.00    +0.040 C 
ATOM     16  C   UNL     1     -40.145  23.238   1.359  0.00  0.00    +0.137 C 
ATOM     17  C   UNL     1     -39.596  21.958   1.346  0.00  0.00    +0.073 C 
ENDROOT
BRANCH   4  18
ATOM     18  O   UNL     1     -33.390  25.728   3.935  0.00  0.00    -0.363 OA
ATOM     19  H   UNL     1     -33.575  26.578   3.507  0.00  0.00    +0.213 HD
ENDBRANCH   4  18
BRANCH  14  20
ATOM     20  O   UNL     1     -37.912  20.431   1.958  0.00  0.00    -0.505 OA
ATOM     21  H   UNL     1     -37.981  19.936   1.166  0.00  0.00    +0.292 HD
ENDBRANCH  14  20
BRANCH  16  22
ATOM     22  O   UNL     1     -41.318  23.483   0.712  0.00  0.00    -0.505 OA
ATOM     23  H   UNL     1     -41.357  24.141   0.046  0.00  0.00    +0.292 HD
ENDBRANCH  16  22
TORSDOF 3
ENDMDL
MODEL 7
REMARK VINA RESULT:      -5.7      3.547      6.157
REMARK  Name = 195734
REMARK  3 active torsions:
REMARK  status: ('A' for Active; 'I' for Inactive)
REMARK    1  A    between atoms: C_4  and  O_18
REMARK    2  A    between atoms: C_14  and  O_20
REMARK    3  A    between atoms: C_16  and  O_22
REMARK                            x       y       z     vdW  Elec       q    Type
REMARK                         _______ _______ _______ _____ _____    ______ ____
ROOT
ATOM      1  O   UNL     1     -36.731  23.584   4.818  0.00  0.00    -0.329 OA
ATOM      2  O   UNL     1     -32.737  26.534   4.367  0.00  0.00    -0.287 OA
ATOM      3  O   UNL     1     -37.623  26.781   2.206  0.00  0.00    -0.287 OA
ATOM      4  C   UNL     1     -35.379  23.127   4.722  0.00  0.00    +0.188 C 
ATOM      5  C   UNL     1     -34.430  24.325   4.902  0.00  0.00    +0.085 C 
ATOM      6  C   UNL     1     -34.852  25.510   4.072  0.00  0.00    +0.023 C 
ATOM      7  C   UNL     1     -36.082  25.576   3.542  0.00  0.00    +0.046 C 
ATOM      8  C   UNL     1     -37.101  24.493   3.776  0.00  0.00    +0.174 C 
ATOM      9  C   UNL     1     -33.855  26.591   3.864  0.00  0.00    +0.192 C 
ATOM     10  C   UNL     1     -36.503  26.727   2.701  0.00  0.00    +0.197 C 
ATOM     11  C   UNL     1     -34.250  27.742   3.033  0.00  0.00    +0.048 C 
ATOM     12  C   UNL     1     -35.526  27.808   2.473  0.00  0.00    +0.076 C 
ATOM     13  C   UNL     1     -35.152  22.108   5.840  0.00  0.00    +0.061 C 
ATOM     14  C   UNL     1     -35.887  28.910   1.686  0.00  0.00    +0.140 C 
ATOM     15  C   UNL     1     -33.334  28.777   2.807  0.00  0.00    +0.040 C 
ATOM     16  C   UNL     1     -33.697  29.872   2.022  0.00  0.00    +0.137 C 
ATOM     17  C   UNL     1     -34.971  29.938   1.464  0.00  0.00    +0.073 C 
ENDROOT
BRANCH   4  18
ATOM     18  O   UNL     1     -35.099  22.496   3.471  0.00  0.00    -0.363 OA
ATOM     19  H   UNL     1     -34.339  22.930   3.052  0.00  0.00    +0.213 HD
ENDBRANCH   4  18
BRANCH  14  20
ATOM     20  O   UNL     1     -37.117  29.036   1.111  0.00  0.00    -0.505 OA
ATOM     21  H   UNL     1     -37.333  29.813   0.634  0.00  0.00    +0.292 HD
ENDBRANCH  14  20
BRANCH  16  22
ATOM     22  O   UNL     1     -32.805  30.877   1.804  0.00  0.00    -0.505 OA
ATOM     23  H   UNL     1     -31.896  30.746   1.992  0.00  0.00    +0.292 HD
ENDBRANCH  16  22
TORSDOF 3
ENDMDL
MODEL 8
REMARK VINA RESULT:      -5.6      2.910      5.837
REMARK  Name = 195734
REMARK  3 active torsions:
REMARK  status: ('A' for Active; 'I' for Inactive)
REMARK    1  A    between atoms: C_4  and  O_18
REMARK    2  A    between atoms: C_14  and  O_20
REMARK    3  A    between atoms: C_16  and  O_22
REMARK                            x       y       z     vdW  Elec       q    Type
REMARK                         _______ _______ _______ _____ _____    ______ ____
ROOT
ATOM      1  O   UNL     1     -39.473  21.886   0.287  0.00  0.00    -0.329 OA
ATOM      2  O   UNL     1     -35.254  21.220   2.860  0.00  0.00    -0.287 OA
ATOM      3  O   UNL     1     -37.370  18.575  -1.278  0.00  0.00    -0.287 OA
ATOM      4  C   UNL     1     -39.344  22.028   1.705  0.00  0.00    +0.188 C 
ATOM      5  C   UNL     1     -37.850  22.042   2.075  0.00  0.00    +0.085 C 
ATOM      6  C   UNL     1     -37.087  20.940   1.386  0.00  0.00    +0.023 C 
ATOM      7  C   UNL     1     -37.614  20.286   0.340  0.00  0.00    +0.046 C 
ATOM      8  C   UNL     1     -38.969  20.642  -0.210  0.00  0.00    +0.174 C 
ATOM      9  C   UNL     1     -35.739  20.607   1.914  0.00  0.00    +0.192 C 
ATOM     10  C   UNL     1     -36.882  19.181  -0.331  0.00  0.00    +0.197 C 
ATOM     11  C   UNL     1     -34.995  19.513   1.264  0.00  0.00    +0.048 C 
ATOM     12  C   UNL     1     -35.546  18.827   0.181  0.00  0.00    +0.076 C 
ATOM     13  C   UNL     1     -39.993  23.354   2.101  0.00  0.00    +0.061 C 
ATOM     14  C   UNL     1     -34.825  17.790  -0.426  0.00  0.00    +0.140 C 
ATOM     15  C   UNL     1     -33.724  19.165   1.738  0.00  0.00    +0.040 C 
ATOM     16  C   UNL     1     -33.011  18.132   1.130  0.00  0.00    +0.137 C 
ATOM     17  C   UNL     1     -33.560  17.447   0.050  0.00  0.00    +0.073 C 
ENDROOT
BRANCH   4  18
ATOM     18  O   UNL     1     -39.991  20.975   2.424  0.00  0.00    -0.363 OA
ATOM     19  H   UNL     1     -39.406  20.201   2.460  0.00  0.00    +0.213 HD
ENDBRANCH   4  18
BRANCH  14  20
ATOM     20  O   UNL     1     -35.305  17.081  -1.487  0.00  0.00    -0.505 OA
ATOM     21  H   UNL     1     -34.718  16.773  -2.150  0.00  0.00    +0.292 HD
ENDBRANCH  14  20
BRANCH  16  22
ATOM     22  O   UNL     1     -31.776  17.796   1.594  0.00  0.00    -0.505 OA
ATOM     23  H   UNL     1     -31.687  17.147   2.264  0.00  0.00    +0.292 HD
ENDBRANCH  16  22
TORSDOF 3
ENDMDL
MODEL 9
REMARK VINA RESULT:      -5.5      4.083      6.067
REMARK  Name = 195734
REMARK  3 active torsions:
REMARK  status: ('A' for Active; 'I' for Inactive)
REMARK    1  A    between atoms: C_4  and  O_18
REMARK    2  A    between atoms: C_14  and  O_20
REMARK    3  A    between atoms: C_16  and  O_22
REMARK                            x       y       z     vdW  Elec       q    Type
REMARK                         _______ _______ _______ _____ _____    ______ ____
ROOT
ATOM      1  O   UNL     1     -35.487  23.571   4.732  0.00  0.00    -0.329 OA
ATOM      2  O   UNL     1     -34.514  27.433   1.733  0.00  0.00    -0.287 OA
ATOM      3  O   UNL     1     -33.081  26.376   6.776  0.00  0.00    -0.287 OA
ATOM      4  C   UNL     1     -36.426  24.169   3.832  0.00  0.00    +0.188 C 
ATOM      5  C   UNL     1     -35.674  25.115   2.880  0.00  0.00    +0.085 C 
ATOM      6  C   UNL     1     -34.707  26.008   3.615  0.00  0.00    +0.023 C 
ATOM      7  C   UNL     1     -34.339  25.734   4.875  0.00  0.00    +0.046 C 
ATOM      8  C   UNL     1     -34.845  24.514   5.596  0.00  0.00    +0.174 C 
ATOM      9  C   UNL     1     -34.188  27.197   2.892  0.00  0.00    +0.192 C 
ATOM     10  C   UNL     1     -33.407  26.619   5.619  0.00  0.00    +0.197 C 
ATOM     11  C   UNL     1     -33.262  28.091   3.611  0.00  0.00    +0.048 C 
ATOM     12  C   UNL     1     -32.885  27.811   4.925  0.00  0.00    +0.076 C 
ATOM     13  C   UNL     1     -37.089  23.045   3.037  0.00  0.00    +0.061 C 
ATOM     14  C   UNL     1     -32.003  28.670   5.595  0.00  0.00    +0.140 C 
ATOM     15  C   UNL     1     -32.758  29.226   2.966  0.00  0.00    +0.040 C 
ATOM     16  C   UNL     1     -31.880  30.079   3.637  0.00  0.00    +0.137 C 
ATOM     17  C   UNL     1     -31.504  29.800   4.949  0.00  0.00    +0.073 C 
ENDROOT
BRANCH   4  18
ATOM     18  O   UNL     1     -37.445  24.907   4.511  0.00  0.00    -0.363 OA
ATOM     19  H   UNL     1     -38.081  24.290   4.906  0.00  0.00    +0.213 HD
ENDBRANCH   4  18
BRANCH  14  20
ATOM     20  O   UNL     1     -31.595  28.455   6.878  0.00  0.00    -0.505 OA
ATOM     21  H   UNL     1     -31.704  27.610   7.269  0.00  0.00    +0.292 HD
ENDBRANCH  14  20
BRANCH  16  22
ATOM     22  O   UNL     1     -31.392  31.182   3.008  0.00  0.00    -0.505 OA
ATOM     23  H   UNL     1     -31.655  32.037   3.288  0.00  0.00    +0.292 HD
ENDBRANCH  16  22
TORSDOF 3
ENDMDL
