MODEL 1
REMARK VINA RESULT:      -7.3      0.000      0.000
REMARK  Name = 54339260
REMARK  7 active torsions:
REMARK  status: ('A' for Active; 'I' for Inactive)
REMARK    1  A    between atoms: N_1  and  C1*_18
REMARK    2  A    between atoms: N_2  and  C_11
REMARK    3  A    between atoms: N_2  and  N_32
REMARK    4  A    between atoms: C2*_19  and  O2*_22
REMARK    5  A    between atoms: C3*_20  and  O3*_24
REMARK    6  A    between atoms: C4*_21  and  C5*_26
REMARK    7  A    between atoms: C5*_26  and  O5*_27
REMARK                            x       y       z     vdW  Elec       q    Type
REMARK                         _______ _______ _______ _____ _____    ______ ____
ROOT
ATOM      1  N   UNL     1     -37.466  23.543   2.892  0.00  0.00    -0.236 N 
ATOM      2  N   UNL     1     -36.060  19.783   0.350  0.00  0.00    -0.163 N 
ATOM      3  N   UNL     1     -36.554  21.655   1.665  0.00  0.00    -0.310 NA
ATOM      4  N   UNL     1     -39.603  23.406   2.272  0.00  0.00    -0.240 NA
ATOM      5  N   UNL     1     -38.285  20.518   0.375  0.00  0.00    -0.311 NA
ATOM      6  C   UNL     1     -37.548  22.471   2.051  0.00  0.00    +0.221 C 
ATOM      7  C   UNL     1     -37.021  20.706   0.826  0.00  0.00    +0.220 C 
ATOM      8  C   UNL     1     -38.726  24.071   2.994  0.00  0.00    +0.224 C 
ATOM      9  C   UNL     1     -38.880  22.403   1.677  0.00  0.00    +0.167 C 
ATOM     10  C   UNL     1     -39.237  21.379   0.805  0.00  0.00    +0.212 C 
ATOM     11  N   UNL     1     -40.568  21.234   0.375  0.00  0.00    -0.331 N 
ATOM     12  H   UNL     1     -40.809  20.505  -0.242  0.00  0.00    +0.145 HD
ATOM     13  H   UNL     1     -41.258  21.862   0.689  0.00  0.00    +0.145 HD
ENDROOT
BRANCH   2  14
ATOM     14  C   UNL     1     -34.675  19.881   0.760  0.00  0.00    +0.103 C 
ATOM     15  C   UNL     1     -33.895  20.699  -0.272  0.00  0.00    +0.022 C 
ATOM     16  C   UNL     1     -34.085  18.479   0.922  0.00  0.00    +0.022 C 
ATOM     17  C   UNL     1     -32.407  20.751   0.063  0.00  0.00    +0.002 C 
ATOM     18  C   UNL     1     -32.597  18.534   1.258  0.00  0.00    +0.002 C 
ATOM     19  C   UNL     1     -31.818  19.353   0.231  0.00  0.00    +0.000 C 
ENDBRANCH   2  14
BRANCH   1  21
ATOM     20  O4* UNL     1     -35.368  22.974   4.003  0.00  0.00    -0.333 OA
ATOM     21  C1* UNL     1     -36.228  24.056   3.587  0.00  0.00    +0.226 C 
ATOM     22  C2* UNL     1     -36.539  24.846   4.854  0.00  0.00    +0.187 C 
ATOM     23  C3* UNL     1     -35.259  24.686   5.649  0.00  0.00    +0.171 C 
ATOM     24  C4* UNL     1     -34.860  23.251   5.327  0.00  0.00    +0.175 C 
BRANCH  22  25
ATOM     25  O2* UNL     1     -36.864  26.199   4.596  0.00  0.00    -0.378 OA
ATOM     26  H2* UNL     1     -37.087  26.304   3.658  0.00  0.00    +0.211 HD
ENDBRANCH  22  25
BRANCH  23  27
ATOM     27  O3* UNL     1     -34.245  25.550   5.138  0.00  0.00    -0.379 OA
ATOM     28  H3* UNL     1     -33.525  25.019   4.766  0.00  0.00    +0.211 HD
ENDBRANCH  23  27
BRANCH  24  29
ATOM     29  C5* UNL     1     -35.460  22.235   6.289  0.00  0.00    +0.169 C 
BRANCH  29  30
ATOM     30  O5* UNL     1     -35.280  20.937   5.749  0.00  0.00    -0.379 OA
ATOM     31  H5* UNL     1     -35.497  20.948   4.804  0.00  0.00    +0.211 HD
ENDBRANCH  29  30
ENDBRANCH  24  29
ENDBRANCH   1  21
BRANCH   2  32
ATOM     32  N   UNL     1     -36.509  18.598  -0.164  0.00  0.00    -0.118 NA
ATOM     33  C   UNL     1     -36.542  18.561  -1.454  0.00  0.00    +0.133 C 
ENDBRANCH   2  32
TORSDOF 7
ENDMDL
MODEL 2
REMARK VINA RESULT:      -6.6      1.541      2.383
REMARK  Name = 54339260
REMARK  7 active torsions:
REMARK  status: ('A' for Active; 'I' for Inactive)
REMARK    1  A    between atoms: N_1  and  C1*_18
REMARK    2  A    between atoms: N_2  and  C_11
REMARK    3  A    between atoms: N_2  and  N_32
REMARK    4  A    between atoms: C2*_19  and  O2*_22
REMARK    5  A    between atoms: C3*_20  and  O3*_24
REMARK    6  A    between atoms: C4*_21  and  C5*_26
REMARK    7  A    between atoms: C5*_26  and  O5*_27
REMARK                            x       y       z     vdW  Elec       q    Type
REMARK                         _______ _______ _______ _____ _____    ______ ____
ROOT
ATOM      1  N   UNL     1     -38.090  22.352   2.221  0.00  0.00    -0.236 N 
ATOM      2  N   UNL     1     -35.743  19.059  -0.273  0.00  0.00    -0.163 N 
ATOM      3  N   UNL     1     -36.720  20.717   1.059  0.00  0.00    -0.310 NA
ATOM      4  N   UNL     1     -40.032  22.041   1.170  0.00  0.00    -0.240 NA
ATOM      5  N   UNL     1     -38.008  19.533  -0.643  0.00  0.00    -0.311 NA
ATOM      6  C   UNL     1     -37.868  21.371   1.297  0.00  0.00    +0.221 C 
ATOM      7  C   UNL     1     -36.890  19.814   0.069  0.00  0.00    +0.220 C 
ATOM      8  C   UNL     1     -39.404  22.723   2.106  0.00  0.00    +0.224 C 
ATOM      9  C   UNL     1     -39.083  21.193   0.656  0.00  0.00    +0.167 C 
ATOM     10  C   UNL     1     -39.130  20.232  -0.348  0.00  0.00    +0.212 C 
ATOM     11  N   UNL     1     -40.322  19.985  -1.051  0.00  0.00    -0.331 N 
ATOM     12  H   UNL     1     -40.342  19.302  -1.760  0.00  0.00    +0.145 HD
ATOM     13  H   UNL     1     -41.136  20.495  -0.835  0.00  0.00    +0.145 HD
ENDROOT
BRANCH   2  14
ATOM     14  C   UNL     1     -34.488  19.269   0.416  0.00  0.00    +0.103 C 
ATOM     15  C   UNL     1     -33.582  20.162  -0.435  0.00  0.00    +0.022 C 
ATOM     16  C   UNL     1     -33.827  17.919   0.706  0.00  0.00    +0.022 C 
ATOM     17  C   UNL     1     -32.206  20.335   0.204  0.00  0.00    +0.002 C 
ATOM     18  C   UNL     1     -32.452  18.095   1.345  0.00  0.00    +0.002 C 
ATOM     19  C   UNL     1     -31.549  18.989   0.499  0.00  0.00    +0.000 C 
ENDBRANCH   2  14
BRANCH   1  21
ATOM     20  O4* UNL     1     -37.662  23.989   3.980  0.00  0.00    -0.333 OA
ATOM     21  C1* UNL     1     -37.086  22.926   3.191  0.00  0.00    +0.226 C 
ATOM     22  C2* UNL     1     -35.871  23.537   2.501  0.00  0.00    +0.187 C 
ATOM     23  C3* UNL     1     -35.395  24.542   3.530  0.00  0.00    +0.171 C 
ATOM     24  C4* UNL     1     -36.707  25.068   4.097  0.00  0.00    +0.175 C 
BRANCH  22  25
ATOM     25  O2* UNL     1     -34.886  22.578   2.166  0.00  0.00    -0.378 OA
ATOM     26  H2* UNL     1     -34.155  23.015   1.703  0.00  0.00    +0.211 HD
ENDBRANCH  22  25
BRANCH  23  27
ATOM     27  O3* UNL     1     -34.695  23.880   4.583  0.00  0.00    -0.379 OA
ATOM     28  H3* UNL     1     -34.866  22.927   4.536  0.00  0.00    +0.211 HD
ENDBRANCH  23  27
BRANCH  24  29
ATOM     29  C5* UNL     1     -37.248  26.268   3.331  0.00  0.00    +0.169 C 
BRANCH  29  30
ATOM     30  O5* UNL     1     -38.655  26.315   3.498  0.00  0.00    -0.379 OA
ATOM     31  H5* UNL     1     -38.965  27.225   3.371  0.00  0.00    +0.211 HD
ENDBRANCH  29  30
ENDBRANCH  24  29
ENDBRANCH   1  21
BRANCH   2  32
ATOM     32  N   UNL     1     -35.926  17.891  -0.961  0.00  0.00    -0.118 NA
ATOM     33  C   UNL     1     -35.709  17.985  -2.229  0.00  0.00    +0.133 C 
ENDBRANCH   2  32
TORSDOF 7
ENDMDL
MODEL 3
REMARK VINA RESULT:      -6.3      2.245      3.154
REMARK  Name = 54339260
REMARK  7 active torsions:
REMARK  status: ('A' for Active; 'I' for Inactive)
REMARK    1  A    between atoms: N_1  and  C1*_18
REMARK    2  A    between atoms: N_2  and  C_11
REMARK    3  A    between atoms: N_2  and  N_32
REMARK    4  A    between atoms: C2*_19  and  O2*_22
REMARK    5  A    between atoms: C3*_20  and  O3*_24
REMARK    6  A    between atoms: C4*_21  and  C5*_26
REMARK    7  A    between atoms: C5*_26  and  O5*_27
REMARK                            x       y       z     vdW  Elec       q    Type
REMARK                         _______ _______ _______ _____ _____    ______ ____
ROOT
ATOM      1  N   UNL     1     -35.397  24.013   3.011  0.00  0.00    -0.236 N 
ATOM      2  N   UNL     1     -34.670  19.996   0.581  0.00  0.00    -0.163 N 
ATOM      3  N   UNL     1     -34.824  22.016   1.753  0.00  0.00    -0.310 NA
ATOM      4  N   UNL     1     -37.575  23.658   3.323  0.00  0.00    -0.240 NA
ATOM      5  N   UNL     1     -36.778  20.595   1.411  0.00  0.00    -0.311 NA
ATOM      6  C   UNL     1     -35.676  22.822   2.406  0.00  0.00    +0.221 C 
ATOM      7  C   UNL     1     -35.469  20.923   1.290  0.00  0.00    +0.220 C 
ATOM      8  C   UNL     1     -36.569  24.477   3.547  0.00  0.00    +0.224 C 
ATOM      9  C   UNL     1     -37.031  22.620   2.610  0.00  0.00    +0.167 C 
ATOM     10  C   UNL     1     -37.580  21.455   2.083  0.00  0.00    +0.212 C 
ATOM     11  N   UNL     1     -38.947  21.168   2.244  0.00  0.00    -0.331 N 
ATOM     12  H   UNL     1     -39.323  20.340   1.866  0.00  0.00    +0.145 HD
ATOM     13  H   UNL     1     -39.527  21.795   2.732  0.00  0.00    +0.145 HD
ENDROOT
BRANCH   2  14
ATOM     14  C   UNL     1     -33.256  20.237   0.385  0.00  0.00    +0.103 C 
ATOM     15  C   UNL     1     -33.021  20.766  -1.032  0.00  0.00    +0.022 C 
ATOM     16  C   UNL     1     -32.474  18.946   0.634  0.00  0.00    +0.022 C 
ATOM     17  C   UNL     1     -31.533  20.945  -1.323  0.00  0.00    +0.002 C 
ATOM     18  C   UNL     1     -30.986  19.127   0.343  0.00  0.00    +0.002 C 
ATOM     19  C   UNL     1     -30.751  19.659  -1.068  0.00  0.00    +0.000 C 
ENDBRANCH   2  14
BRANCH   1  21
ATOM     20  O4* UNL     1     -34.066  25.785   4.034  0.00  0.00    -0.333 OA
ATOM     21  C1* UNL     1     -34.053  24.699   3.084  0.00  0.00    +0.226 C 
ATOM     22  C2* UNL     1     -33.627  25.317   1.756  0.00  0.00    +0.187 C 
ATOM     23  C3* UNL     1     -32.680  26.411   2.207  0.00  0.00    +0.171 C 
ATOM     24  C4* UNL     1     -33.352  26.913   3.480  0.00  0.00    +0.175 C 
BRANCH  22  25
ATOM     25  O2* UNL     1     -33.019  24.386   0.883  0.00  0.00    -0.378 OA
ATOM     26  H2* UNL     1     -33.591  23.608   0.793  0.00  0.00    +0.211 HD
ENDBRANCH  22  25
BRANCH  23  27
ATOM     27  O3* UNL     1     -31.416  25.857   2.567  0.00  0.00    -0.379 OA
ATOM     28  H3* UNL     1     -31.551  25.020   3.036  0.00  0.00    +0.211 HD
ENDBRANCH  23  27
BRANCH  24  29
ATOM     29  C5* UNL     1     -34.354  28.031   3.224  0.00  0.00    +0.169 C 
BRANCH  29  30
ATOM     30  O5* UNL     1     -35.546  27.743   3.935  0.00  0.00    -0.379 OA
ATOM     31  H5* UNL     1     -36.152  28.497   3.867  0.00  0.00    +0.211 HD
ENDBRANCH  29  30
ENDBRANCH  24  29
ENDBRANCH   1  21
BRANCH   2  32
ATOM     32  N   UNL     1     -35.145  18.722   0.434  0.00  0.00    -0.118 NA
ATOM     33  C   UNL     1     -35.686  18.489  -0.714  0.00  0.00    +0.133 C 
ENDBRANCH   2  32
TORSDOF 7
ENDMDL
MODEL 4
REMARK VINA RESULT:      -6.1      5.781      8.691
REMARK  Name = 54339260
REMARK  7 active torsions:
REMARK  status: ('A' for Active; 'I' for Inactive)
REMARK    1  A    between atoms: N_1  and  C1*_18
REMARK    2  A    between atoms: N_2  and  C_11
REMARK    3  A    between atoms: N_2  and  N_32
REMARK    4  A    between atoms: C2*_19  and  O2*_22
REMARK    5  A    between atoms: C3*_20  and  O3*_24
REMARK    6  A    between atoms: C4*_21  and  C5*_26
REMARK    7  A    between atoms: C5*_26  and  O5*_27
REMARK                            x       y       z     vdW  Elec       q    Type
REMARK                         _______ _______ _______ _____ _____    ______ ____
ROOT
ATOM      1  N   UNL     1     -35.734  27.221   2.640  0.00  0.00    -0.236 N 
ATOM      2  N   UNL     1     -32.431  30.570   3.305  0.00  0.00    -0.163 N 
ATOM      3  N   UNL     1     -33.955  28.804   3.118  0.00  0.00    -0.310 NA
ATOM      4  N   UNL     1     -36.895  28.391   1.138  0.00  0.00    -0.240 NA
ATOM      5  N   UNL     1     -34.218  30.851   1.816  0.00  0.00    -0.311 NA
ATOM      6  C   UNL     1     -35.075  28.407   2.493  0.00  0.00    +0.221 C 
ATOM      7  C   UNL     1     -33.602  30.043   2.712  0.00  0.00    +0.220 C 
ATOM      8  C   UNL     1     -36.821  27.258   1.806  0.00  0.00    +0.224 C 
ATOM      9  C   UNL     1     -35.810  29.118   1.559  0.00  0.00    +0.167 C 
ATOM     10  C   UNL     1     -35.344  30.385   1.224  0.00  0.00    +0.212 C 
ATOM     11  N   UNL     1     -36.027  31.177   0.283  0.00  0.00    -0.331 N 
ATOM     12  H   UNL     1     -35.687  32.072   0.055  0.00  0.00    +0.145 HD
ATOM     13  H   UNL     1     -36.845  30.836  -0.145  0.00  0.00    +0.145 HD
ENDROOT
BRANCH   2  14
ATOM     14  C   UNL     1     -31.685  29.801   4.279  0.00  0.00    +0.103 C 
ATOM     15  C   UNL     1     -31.973  30.340   5.682  0.00  0.00    +0.022 C 
ATOM     16  C   UNL     1     -30.192  29.866   3.952  0.00  0.00    +0.022 C 
ATOM     17  C   UNL     1     -31.135  29.625   6.739  0.00  0.00    +0.002 C 
ATOM     18  C   UNL     1     -29.356  29.150   5.010  0.00  0.00    +0.002 C 
ATOM     19  C   UNL     1     -29.646  29.684   6.411  0.00  0.00    +0.000 C 
ENDBRANCH   2  14
BRANCH   1  21
ATOM     20  O4* UNL     1     -35.007  24.895   2.789  0.00  0.00    -0.333 OA
ATOM     21  C1* UNL     1     -35.348  26.076   3.546  0.00  0.00    +0.226 C 
ATOM     22  C2* UNL     1     -36.473  25.653   4.485  0.00  0.00    +0.187 C 
ATOM     23  C3* UNL     1     -36.115  24.210   4.776  0.00  0.00    +0.171 C 
ATOM     24  C4* UNL     1     -35.578  23.734   3.432  0.00  0.00    +0.175 C 
BRANCH  22  25
ATOM     25  O2* UNL     1     -36.549  26.450   5.650  0.00  0.00    -0.378 OA
ATOM     26  H2* UNL     1     -35.756  26.308   6.191  0.00  0.00    +0.211 HD
ENDBRANCH  22  25
BRANCH  23  27
ATOM     27  O3* UNL     1     -35.050  24.144   5.724  0.00  0.00    -0.379 OA
ATOM     28  H3* UNL     1     -35.364  24.455   6.586  0.00  0.00    +0.211 HD
ENDBRANCH  23  27
BRANCH  24  29
ATOM     29  C5* UNL     1     -36.662  23.171   2.523  0.00  0.00    +0.169 C 
BRANCH  29  30
ATOM     30  O5* UNL     1     -37.611  22.483   3.320  0.00  0.00    -0.379 OA
ATOM     31  H5* UNL     1     -38.399  22.291   2.790  0.00  0.00    +0.211 HD
ENDBRANCH  29  30
ENDBRANCH  24  29
ENDBRANCH   1  21
BRANCH   2  32
ATOM     32  N   UNL     1     -31.808  31.612   2.676  0.00  0.00    -0.118 NA
ATOM     33  C   UNL     1     -32.111  32.773   3.150  0.00  0.00    +0.133 C 
ENDBRANCH   2  32
TORSDOF 7
ENDMDL
MODEL 5
REMARK VINA RESULT:      -6.1      3.051      5.492
REMARK  Name = 54339260
REMARK  7 active torsions:
REMARK  status: ('A' for Active; 'I' for Inactive)
REMARK    1  A    between atoms: N_1  and  C1*_18
REMARK    2  A    between atoms: N_2  and  C_11
REMARK    3  A    between atoms: N_2  and  N_32
REMARK    4  A    between atoms: C2*_19  and  O2*_22
REMARK    5  A    between atoms: C3*_20  and  O3*_24
REMARK    6  A    between atoms: C4*_21  and  C5*_26
REMARK    7  A    between atoms: C5*_26  and  O5*_27
REMARK                            x       y       z     vdW  Elec       q    Type
REMARK                         _______ _______ _______ _____ _____    ______ ____
ROOT
ATOM      1  N   UNL     1     -40.258  22.774   0.653  0.00  0.00    -0.236 N 
ATOM      2  N   UNL     1     -36.108  21.339   2.468  0.00  0.00    -0.163 N 
ATOM      3  N   UNL     1     -38.140  22.211   1.702  0.00  0.00    -0.310 NA
ATOM      4  N   UNL     1     -40.461  21.052  -0.747  0.00  0.00    -0.240 NA
ATOM      5  N   UNL     1     -37.234  20.131   0.805  0.00  0.00    -0.311 NA
ATOM      6  C   UNL     1     -39.152  21.997   0.847  0.00  0.00    +0.221 C 
ATOM      7  C   UNL     1     -37.226  21.221   1.610  0.00  0.00    +0.220 C 
ATOM      8  C   UNL     1     -41.013  22.166  -0.314  0.00  0.00    +0.224 C 
ATOM      9  C   UNL     1     -39.297  20.935  -0.030  0.00  0.00    +0.167 C 
ATOM     10  C   UNL     1     -38.287  19.978  -0.033  0.00  0.00    +0.212 C 
ATOM     11  N   UNL     1     -38.352  18.866  -0.890  0.00  0.00    -0.331 N 
ATOM     12  H   UNL     1     -37.630  18.196  -0.882  0.00  0.00    +0.145 HD
ATOM     13  H   UNL     1     -39.118  18.758  -1.499  0.00  0.00    +0.145 HD
ENDROOT
BRANCH   2  14
ATOM     14  C   UNL     1     -35.986  22.462   3.374  0.00  0.00    +0.103 C 
ATOM     15  C   UNL     1     -35.035  23.500   2.773  0.00  0.00    +0.022 C 
ATOM     16  C   UNL     1     -35.491  21.973   4.736  0.00  0.00    +0.022 C 
ATOM     17  C   UNL     1     -34.796  24.662   3.735  0.00  0.00    +0.002 C 
ATOM     18  C   UNL     1     -35.254  23.137   5.696  0.00  0.00    +0.002 C 
ATOM     19  C   UNL     1     -34.308  24.175   5.096  0.00  0.00    +0.000 C 
ENDBRANCH   2  14
BRANCH   1  21
ATOM     20  O4* UNL     1     -41.982  24.417   1.187  0.00  0.00    -0.333 OA
ATOM     21  C1* UNL     1     -40.595  24.063   1.365  0.00  0.00    +0.226 C 
ATOM     22  C2* UNL     1     -39.795  25.255   0.850  0.00  0.00    +0.187 C 
ATOM     23  C3* UNL     1     -40.700  26.418   1.204  0.00  0.00    +0.171 C 
ATOM     24  C4* UNL     1     -42.085  25.838   0.943  0.00  0.00    +0.175 C 
BRANCH  22  25
ATOM     25  O2* UNL     1     -38.512  25.355   1.437  0.00  0.00    -0.378 OA
ATOM     26  H2* UNL     1     -37.836  25.301   0.745  0.00  0.00    +0.211 HD
ENDBRANCH  22  25
BRANCH  23  27
ATOM     27  O3* UNL     1     -40.603  26.718   2.595  0.00  0.00    -0.379 OA
ATOM     28  H3* UNL     1     -41.068  26.038   3.106  0.00  0.00    +0.211 HD
ENDBRANCH  23  27
BRANCH  24  29
ATOM     29  C5* UNL     1     -42.557  26.043  -0.490  0.00  0.00    +0.169 C 
BRANCH  29  30
ATOM     30  O5* UNL     1     -43.238  24.874  -0.914  0.00  0.00    -0.379 OA
ATOM     31  H5* UNL     1     -42.884  24.105  -0.441  0.00  0.00    +0.211 HD
ENDBRANCH  29  30
ENDBRANCH  24  29
ENDBRANCH   1  21
BRANCH   2  32
ATOM     32  N   UNL     1     -35.367  20.216   2.713  0.00  0.00    -0.118 NA
ATOM     33  C   UNL     1     -34.416  20.015   1.865  0.00  0.00    +0.133 C 
ENDBRANCH   2  32
TORSDOF 7
ENDMDL
MODEL 6
REMARK VINA RESULT:      -6.1      4.393      6.882
REMARK  Name = 54339260
REMARK  7 active torsions:
REMARK  status: ('A' for Active; 'I' for Inactive)
REMARK    1  A    between atoms: N_1  and  C1*_18
REMARK    2  A    between atoms: N_2  and  C_11
REMARK    3  A    between atoms: N_2  and  N_32
REMARK    4  A    between atoms: C2*_19  and  O2*_22
REMARK    5  A    between atoms: C3*_20  and  O3*_24
REMARK    6  A    between atoms: C4*_21  and  C5*_26
REMARK    7  A    between atoms: C5*_26  and  O5*_27
REMARK                            x       y       z     vdW  Elec       q    Type
REMARK                         _______ _______ _______ _____ _____    ______ ____
ROOT
ATOM      1  N   UNL     1     -37.521  27.421   0.898  0.00  0.00    -0.236 N 
ATOM      2  N   UNL     1     -34.782  25.766   4.410  0.00  0.00    -0.163 N 
ATOM      3  N   UNL     1     -36.228  26.395   2.681  0.00  0.00    -0.310 NA
ATOM      4  N   UNL     1     -36.546  29.424   0.821  0.00  0.00    -0.240 NA
ATOM      5  N   UNL     1     -34.537  27.929   3.542  0.00  0.00    -0.311 NA
ATOM      6  C   UNL     1     -36.547  27.404   1.855  0.00  0.00    +0.221 C 
ATOM      7  C   UNL     1     -35.208  26.753   3.490  0.00  0.00    +0.220 C 
ATOM      8  C   UNL     1     -37.482  28.655   0.305  0.00  0.00    +0.224 C 
ATOM      9  C   UNL     1     -35.954  28.655   1.791  0.00  0.00    +0.167 C 
ATOM     10  C   UNL     1     -34.912  28.903   2.679  0.00  0.00    +0.212 C 
ATOM     11  N   UNL     1     -34.252  30.144   2.683  0.00  0.00    -0.331 N 
ATOM     12  H   UNL     1     -33.516  30.308   3.316  0.00  0.00    +0.145 HD
ATOM     13  H   UNL     1     -34.527  30.850   2.054  0.00  0.00    +0.145 HD
ENDROOT
BRANCH   2  14
ATOM     14  C   UNL     1     -35.422  24.469   4.451  0.00  0.00    +0.103 C 
ATOM     15  C   UNL     1     -35.165  23.817   5.811  0.00  0.00    +0.022 C 
ATOM     16  C   UNL     1     -34.897  23.598   3.307  0.00  0.00    +0.022 C 
ATOM     17  C   UNL     1     -35.738  22.403   5.872  0.00  0.00    +0.002 C 
ATOM     18  C   UNL     1     -35.473  22.186   3.369  0.00  0.00    +0.002 C 
ATOM     19  C   UNL     1     -35.220  21.536   4.728  0.00  0.00    +0.000 C 
ENDBRANCH   2  14
BRANCH   1  21
ATOM     20  O4* UNL     1     -39.295  25.936   1.676  0.00  0.00    -0.333 OA
ATOM     21  C1* UNL     1     -38.468  26.297   0.550  0.00  0.00    +0.226 C 
ATOM     22  C2* UNL     1     -37.748  25.017   0.139  0.00  0.00    +0.187 C 
ATOM     23  C3* UNL     1     -38.779  23.956   0.467  0.00  0.00    +0.171 C 
ATOM     24  C4* UNL     1     -39.400  24.496   1.749  0.00  0.00    +0.175 C 
BRANCH  22  25
ATOM     25  O2* UNL     1     -37.362  25.012  -1.221  0.00  0.00    -0.378 OA
ATOM     26  H2* UNL     1     -36.730  24.293  -1.375  0.00  0.00    +0.211 HD
ENDBRANCH  22  25
BRANCH  23  27
ATOM     27  O3* UNL     1     -39.795  23.925  -0.535  0.00  0.00    -0.379 OA
ATOM     28  H3* UNL     1     -40.394  23.182  -0.365  0.00  0.00    +0.211 HD
ENDBRANCH  23  27
BRANCH  24  29
ATOM     29  C5* UNL     1     -38.676  24.029   3.004  0.00  0.00    +0.169 C 
BRANCH  29  30
ATOM     30  O5* UNL     1     -38.770  25.047   3.987  0.00  0.00    -0.379 OA
ATOM     31  H5* UNL     1     -38.997  25.887   3.560  0.00  0.00    +0.211 HD
ENDBRANCH  29  30
ENDBRANCH  24  29
ENDBRANCH   1  21
BRANCH   2  32
ATOM     32  N   UNL     1     -33.540  25.902   4.966  0.00  0.00    -0.118 NA
ATOM     33  C   UNL     1     -33.527  26.561   6.075  0.00  0.00    +0.133 C 
ENDBRANCH   2  32
TORSDOF 7
ENDMDL
MODEL 7
REMARK VINA RESULT:      -6.1      4.476      7.160
REMARK  Name = 54339260
REMARK  7 active torsions:
REMARK  status: ('A' for Active; 'I' for Inactive)
REMARK    1  A    between atoms: N_1  and  C1*_18
REMARK    2  A    between atoms: N_2  and  C_11
REMARK    3  A    between atoms: N_2  and  N_32
REMARK    4  A    between atoms: C2*_19  and  O2*_22
REMARK    5  A    between atoms: C3*_20  and  O3*_24
REMARK    6  A    between atoms: C4*_21  and  C5*_26
REMARK    7  A    between atoms: C5*_26  and  O5*_27
REMARK                            x       y       z     vdW  Elec       q    Type
REMARK                         _______ _______ _______ _____ _____    ______ ____
ROOT
ATOM      1  N   UNL     1     -38.036  26.735   1.068  0.00  0.00    -0.236 N 
ATOM      2  N   UNL     1     -34.929  25.526   4.453  0.00  0.00    -0.163 N 
ATOM      3  N   UNL     1     -36.548  25.933   2.813  0.00  0.00    -0.310 NA
ATOM      4  N   UNL     1     -37.162  28.756   0.718  0.00  0.00    -0.240 NA
ATOM      5  N   UNL     1     -34.858  27.604   3.371  0.00  0.00    -0.311 NA
ATOM      6  C   UNL     1     -36.982  26.845   1.929  0.00  0.00    +0.221 C 
ATOM      7  C   UNL     1     -35.477  26.404   3.489  0.00  0.00    +0.220 C 
ATOM      8  C   UNL     1     -38.104  27.907   0.362  0.00  0.00    +0.224 C 
ATOM      9  C   UNL     1     -36.455  28.105   1.697  0.00  0.00    +0.167 C 
ATOM     10  C   UNL     1     -35.351  28.475   2.459  0.00  0.00    +0.212 C 
ATOM     11  N   UNL     1     -34.750  29.735   2.288  0.00  0.00    -0.331 N 
ATOM     12  H   UNL     1     -33.969  29.985   2.834  0.00  0.00    +0.145 HD
ATOM     13  H   UNL     1     -35.110  30.367   1.625  0.00  0.00    +0.145 HD
ENDROOT
BRANCH   2  14
ATOM     14  C   UNL     1     -35.504  24.216   4.672  0.00  0.00    +0.103 C 
ATOM     15  C   UNL     1     -35.087  23.701   6.051  0.00  0.00    +0.022 C 
ATOM     16  C   UNL     1     -35.055  23.264   3.562  0.00  0.00    +0.022 C 
ATOM     17  C   UNL     1     -35.588  22.279   6.293  0.00  0.00    +0.002 C 
ATOM     18  C   UNL     1     -35.558  21.843   3.805  0.00  0.00    +0.002 C 
ATOM     19  C   UNL     1     -35.146  21.330   5.183  0.00  0.00    +0.000 C 
ENDBRANCH   2  14
BRANCH   1  21
ATOM     20  O4* UNL     1     -39.711  25.622  -0.316  0.00  0.00    -0.333 OA
ATOM     21  C1* UNL     1     -38.958  25.549   0.913  0.00  0.00    +0.226 C 
ATOM     22  C2* UNL     1     -39.995  25.450   2.027  0.00  0.00    +0.187 C 
ATOM     23  C3* UNL     1     -41.106  24.670   1.355  0.00  0.00    +0.171 C 
ATOM     24  C4* UNL     1     -41.077  25.225  -0.063  0.00  0.00    +0.175 C 
BRANCH  22  25
ATOM     25  O2* UNL     1     -39.499  24.817   3.190  0.00  0.00    -0.378 OA
ATOM     26  H2* UNL     1     -39.670  23.864   3.136  0.00  0.00    +0.211 HD
ENDBRANCH  22  25
BRANCH  23  27
ATOM     27  O3* UNL     1     -40.772  23.284   1.293  0.00  0.00    -0.379 OA
ATOM     28  H3* UNL     1     -41.522  22.756   1.605  0.00  0.00    +0.211 HD
ENDBRANCH  23  27
BRANCH  24  29
ATOM     29  C5* UNL     1     -41.969  26.445  -0.244  0.00  0.00    +0.169 C 
BRANCH  29  30
ATOM     30  O5* UNL     1     -43.126  26.285   0.560  0.00  0.00    -0.379 OA
ATOM     31  H5* UNL     1     -43.886  26.081  -0.006  0.00  0.00    +0.211 HD
ENDBRANCH  29  30
ENDBRANCH  24  29
ENDBRANCH   1  21
BRANCH   2  32
ATOM     32  N   UNL     1     -33.650  25.760   4.879  0.00  0.00    -0.118 NA
ATOM     33  C   UNL     1     -33.573  26.485   5.944  0.00  0.00    +0.133 C 
ENDBRANCH   2  32
TORSDOF 7
ENDMDL
MODEL 8
REMARK VINA RESULT:      -6.1      2.402      4.780
REMARK  Name = 54339260
REMARK  7 active torsions:
REMARK  status: ('A' for Active; 'I' for Inactive)
REMARK    1  A    between atoms: N_1  and  C1*_18
REMARK    2  A    between atoms: N_2  and  C_11
REMARK    3  A    between atoms: N_2  and  N_32
REMARK    4  A    between atoms: C2*_19  and  O2*_22
REMARK    5  A    between atoms: C3*_20  and  O3*_24
REMARK    6  A    between atoms: C4*_21  and  C5*_26
REMARK    7  A    between atoms: C5*_26  and  O5*_27
REMARK                            x       y       z     vdW  Elec       q    Type
REMARK                         _______ _______ _______ _____ _____    ______ ____
ROOT
ATOM      1  N   UNL     1     -39.898  23.276   0.146  0.00  0.00    -0.236 N 
ATOM      2  N   UNL     1     -36.129  21.583   2.493  0.00  0.00    -0.163 N 
ATOM      3  N   UNL     1     -37.960  22.595   1.444  0.00  0.00    -0.310 NA
ATOM      4  N   UNL     1     -40.239  21.417  -1.037  0.00  0.00    -0.240 NA
ATOM      5  N   UNL     1     -37.290  20.312   0.903  0.00  0.00    -0.311 NA
ATOM      6  C   UNL     1     -38.928  22.397   0.536  0.00  0.00    +0.221 C 
ATOM      7  C   UNL     1     -37.189  21.493   1.560  0.00  0.00    +0.220 C 
ATOM      8  C   UNL     1     -40.660  22.642  -0.799  0.00  0.00    +0.224 C 
ATOM      9  C   UNL     1     -39.156  21.251  -0.210  0.00  0.00    +0.167 C 
ATOM     10  C   UNL     1     -38.291  20.182  -0.000  0.00  0.00    +0.212 C 
ATOM     11  N   UNL     1     -38.450  18.980  -0.712  0.00  0.00    -0.331 N 
ATOM     12  H   UNL     1     -37.831  18.230  -0.555  0.00  0.00    +0.145 HD
ATOM     13  H   UNL     1     -39.178  18.888  -1.368  0.00  0.00    +0.145 HD
ENDROOT
BRANCH   2  14
ATOM     14  C   UNL     1     -35.918  22.794   3.256  0.00  0.00    +0.103 C 
ATOM     15  C   UNL     1     -34.813  23.624   2.598  0.00  0.00    +0.022 C 
ATOM     16  C   UNL     1     -35.563  22.438   4.701  0.00  0.00    +0.022 C 
ATOM     17  C   UNL     1     -34.483  24.868   3.420  0.00  0.00    +0.002 C 
ATOM     18  C   UNL     1     -35.234  23.684   5.520  0.00  0.00    +0.002 C 
ATOM     19  C   UNL     1     -34.134  24.514   4.863  0.00  0.00    +0.000 C 
ENDBRANCH   2  14
BRANCH   1  21
ATOM     20  O4* UNL     1     -38.859  25.272   1.092  0.00  0.00    -0.333 OA
ATOM     21  C1* UNL     1     -40.102  24.682   0.656  0.00  0.00    +0.226 C 
ATOM     22  C2* UNL     1     -41.035  24.750   1.861  0.00  0.00    +0.187 C 
ATOM     23  C3* UNL     1     -40.589  26.032   2.534  0.00  0.00    +0.171 C 
ATOM     24  C4* UNL     1     -39.080  25.997   2.323  0.00  0.00    +0.175 C 
BRANCH  22  25
ATOM     25  O2* UNL     1     -42.403  24.763   1.500  0.00  0.00    -0.378 OA
ATOM     26  H2* UNL     1     -42.513  24.335   0.636  0.00  0.00    +0.211 HD
ENDBRANCH  22  25
BRANCH  23  27
ATOM     27  O3* UNL     1     -41.105  27.165   1.838  0.00  0.00    -0.379 OA
ATOM     28  H3* UNL     1     -40.396  27.576   1.320  0.00  0.00    +0.211 HD
ENDBRANCH  23  27
BRANCH  24  29
ATOM     29  C5* UNL     1     -38.338  25.276   3.439  0.00  0.00    +0.169 C 
BRANCH  29  30
ATOM     30  O5* UNL     1     -37.526  26.214   4.125  0.00  0.00    -0.379 OA
ATOM     31  H5* UNL     1     -37.168  25.805   4.928  0.00  0.00    +0.211 HD
ENDBRANCH  29  30
ENDBRANCH  24  29
ENDBRANCH   1  21
BRANCH   2  32
ATOM     32  N   UNL     1     -35.571  20.418   2.944  0.00  0.00    -0.118 NA
ATOM     33  C   UNL     1     -34.562  20.013   2.250  0.00  0.00    +0.133 C 
ENDBRANCH   2  32
TORSDOF 7
ENDMDL
MODEL 9
REMARK VINA RESULT:      -6.1     12.902     14.440
REMARK  Name = 54339260
REMARK  7 active torsions:
REMARK  status: ('A' for Active; 'I' for Inactive)
REMARK    1  A    between atoms: N_1  and  C1*_18
REMARK    2  A    between atoms: N_2  and  C_11
REMARK    3  A    between atoms: N_2  and  N_32
REMARK    4  A    between atoms: C2*_19  and  O2*_22
REMARK    5  A    between atoms: C3*_20  and  O3*_24
REMARK    6  A    between atoms: C4*_21  and  C5*_26
REMARK    7  A    between atoms: C5*_26  and  O5*_27
REMARK                            x       y       z     vdW  Elec       q    Type
REMARK                         _______ _______ _______ _____ _____    ______ ____
ROOT
ATOM      1  N   UNL     1     -45.547  32.320   3.078  0.00  0.00    -0.236 N 
ATOM      2  N   UNL     1     -42.423  35.038   0.750  0.00  0.00    -0.163 N 
ATOM      3  N   UNL     1     -43.802  33.635   2.016  0.00  0.00    -0.310 NA
ATOM      4  N   UNL     1     -47.300  32.950   1.853  0.00  0.00    -0.240 NA
ATOM      5  N   UNL     1     -44.697  34.982   0.189  0.00  0.00    -0.311 NA
ATOM      6  C   UNL     1     -45.068  33.212   2.162  0.00  0.00    +0.221 C 
ATOM      7  C   UNL     1     -43.715  34.520   1.000  0.00  0.00    +0.220 C 
ATOM      8  C   UNL     1     -46.892  32.195   2.852  0.00  0.00    +0.224 C 
ATOM      9  C   UNL     1     -46.170  33.591   1.413  0.00  0.00    +0.167 C 
ATOM     10  C   UNL     1     -45.951  34.512   0.394  0.00  0.00    +0.212 C 
ATOM     11  N   UNL     1     -47.012  34.952  -0.417  0.00  0.00    -0.331 N 
ATOM     12  H   UNL     1     -46.844  35.604  -1.136  0.00  0.00    +0.145 HD
ATOM     13  H   UNL     1     -47.922  34.609  -0.266  0.00  0.00    +0.145 HD
ENDROOT
BRANCH   2  14
ATOM     14  C   UNL     1     -41.291  34.622   1.551  0.00  0.00    +0.103 C 
ATOM     15  C   UNL     1     -40.648  35.849   2.200  0.00  0.00    +0.022 C 
ATOM     16  C   UNL     1     -40.291  33.865   0.675  0.00  0.00    +0.022 C 
ATOM     17  C   UNL     1     -39.389  35.474   2.980  0.00  0.00    +0.002 C 
ATOM     18  C   UNL     1     -39.034  33.491   1.457  0.00  0.00    +0.002 C 
ATOM     19  C   UNL     1     -38.393  34.714   2.109  0.00  0.00    +0.000 C 
ENDBRANCH   2  14
BRANCH   1  21
ATOM     20  O4* UNL     1     -45.459  30.439   4.632  0.00  0.00    -0.333 OA
ATOM     21  C1* UNL     1     -44.753  31.598   4.141  0.00  0.00    +0.226 C 
ATOM     22  C2* UNL     1     -44.476  32.462   5.366  0.00  0.00    +0.187 C 
ATOM     23  C3* UNL     1     -44.285  31.421   6.450  0.00  0.00    +0.171 C 
ATOM     24  C4* UNL     1     -45.317  30.367   6.068  0.00  0.00    +0.175 C 
BRANCH  22  25
ATOM     25  O2* UNL     1     -43.351  33.305   5.205  0.00  0.00    -0.378 OA
ATOM     26  H2* UNL     1     -43.228  33.835   6.008  0.00  0.00    +0.211 HD
ENDBRANCH  22  25
BRANCH  23  27
ATOM     27  O3* UNL     1     -42.992  30.827   6.347  0.00  0.00    -0.379 OA
ATOM     28  H3* UNL     1     -42.592  31.069   5.498  0.00  0.00    +0.211 HD
ENDBRANCH  23  27
BRANCH  24  29
ATOM     29  C5* UNL     1     -46.683  30.616   6.694  0.00  0.00    +0.169 C 
BRANCH  29  30
ATOM     30  O5* UNL     1     -46.496  31.151   7.994  0.00  0.00    -0.379 OA
ATOM     31  H5* UNL     1     -45.872  30.594   8.485  0.00  0.00    +0.211 HD
ENDBRANCH  29  30
ENDBRANCH  24  29
ENDBRANCH   1  21
BRANCH   2  32
ATOM     32  N   UNL     1     -42.187  35.611  -0.470  0.00  0.00    -0.118 NA
ATOM     33  C   UNL     1     -42.212  36.900  -0.462  0.00  0.00    +0.133 C 
ENDBRANCH   2  32
TORSDOF 7
ENDMDL
