MODEL 1
REMARK VINA RESULT:      -5.6      0.000      0.000
REMARK  Name = 5702523
REMARK  7 active torsions:
REMARK  status: ('A' for Active; 'I' for Inactive)
REMARK    1  A    between atoms: N_2  and  C_11
REMARK    2  A    between atoms: C_3  and  C_5
REMARK    3  A    between atoms: C_11  and  C_14
REMARK    4  A    between atoms: C_14  and  S_15
REMARK    5  A    between atoms: S_15  and  C_16
REMARK    6  A    between atoms: C_16  and  C_18
REMARK    7  A    between atoms: C_18  and  O_19
REMARK                            x       y       z     vdW  Elec       q    Type
REMARK                         _______ _______ _______ _____ _____    ______ ____
ROOT
ATOM      1  O   UNL     1     -36.172  25.665   5.877  0.00  0.00    -0.270 OA
ATOM      2  N   UNL     1     -34.703  23.995   5.220  0.00  0.00    -0.295 N 
ATOM      3  C   UNL     1     -35.050  25.302   5.533  0.00  0.00    +0.246 C 
ATOM      4  H   UNL     1     -33.775  23.803   4.954  0.00  0.00    +0.150 HD
ENDROOT
BRANCH   3   5
ATOM      5  C   UNL     1     -33.968  26.312   5.408  0.00  0.00    +0.053 C 
ATOM      6  C   UNL     1     -33.659  26.806   4.158  0.00  0.00    +0.005 C 
ATOM      7  C   UNL     1     -33.306  26.723   6.546  0.00  0.00    +0.005 C 
ATOM      8  C   UNL     1     -32.643  27.754   4.040  0.00  0.00    +0.000 C 
ATOM      9  C   UNL     1     -32.290  27.671   6.429  0.00  0.00    +0.000 C 
ATOM     10  C   UNL     1     -31.958  28.186   5.176  0.00  0.00    +0.000 C 
ENDBRANCH   3   5
BRANCH   2  11
ATOM     11  C   UNL     1     -35.648  22.909   5.270  0.00  0.00    +0.140 C 
ATOM     12  C   UNL     1     -35.372  21.987   6.446  0.00  0.00    +0.030 C 
BRANCH  11  14
ATOM     13  O   UNL     1     -35.257  20.957   3.888  0.00  0.00    -0.283 OA
ATOM     14  C   UNL     1     -35.509  22.155   3.959  0.00  0.00    +0.217 C 
BRANCH  14  15
ATOM     15  S   UNL     1     -35.695  23.172   2.525  0.00  0.00    -0.064 S 
BRANCH  15  16
ATOM     16  C   UNL     1     -37.482  23.435   2.538  0.00  0.00    +0.174 C 
BRANCH  16  18
ATOM     17  O   UNL     1     -37.536  25.822   2.202  0.00  0.00    -0.249 OA
ATOM     18  C   UNL     1     -37.775  24.858   2.920  0.00  0.00    +0.325 C 
BRANCH  18  19
ATOM     19  O   UNL     1     -38.347  24.965   4.145  0.00  0.00    -0.480 OA
ATOM     20  H   UNL     1     -38.080  25.646   4.730  0.00  0.00    +0.295 HD
ENDBRANCH  18  19
ENDBRANCH  16  18
ENDBRANCH  15  16
ENDBRANCH  14  15
ENDBRANCH  11  14
ENDBRANCH   2  11
TORSDOF 7
ENDMDL
MODEL 2
REMARK VINA RESULT:      -5.5      1.274      2.710
REMARK  Name = 5702523
REMARK  7 active torsions:
REMARK  status: ('A' for Active; 'I' for Inactive)
REMARK    1  A    between atoms: N_2  and  C_11
REMARK    2  A    between atoms: C_3  and  C_5
REMARK    3  A    between atoms: C_11  and  C_14
REMARK    4  A    between atoms: C_14  and  S_15
REMARK    5  A    between atoms: S_15  and  C_16
REMARK    6  A    between atoms: C_16  and  C_18
REMARK    7  A    between atoms: C_18  and  O_19
REMARK                            x       y       z     vdW  Elec       q    Type
REMARK                         _______ _______ _______ _____ _____    ______ ____
ROOT
ATOM      1  O   UNL     1     -36.004  26.161   5.914  0.00  0.00    -0.270 OA
ATOM      2  N   UNL     1     -34.655  24.375   5.305  0.00  0.00    -0.295 N 
ATOM      3  C   UNL     1     -34.908  25.710   5.593  0.00  0.00    +0.246 C 
ATOM      4  H   UNL     1     -33.740  24.111   5.055  0.00  0.00    +0.150 HD
ENDROOT
BRANCH   3   5
ATOM      5  C   UNL     1     -33.751  26.634   5.469  0.00  0.00    +0.053 C 
ATOM      6  C   UNL     1     -33.067  27.001   6.609  0.00  0.00    +0.005 C 
ATOM      7  C   UNL     1     -33.399  27.096   4.218  0.00  0.00    +0.005 C 
ATOM      8  C   UNL     1     -31.980  27.869   6.493  0.00  0.00    +0.000 C 
ATOM      9  C   UNL     1     -32.313  27.964   4.102  0.00  0.00    +0.000 C 
ATOM     10  C   UNL     1     -31.604  28.350   5.239  0.00  0.00    +0.000 C 
ENDBRANCH   3   5
BRANCH   2  11
ATOM     11  C   UNL     1     -35.679  23.364   5.355  0.00  0.00    +0.140 C 
ATOM     12  C   UNL     1     -35.107  22.017   5.764  0.00  0.00    +0.030 C 
BRANCH  11  14
ATOM     13  O   UNL     1     -37.486  23.217   3.748  0.00  0.00    -0.283 OA
ATOM     14  C   UNL     1     -36.281  23.288   3.964  0.00  0.00    +0.217 C 
BRANCH  14  15
ATOM     15  S   UNL     1     -35.081  23.258   2.666  0.00  0.00    -0.064 S 
BRANCH  15  16
ATOM     16  C   UNL     1     -35.786  21.985   1.595  0.00  0.00    +0.174 C 
BRANCH  16  18
ATOM     17  O   UNL     1     -34.854  20.079   2.740  0.00  0.00    -0.249 OA
ATOM     18  C   UNL     1     -35.842  20.682   2.340  0.00  0.00    +0.325 C 
BRANCH  18  19
ATOM     19  O   UNL     1     -37.112  20.246   2.537  0.00  0.00    -0.480 OA
ATOM     20  H   UNL     1     -37.277  19.336   2.688  0.00  0.00    +0.295 HD
ENDBRANCH  18  19
ENDBRANCH  16  18
ENDBRANCH  15  16
ENDBRANCH  14  15
ENDBRANCH  11  14
ENDBRANCH   2  11
TORSDOF 7
ENDMDL
MODEL 3
REMARK VINA RESULT:      -5.5      1.665      2.122
REMARK  Name = 5702523
REMARK  7 active torsions:
REMARK  status: ('A' for Active; 'I' for Inactive)
REMARK    1  A    between atoms: N_2  and  C_11
REMARK    2  A    between atoms: C_3  and  C_5
REMARK    3  A    between atoms: C_11  and  C_14
REMARK    4  A    between atoms: C_14  and  S_15
REMARK    5  A    between atoms: S_15  and  C_16
REMARK    6  A    between atoms: C_16  and  C_18
REMARK    7  A    between atoms: C_18  and  O_19
REMARK                            x       y       z     vdW  Elec       q    Type
REMARK                         _______ _______ _______ _____ _____    ______ ____
ROOT
ATOM      1  O   UNL     1     -36.244  25.719   5.679  0.00  0.00    -0.270 OA
ATOM      2  N   UNL     1     -34.726  24.037   5.179  0.00  0.00    -0.295 N 
ATOM      3  C   UNL     1     -35.095  25.349   5.448  0.00  0.00    +0.246 C 
ATOM      4  H   UNL     1     -33.778  23.839   5.005  0.00  0.00    +0.150 HD
ENDROOT
BRANCH   3   5
ATOM      5  C   UNL     1     -34.001  26.352   5.422  0.00  0.00    +0.053 C 
ATOM      6  C   UNL     1     -33.344  26.652   6.597  0.00  0.00    +0.005 C 
ATOM      7  C   UNL     1     -33.677  26.954   4.224  0.00  0.00    +0.005 C 
ATOM      8  C   UNL     1     -32.316  27.595   6.573  0.00  0.00    +0.000 C 
ATOM      9  C   UNL     1     -32.650  27.897   4.200  0.00  0.00    +0.000 C 
ATOM     10  C   UNL     1     -31.969  28.218   5.374  0.00  0.00    +0.000 C 
ENDBRANCH   3   5
BRANCH   2  11
ATOM     11  C   UNL     1     -35.677  22.956   5.142  0.00  0.00    +0.140 C 
ATOM     12  C   UNL     1     -35.135  21.719   5.839  0.00  0.00    +0.030 C 
BRANCH  11  14
ATOM     13  O   UNL     1     -35.202  22.003   2.967  0.00  0.00    -0.283 OA
ATOM     14  C   UNL     1     -35.948  22.667   3.677  0.00  0.00    +0.217 C 
BRANCH  14  15
ATOM     15  S   UNL     1     -37.423  23.421   3.060  0.00  0.00    -0.064 S 
BRANCH  15  16
ATOM     16  C   UNL     1     -38.125  22.048   2.119  0.00  0.00    +0.174 C 
BRANCH  16  18
ATOM     17  O   UNL     1     -40.227  23.224   2.019  0.00  0.00    -0.249 OA
ATOM     18  C   UNL     1     -39.623  22.163   2.112  0.00  0.00    +0.325 C 
BRANCH  18  19
ATOM     19  O   UNL     1     -40.241  20.958   2.206  0.00  0.00    -0.480 OA
ATOM     20  H   UNL     1     -40.931  20.833   2.827  0.00  0.00    +0.295 HD
ENDBRANCH  18  19
ENDBRANCH  16  18
ENDBRANCH  15  16
ENDBRANCH  14  15
ENDBRANCH  11  14
ENDBRANCH   2  11
TORSDOF 7
ENDMDL
MODEL 4
REMARK VINA RESULT:      -5.5      3.067      6.056
REMARK  Name = 5702523
REMARK  7 active torsions:
REMARK  status: ('A' for Active; 'I' for Inactive)
REMARK    1  A    between atoms: N_2  and  C_11
REMARK    2  A    between atoms: C_3  and  C_5
REMARK    3  A    between atoms: C_11  and  C_14
REMARK    4  A    between atoms: C_14  and  S_15
REMARK    5  A    between atoms: S_15  and  C_16
REMARK    6  A    between atoms: C_16  and  C_18
REMARK    7  A    between atoms: C_18  and  O_19
REMARK                            x       y       z     vdW  Elec       q    Type
REMARK                         _______ _______ _______ _____ _____    ______ ____
ROOT
ATOM      1  O   UNL     1     -36.455  19.800   2.239  0.00  0.00    -0.270 OA
ATOM      2  N   UNL     1     -36.112  22.086   2.047  0.00  0.00    -0.295 N 
ATOM      3  C   UNL     1     -35.759  20.752   1.893  0.00  0.00    +0.246 C 
ATOM      4  H   UNL     1     -35.485  22.779   1.738  0.00  0.00    +0.150 HD
ENDROOT
BRANCH   3   5
ATOM      5  C   UNL     1     -34.429  20.495   1.286  0.00  0.00    +0.053 C 
ATOM      6  C   UNL     1     -33.860  21.468   0.491  0.00  0.00    +0.005 C 
ATOM      7  C   UNL     1     -33.804  19.290   1.536  0.00  0.00    +0.005 C 
ATOM      8  C   UNL     1     -32.610  21.226  -0.080  0.00  0.00    +0.000 C 
ATOM      9  C   UNL     1     -32.555  19.049   0.965  0.00  0.00    +0.000 C 
ATOM     10  C   UNL     1     -31.958  20.016   0.157  0.00  0.00    +0.000 C 
ENDBRANCH   3   5
BRANCH   2  11
ATOM     11  C   UNL     1     -37.358  22.495   2.642  0.00  0.00    +0.140 C 
ATOM     12  C   UNL     1     -38.411  22.779   1.584  0.00  0.00    +0.030 C 
BRANCH  11  14
ATOM     13  O   UNL     1     -37.931  24.465   3.931  0.00  0.00    -0.283 OA
ATOM     14  C   UNL     1     -37.062  23.747   3.449  0.00  0.00    +0.217 C 
BRANCH  14  15
ATOM     15  S   UNL     1     -35.339  24.114   3.593  0.00  0.00    -0.064 S 
BRANCH  15  16
ATOM     16  C   UNL     1     -35.224  24.461   5.363  0.00  0.00    +0.174 C 
BRANCH  16  18
ATOM     17  O   UNL     1     -34.153  26.559   5.872  0.00  0.00    -0.249 OA
ATOM     18  C   UNL     1     -35.171  25.946   5.578  0.00  0.00    +0.325 C 
BRANCH  18  19
ATOM     19  O   UNL     1     -36.375  26.545   5.397  0.00  0.00    -0.480 OA
ATOM     20  H   UNL     1     -37.020  26.145   4.847  0.00  0.00    +0.295 HD
ENDBRANCH  18  19
ENDBRANCH  16  18
ENDBRANCH  15  16
ENDBRANCH  14  15
ENDBRANCH  11  14
ENDBRANCH   2  11
TORSDOF 7
ENDMDL
MODEL 5
REMARK VINA RESULT:      -5.4      3.495      6.518
REMARK  Name = 5702523
REMARK  7 active torsions:
REMARK  status: ('A' for Active; 'I' for Inactive)
REMARK    1  A    between atoms: N_2  and  C_11
REMARK    2  A    between atoms: C_3  and  C_5
REMARK    3  A    between atoms: C_11  and  C_14
REMARK    4  A    between atoms: C_14  and  S_15
REMARK    5  A    between atoms: S_15  and  C_16
REMARK    6  A    between atoms: C_16  and  C_18
REMARK    7  A    between atoms: C_18  and  O_19
REMARK                            x       y       z     vdW  Elec       q    Type
REMARK                         _______ _______ _______ _____ _____    ______ ____
ROOT
ATOM      1  O   UNL     1     -36.343  19.379   1.124  0.00  0.00    -0.270 OA
ATOM      2  N   UNL     1     -35.736  21.481   1.892  0.00  0.00    -0.295 N 
ATOM      3  C   UNL     1     -35.487  20.235   1.333  0.00  0.00    +0.246 C 
ATOM      4  H   UNL     1     -34.981  22.101   2.020  0.00  0.00    +0.150 HD
ENDROOT
BRANCH   3   5
ATOM      5  C   UNL     1     -34.070  19.941   0.998  0.00  0.00    +0.053 C 
ATOM      6  C   UNL     1     -33.357  20.859   0.256  0.00  0.00    +0.005 C 
ATOM      7  C   UNL     1     -33.513  18.759   1.439  0.00  0.00    +0.005 C 
ATOM      8  C   UNL     1     -32.026  20.583  -0.059  0.00  0.00    +0.000 C 
ATOM      9  C   UNL     1     -32.183  18.483   1.124  0.00  0.00    +0.000 C 
ATOM     10  C   UNL     1     -31.439  19.394   0.375  0.00  0.00    +0.000 C 
ENDBRANCH   3   5
BRANCH   2  11
ATOM     11  C   UNL     1     -37.053  21.903   2.292  0.00  0.00    +0.140 C 
ATOM     12  C   UNL     1     -37.904  22.279   1.090  0.00  0.00    +0.030 C 
BRANCH  11  14
ATOM     13  O   UNL     1     -37.791  23.692   3.749  0.00  0.00    -0.283 OA
ATOM     14  C   UNL     1     -36.865  23.099   3.208  0.00  0.00    +0.217 C 
BRANCH  14  15
ATOM     15  S   UNL     1     -35.181  23.603   3.390  0.00  0.00    -0.064 S 
BRANCH  15  16
ATOM     16  C   UNL     1     -34.932  23.290   5.152  0.00  0.00    +0.174 C 
BRANCH  16  18
ATOM     17  O   UNL     1     -34.825  20.890   4.952  0.00  0.00    -0.249 OA
ATOM     18  C   UNL     1     -35.333  21.878   5.469  0.00  0.00    +0.325 C 
BRANCH  18  19
ATOM     19  O   UNL     1     -36.313  21.809   6.405  0.00  0.00    -0.480 OA
ATOM     20  H   UNL     1     -36.490  22.548   6.953  0.00  0.00    +0.295 HD
ENDBRANCH  18  19
ENDBRANCH  16  18
ENDBRANCH  15  16
ENDBRANCH  14  15
ENDBRANCH  11  14
ENDBRANCH   2  11
TORSDOF 7
ENDMDL
MODEL 6
REMARK VINA RESULT:      -5.3      3.178      6.191
REMARK  Name = 5702523
REMARK  7 active torsions:
REMARK  status: ('A' for Active; 'I' for Inactive)
REMARK    1  A    between atoms: N_2  and  C_11
REMARK    2  A    between atoms: C_3  and  C_5
REMARK    3  A    between atoms: C_11  and  C_14
REMARK    4  A    between atoms: C_14  and  S_15
REMARK    5  A    between atoms: S_15  and  C_16
REMARK    6  A    between atoms: C_16  and  C_18
REMARK    7  A    between atoms: C_18  and  O_19
REMARK                            x       y       z     vdW  Elec       q    Type
REMARK                         _______ _______ _______ _____ _____    ______ ____
ROOT
ATOM      1  O   UNL     1     -36.605  19.858   1.519  0.00  0.00    -0.270 OA
ATOM      2  N   UNL     1     -35.963  22.043   1.957  0.00  0.00    -0.295 N 
ATOM      3  C   UNL     1     -35.748  20.737   1.536  0.00  0.00    +0.246 C 
ATOM      4  H   UNL     1     -35.211  22.677   1.934  0.00  0.00    +0.150 HD
ENDROOT
BRANCH   3   5
ATOM      5  C   UNL     1     -34.364  20.411   1.108  0.00  0.00    +0.053 C 
ATOM      6  C   UNL     1     -33.797  19.228   1.532  0.00  0.00    +0.005 C 
ATOM      7  C   UNL     1     -33.689  21.302   0.299  0.00  0.00    +0.005 C 
ATOM      8  C   UNL     1     -32.496  18.921   1.129  0.00  0.00    +0.000 C 
ATOM      9  C   UNL     1     -32.390  20.996  -0.104  0.00  0.00    +0.000 C 
ATOM     10  C   UNL     1     -31.793  19.805   0.311  0.00  0.00    +0.000 C 
ENDBRANCH   3   5
BRANCH   2  11
ATOM     11  C   UNL     1     -37.244  22.506   2.425  0.00  0.00    +0.140 C 
ATOM     12  C   UNL     1     -38.099  23.023   1.280  0.00  0.00    +0.030 C 
BRANCH  11  14
ATOM     13  O   UNL     1     -37.838  24.322   3.914  0.00  0.00    -0.283 OA
ATOM     14  C   UNL     1     -36.965  23.613   3.425  0.00  0.00    +0.217 C 
BRANCH  14  15
ATOM     15  S   UNL     1     -35.250  23.831   3.791  0.00  0.00    -0.064 S 
BRANCH  15  16
ATOM     16  C   UNL     1     -35.350  24.421   5.496  0.00  0.00    +0.174 C 
BRANCH  16  18
ATOM     17  O   UNL     1     -34.217  26.546   5.596  0.00  0.00    -0.249 OA
ATOM     18  C   UNL     1     -35.267  25.921   5.511  0.00  0.00    +0.325 C 
BRANCH  18  19
ATOM     19  O   UNL     1     -36.482  26.514   5.406  0.00  0.00    -0.480 OA
ATOM     20  H   UNL     1     -36.652  27.114   4.708  0.00  0.00    +0.295 HD
ENDBRANCH  18  19
ENDBRANCH  16  18
ENDBRANCH  15  16
ENDBRANCH  14  15
ENDBRANCH  11  14
ENDBRANCH   2  11
TORSDOF 7
ENDMDL
MODEL 7
REMARK VINA RESULT:      -5.3      3.538      6.372
REMARK  Name = 5702523
REMARK  7 active torsions:
REMARK  status: ('A' for Active; 'I' for Inactive)
REMARK    1  A    between atoms: N_2  and  C_11
REMARK    2  A    between atoms: C_3  and  C_5
REMARK    3  A    between atoms: C_11  and  C_14
REMARK    4  A    between atoms: C_14  and  S_15
REMARK    5  A    between atoms: S_15  and  C_16
REMARK    6  A    between atoms: C_16  and  C_18
REMARK    7  A    between atoms: C_18  and  O_19
REMARK                            x       y       z     vdW  Elec       q    Type
REMARK                         _______ _______ _______ _____ _____    ______ ____
ROOT
ATOM      1  O   UNL     1     -34.849  22.661  -0.351  0.00  0.00    -0.270 OA
ATOM      2  N   UNL     1     -34.985  22.635   1.965  0.00  0.00    -0.295 N 
ATOM      3  C   UNL     1     -34.561  22.157   0.732  0.00  0.00    +0.246 C 
ATOM      4  H   UNL     1     -34.701  22.160   2.779  0.00  0.00    +0.150 HD
ENDROOT
BRANCH   3   5
ATOM      5  C   UNL     1     -33.721  20.933   0.761  0.00  0.00    +0.053 C 
ATOM      6  C   UNL     1     -34.178  19.827   1.448  0.00  0.00    +0.005 C 
ATOM      7  C   UNL     1     -32.509  20.941   0.101  0.00  0.00    +0.005 C 
ATOM      8  C   UNL     1     -33.388  18.677   1.475  0.00  0.00    +0.000 C 
ATOM      9  C   UNL     1     -31.720  19.791   0.129  0.00  0.00    +0.000 C 
ATOM     10  C   UNL     1     -32.159  18.660   0.816  0.00  0.00    +0.000 C 
ENDBRANCH   3   5
BRANCH   2  11
ATOM     11  C   UNL     1     -35.825  23.797   2.098  0.00  0.00    +0.140 C 
ATOM     12  C   UNL     1     -35.000  25.069   2.193  0.00  0.00    +0.030 C 
BRANCH  11  14
ATOM     13  O   UNL     1     -37.672  22.932   3.406  0.00  0.00    -0.283 OA
ATOM     14  C   UNL     1     -36.643  23.597   3.362  0.00  0.00    +0.217 C 
BRANCH  14  15
ATOM     15  S   UNL     1     -36.005  24.453   4.770  0.00  0.00    -0.064 S 
BRANCH  15  16
ATOM     16  C   UNL     1     -34.722  23.299   5.305  0.00  0.00    +0.174 C 
BRANCH  16  18
ATOM     17  O   UNL     1     -35.050  20.975   4.756  0.00  0.00    -0.249 OA
ATOM     18  C   UNL     1     -35.320  21.931   5.472  0.00  0.00    +0.325 C 
BRANCH  18  19
ATOM     19  O   UNL     1     -36.183  21.861   6.516  0.00  0.00    -0.480 OA
ATOM     20  H   UNL     1     -35.998  22.322   7.310  0.00  0.00    +0.295 HD
ENDBRANCH  18  19
ENDBRANCH  16  18
ENDBRANCH  15  16
ENDBRANCH  14  15
ENDBRANCH  11  14
ENDBRANCH   2  11
TORSDOF 7
ENDMDL
MODEL 8
REMARK VINA RESULT:      -5.2      3.599      6.279
REMARK  Name = 5702523
REMARK  7 active torsions:
REMARK  status: ('A' for Active; 'I' for Inactive)
REMARK    1  A    between atoms: N_2  and  C_11
REMARK    2  A    between atoms: C_3  and  C_5
REMARK    3  A    between atoms: C_11  and  C_14
REMARK    4  A    between atoms: C_14  and  S_15
REMARK    5  A    between atoms: S_15  and  C_16
REMARK    6  A    between atoms: C_16  and  C_18
REMARK    7  A    between atoms: C_18  and  O_19
REMARK                            x       y       z     vdW  Elec       q    Type
REMARK                         _______ _______ _______ _____ _____    ______ ____
ROOT
ATOM      1  O   UNL     1     -36.068  19.553   1.382  0.00  0.00    -0.270 OA
ATOM      2  N   UNL     1     -35.223  21.611   2.040  0.00  0.00    -0.295 N 
ATOM      3  C   UNL     1     -35.127  20.334   1.502  0.00  0.00    +0.246 C 
ATOM      4  H   UNL     1     -34.409  22.163   2.095  0.00  0.00    +0.150 HD
ENDROOT
BRANCH   3   5
ATOM      5  C   UNL     1     -33.771  19.906   1.075  0.00  0.00    +0.053 C 
ATOM      6  C   UNL     1     -33.026  20.750   0.278  0.00  0.00    +0.005 C 
ATOM      7  C   UNL     1     -33.299  18.677   1.488  0.00  0.00    +0.005 C 
ATOM      8  C   UNL     1     -31.752  20.348  -0.123  0.00  0.00    +0.000 C 
ATOM      9  C   UNL     1     -32.026  18.275   1.087  0.00  0.00    +0.000 C 
ATOM     10  C   UNL     1     -31.252  19.110   0.281  0.00  0.00    +0.000 C 
ENDBRANCH   3   5
BRANCH   2  11
ATOM     11  C   UNL     1     -36.464  22.158   2.522  0.00  0.00    +0.140 C 
ATOM     12  C   UNL     1     -37.247  22.825   1.403  0.00  0.00    +0.030 C 
BRANCH  11  14
ATOM     13  O   UNL     1     -36.671  23.239   4.680  0.00  0.00    -0.283 OA
ATOM     14  C   UNL     1     -36.103  23.169   3.596  0.00  0.00    +0.217 C 
BRANCH  14  15
ATOM     15  S   UNL     1     -34.815  24.284   3.126  0.00  0.00    -0.064 S 
BRANCH  15  16
ATOM     16  C   UNL     1     -35.661  25.868   3.323  0.00  0.00    +0.174 C 
BRANCH  16  18
ATOM     17  O   UNL     1     -34.470  26.743   5.227  0.00  0.00    -0.249 OA
ATOM     18  C   UNL     1     -35.519  26.336   4.743  0.00  0.00    +0.325 C 
BRANCH  18  19
ATOM     19  O   UNL     1     -36.685  26.275   5.433  0.00  0.00    -0.480 OA
ATOM     20  H   UNL     1     -37.485  26.548   5.028  0.00  0.00    +0.295 HD
ENDBRANCH  18  19
ENDBRANCH  16  18
ENDBRANCH  15  16
ENDBRANCH  14  15
ENDBRANCH  11  14
ENDBRANCH   2  11
TORSDOF 7
ENDMDL
MODEL 9
REMARK VINA RESULT:      -5.1      3.422      5.189
REMARK  Name = 5702523
REMARK  7 active torsions:
REMARK  status: ('A' for Active; 'I' for Inactive)
REMARK    1  A    between atoms: N_2  and  C_11
REMARK    2  A    between atoms: C_3  and  C_5
REMARK    3  A    between atoms: C_11  and  C_14
REMARK    4  A    between atoms: C_14  and  S_15
REMARK    5  A    between atoms: S_15  and  C_16
REMARK    6  A    between atoms: C_16  and  C_18
REMARK    7  A    between atoms: C_18  and  O_19
REMARK                            x       y       z     vdW  Elec       q    Type
REMARK                         _______ _______ _______ _____ _____    ______ ____
ROOT
ATOM      1  O   UNL     1     -36.133  23.150   1.544  0.00  0.00    -0.270 OA
ATOM      2  N   UNL     1     -36.879  25.020   2.696  0.00  0.00    -0.295 N 
ATOM      3  C   UNL     1     -36.285  23.769   2.594  0.00  0.00    +0.246 C 
ATOM      4  H   UNL     1     -36.955  25.436   3.585  0.00  0.00    +0.150 HD
ENDROOT
BRANCH   3   5
ATOM      5  C   UNL     1     -35.834  23.155   3.869  0.00  0.00    +0.053 C 
ATOM      6  C   UNL     1     -35.514  21.814   3.887  0.00  0.00    +0.005 C 
ATOM      7  C   UNL     1     -35.750  23.947   4.996  0.00  0.00    +0.005 C 
ATOM      8  C   UNL     1     -35.091  21.238   5.085  0.00  0.00    +0.000 C 
ATOM      9  C   UNL     1     -35.328  23.371   6.194  0.00  0.00    +0.000 C 
ATOM     10  C   UNL     1     -34.998  22.017   6.239  0.00  0.00    +0.000 C 
ENDBRANCH   3   5
BRANCH   2  11
ATOM     11  C   UNL     1     -37.389  25.731   1.553  0.00  0.00    +0.140 C 
ATOM     12  C   UNL     1     -36.934  27.182   1.554  0.00  0.00    +0.030 C 
BRANCH  11  14
ATOM     13  O   UNL     1     -39.598  26.466   2.220  0.00  0.00    -0.283 OA
ATOM     14  C   UNL     1     -38.903  25.647   1.630  0.00  0.00    +0.217 C 
BRANCH  14  15
ATOM     15  S   UNL     1     -39.582  24.225   0.832  0.00  0.00    -0.064 S 
BRANCH  15  16
ATOM     16  C   UNL     1     -39.831  23.137   2.253  0.00  0.00    +0.174 C 
BRANCH  16  18
ATOM     17  O   UNL     1     -40.474  21.101   1.133  0.00  0.00    -0.249 OA
ATOM     18  C   UNL     1     -39.663  21.707   1.822  0.00  0.00    +0.325 C 
BRANCH  18  19
ATOM     19  O   UNL     1     -38.505  21.158   2.267  0.00  0.00    -0.480 OA
ATOM     20  H   UNL     1     -38.450  20.824   3.140  0.00  0.00    +0.295 HD
ENDBRANCH  18  19
ENDBRANCH  16  18
ENDBRANCH  15  16
ENDBRANCH  14  15
ENDBRANCH  11  14
ENDBRANCH   2  11
TORSDOF 7
ENDMDL
