MODEL 1
REMARK VINA RESULT:      -5.9      0.000      0.000
REMARK  Name = 5491924
REMARK  15 active torsions:
REMARK  status: ('A' for Active; 'I' for Inactive)
REMARK    1  A    between atoms: C_1  and  C_5
REMARK    2  A    between atoms: C_1  and  N_16
REMARK    3  A    between atoms: C_1  and  C_32
REMARK    4  A    between atoms: C_6  and  C_8
REMARK    5  A    between atoms: C_8  and  N_9
REMARK    6  A    between atoms: C_8  and  C_13
REMARK    7  A    between atoms: N_16  and  C_19
REMARK    8  A    between atoms: C_19  and  C_21
REMARK    9  A    between atoms: C_19  and  C_24
REMARK   10  A    between atoms: C_21  and  C_23
REMARK   11  A    between atoms: C_24  and  C_25
REMARK   12  A    between atoms: C_25  and  C_26
REMARK   13  A    between atoms: C_26  and  C_27
REMARK   14  A    between atoms: C_27  and  N_28
REMARK   15  A    between atoms: C_32  and  C_33
REMARK                            x       y       z     vdW  Elec       q    Type
REMARK                         _______ _______ _______ _____ _____    ______ ____
ROOT
ATOM      1  C   UNL     1     -36.079  21.064   1.621  0.00  0.00    +0.022 C 
ENDROOT
BRANCH   1   5
ATOM      2  O   UNL     1     -38.345  20.864   0.783  0.00  0.00    -0.277 OA
ATOM      3  O   UNL     1     -38.876  18.473  -0.566  0.00  0.00    -0.277 OA
ATOM      4  N   UNL     1     -36.864  19.097   0.434  0.00  0.00    -0.259 N 
ATOM      5  C   UNL     1     -37.235  20.354   0.919  0.00  0.00    +0.208 C 
ATOM      6  C   UNL     1     -37.704  18.237  -0.276  0.00  0.00    +0.207 C 
ATOM      7  H   UNL     1     -35.943  18.796   0.606  0.00  0.00    +0.157 HD
BRANCH   6   8
ATOM      8  C   UNL     1     -37.019  16.918  -0.632  0.00  0.00    +0.013 C 
BRANCH   8   9
ATOM      9  N   UNL     1     -37.496  15.963   0.369  0.00  0.00    +0.387 N 
ATOM     10  H   UNL     1     -38.078  15.258  -0.083  0.00  0.00    -0.089 HD
ATOM     11  H   UNL     1     -38.044  16.454   1.075  0.00  0.00    -0.089 HD
ATOM     12  H   UNL     1     -36.697  15.509   0.815  0.00  0.00    -0.089 HD
ENDBRANCH   8   9
BRANCH   8  13
ATOM     13  C   UNL     1     -35.476  17.060  -0.612  0.00  0.00    -0.011 C 
ATOM     14  C   UNL     1     -34.906  17.452  -1.980  0.00  0.00    -0.002 C 
ATOM     15  C   UNL     1     -34.819  15.746  -0.164  0.00  0.00    -0.002 C 
ENDBRANCH   8  13
ENDBRANCH   6   8
ENDBRANCH   1   5
BRANCH   1  16
ATOM     16  N   UNL     1     -36.665  21.886   2.681  0.00  0.00    +0.397 N 
ATOM     17  H   UNL     1     -37.521  22.319   2.335  0.00  0.00    -0.083 HD
ATOM     18  H   UNL     1     -36.870  21.290   3.483  0.00  0.00    -0.083 HD
BRANCH  16  19
ATOM     19  C   UNL     1     -35.738  22.926   3.096  0.00  0.00    -0.000 C 
BRANCH  19  21
ATOM     20  O   UNL     1     -37.297  24.187   4.450  0.00  0.00    -0.297 OA
ATOM     21  C   UNL     1     -36.248  23.543   4.399  0.00  0.00    +0.147 C 
BRANCH  21  23
ATOM     22 CL   UNL     1     -35.241  21.544   5.915  0.00  0.00    -0.105 Cl
ATOM     23  C   UNL     1     -35.400  23.283   5.629  0.00  0.00    +0.157 C 
ENDBRANCH  21  23
ENDBRANCH  19  21
BRANCH  19  24
ATOM     24  C   UNL     1     -35.540  23.979   1.996  0.00  0.00    -0.014 C 
BRANCH  24  25
ATOM     25  C   UNL     1     -34.132  24.591   1.951  0.00  0.00    -0.004 C 
BRANCH  25  26
ATOM     26  C   UNL     1     -34.020  25.910   2.728  0.00  0.00    -0.024 C 
BRANCH  26  27
ATOM     27  C   UNL     1     -35.315  26.718   2.842  0.00  0.00    -0.086 C 
BRANCH  27  28
ATOM     28  N   UNL     1     -35.654  27.013   4.229  0.00  0.00    +0.380 N 
ATOM     29  H   UNL     1     -36.663  27.130   4.314  0.00  0.00    -0.089 HD
ATOM     30  H   UNL     1     -35.186  27.871   4.518  0.00  0.00    -0.089 HD
ATOM     31  H   UNL     1     -35.349  26.243   4.824  0.00  0.00    -0.089 HD
ENDBRANCH  27  28
ENDBRANCH  26  27
ENDBRANCH  25  26
ENDBRANCH  24  25
ENDBRANCH  19  24
ENDBRANCH  16  19
ENDBRANCH   1  16
BRANCH   1  32
ATOM     32  C   UNL     1     -35.088  20.049   2.210  0.00  0.00    +0.014 C 
BRANCH  32  33
ATOM     33  C   UNL     1     -33.830  19.902   1.388  0.00  0.00    -0.024 C 
ATOM     34  C   UNL     1     -33.442  20.920   0.518  0.00  0.00    -0.004 C 
ATOM     35  C   UNL     1     -33.055  18.748   1.500  0.00  0.00    -0.004 C 
ATOM     36  C   UNL     1     -32.279  20.785  -0.241  0.00  0.00    -0.000 C 
ATOM     37  C   UNL     1     -31.892  18.612   0.741  0.00  0.00    -0.000 C 
ATOM     38  C   UNL     1     -31.504  19.631  -0.129  0.00  0.00    -0.000 C 
ENDBRANCH  32  33
ENDBRANCH   1  32
TORSDOF 15
ENDMDL
MODEL 2
REMARK VINA RESULT:      -5.8      1.982      6.636
REMARK  Name = 5491924
REMARK  15 active torsions:
REMARK  status: ('A' for Active; 'I' for Inactive)
REMARK    1  A    between atoms: C_1  and  C_5
REMARK    2  A    between atoms: C_1  and  N_16
REMARK    3  A    between atoms: C_1  and  C_32
REMARK    4  A    between atoms: C_6  and  C_8
REMARK    5  A    between atoms: C_8  and  N_9
REMARK    6  A    between atoms: C_8  and  C_13
REMARK    7  A    between atoms: N_16  and  C_19
REMARK    8  A    between atoms: C_19  and  C_21
REMARK    9  A    between atoms: C_19  and  C_24
REMARK   10  A    between atoms: C_21  and  C_23
REMARK   11  A    between atoms: C_24  and  C_25
REMARK   12  A    between atoms: C_25  and  C_26
REMARK   13  A    between atoms: C_26  and  C_27
REMARK   14  A    between atoms: C_27  and  N_28
REMARK   15  A    between atoms: C_32  and  C_33
REMARK                            x       y       z     vdW  Elec       q    Type
REMARK                         _______ _______ _______ _____ _____    ______ ____
ROOT
ATOM      1  C   UNL     1     -35.615  20.413   2.532  0.00  0.00    +0.022 C 
ENDROOT
BRANCH   1   5
ATOM      2  O   UNL     1     -35.217  20.976   4.856  0.00  0.00    -0.277 OA
ATOM      3  O   UNL     1     -35.859  23.610   5.538  0.00  0.00    -0.277 OA
ATOM      4  N   UNL     1     -36.100  22.609   3.446  0.00  0.00    -0.259 N 
ATOM      5  C   UNL     1     -35.620  21.333   3.752  0.00  0.00    +0.208 C 
ATOM      6  C   UNL     1     -36.189  23.665   4.354  0.00  0.00    +0.207 C 
ATOM      7  H   UNL     1     -36.396  22.776   2.522  0.00  0.00    +0.157 HD
BRANCH   6   8
ATOM      8  C   UNL     1     -36.794  24.922   3.728  0.00  0.00    +0.013 C 
BRANCH   8   9
ATOM      9  N   UNL     1     -38.218  24.863   4.062  0.00  0.00    +0.387 N 
ATOM     10  H   UNL     1     -38.349  25.121   5.041  0.00  0.00    -0.089 HD
ATOM     11  H   UNL     1     -38.564  23.915   3.911  0.00  0.00    -0.089 HD
ATOM     12  H   UNL     1     -38.734  25.512   3.468  0.00  0.00    -0.089 HD
ENDBRANCH   8   9
BRANCH   8  13
ATOM     13  C   UNL     1     -36.557  24.958   2.197  0.00  0.00    -0.011 C 
ATOM     14  C   UNL     1     -35.222  25.615   1.827  0.00  0.00    -0.002 C 
ATOM     15  C   UNL     1     -37.690  25.720   1.494  0.00  0.00    -0.002 C 
ENDBRANCH   8  13
ENDBRANCH   6   8
ENDBRANCH   1   5
BRANCH   1  16
ATOM     16  N   UNL     1     -37.013  20.186   2.163  0.00  0.00    +0.397 N 
ATOM     17  H   UNL     1     -37.333  19.312   2.581  0.00  0.00    -0.083 HD
ATOM     18  H   UNL     1     -37.573  20.967   2.505  0.00  0.00    -0.083 HD
BRANCH  16  19
ATOM     19  C   UNL     1     -37.157  20.106   0.719  0.00  0.00    -0.000 C 
BRANCH  19  21
ATOM     20  O   UNL     1     -39.422  20.074  -0.128  0.00  0.00    -0.297 OA
ATOM     21  C   UNL     1     -38.490  20.741   0.324  0.00  0.00    +0.147 C 
BRANCH  21  23
ATOM     22 CL   UNL     1     -39.744  22.572   1.869  0.00  0.00    -0.105 Cl
ATOM     23  C   UNL     1     -38.605  22.235   0.557  0.00  0.00    +0.157 C 
ENDBRANCH  21  23
ENDBRANCH  19  21
BRANCH  19  24
ATOM     24  C   UNL     1     -37.034  18.659   0.218  0.00  0.00    -0.014 C 
BRANCH  24  25
ATOM     25  C   UNL     1     -36.160  18.494  -1.033  0.00  0.00    -0.004 C 
BRANCH  25  26
ATOM     26  C   UNL     1     -35.308  17.217  -1.012  0.00  0.00    -0.024 C 
BRANCH  26  27
ATOM     27  C   UNL     1     -36.079  15.916  -0.779  0.00  0.00    -0.086 C 
BRANCH  27  28
ATOM     28  N   UNL     1     -35.634  15.226   0.426  0.00  0.00    +0.380 N 
ATOM     29  H   UNL     1     -35.831  14.229   0.338  0.00  0.00    -0.089 HD
ATOM     30  H   UNL     1     -36.127  15.601   1.235  0.00  0.00    -0.089 HD
ATOM     31  H   UNL     1     -34.630  15.365   0.545  0.00  0.00    -0.089 HD
ENDBRANCH  27  28
ENDBRANCH  26  27
ENDBRANCH  25  26
ENDBRANCH  24  25
ENDBRANCH  19  24
ENDBRANCH  16  19
ENDBRANCH   1  16
BRANCH   1  32
ATOM     32  C   UNL     1     -34.845  21.051   1.366  0.00  0.00    +0.014 C 
BRANCH  32  33
ATOM     33  C   UNL     1     -33.597  20.288   0.990  0.00  0.00    -0.024 C 
ATOM     34  C   UNL     1     -33.393  19.000   1.482  0.00  0.00    -0.004 C 
ATOM     35  C   UNL     1     -32.649  20.872   0.149  0.00  0.00    -0.004 C 
ATOM     36  C   UNL     1     -32.241  18.294   1.134  0.00  0.00    -0.000 C 
ATOM     37  C   UNL     1     -31.497  20.167  -0.200  0.00  0.00    -0.000 C 
ATOM     38  C   UNL     1     -31.293  18.878   0.293  0.00  0.00    -0.000 C 
ENDBRANCH  32  33
ENDBRANCH   1  32
TORSDOF 15
ENDMDL
MODEL 3
REMARK VINA RESULT:      -5.8      2.133      6.469
REMARK  Name = 5491924
REMARK  15 active torsions:
REMARK  status: ('A' for Active; 'I' for Inactive)
REMARK    1  A    between atoms: C_1  and  C_5
REMARK    2  A    between atoms: C_1  and  N_16
REMARK    3  A    between atoms: C_1  and  C_32
REMARK    4  A    between atoms: C_6  and  C_8
REMARK    5  A    between atoms: C_8  and  N_9
REMARK    6  A    between atoms: C_8  and  C_13
REMARK    7  A    between atoms: N_16  and  C_19
REMARK    8  A    between atoms: C_19  and  C_21
REMARK    9  A    between atoms: C_19  and  C_24
REMARK   10  A    between atoms: C_21  and  C_23
REMARK   11  A    between atoms: C_24  and  C_25
REMARK   12  A    between atoms: C_25  and  C_26
REMARK   13  A    between atoms: C_26  and  C_27
REMARK   14  A    between atoms: C_27  and  N_28
REMARK   15  A    between atoms: C_32  and  C_33
REMARK                            x       y       z     vdW  Elec       q    Type
REMARK                         _______ _______ _______ _____ _____    ______ ____
ROOT
ATOM      1  C   UNL     1     -35.730  20.504   2.547  0.00  0.00    +0.022 C 
ENDROOT
BRANCH   1   5
ATOM      2  O   UNL     1     -35.192  21.021   4.853  0.00  0.00    -0.277 OA
ATOM      3  O   UNL     1     -35.813  23.634   5.631  0.00  0.00    -0.277 OA
ATOM      4  N   UNL     1     -36.175  22.676   3.537  0.00  0.00    -0.259 N 
ATOM      5  C   UNL     1     -35.667  21.398   3.784  0.00  0.00    +0.208 C 
ATOM      6  C   UNL     1     -36.217  23.711   4.471  0.00  0.00    +0.207 C 
ATOM      7  H   UNL     1     -36.530  22.859   2.637  0.00  0.00    +0.157 HD
BRANCH   6   8
ATOM      8  C   UNL     1     -36.870  24.974   3.911  0.00  0.00    +0.013 C 
BRANCH   8   9
ATOM      9  N   UNL     1     -38.310  24.743   4.037  0.00  0.00    +0.387 N 
ATOM     10  H   UNL     1     -38.542  24.566   5.015  0.00  0.00    -0.089 HD
ATOM     11  H   UNL     1     -38.576  23.935   3.474  0.00  0.00    -0.089 HD
ATOM     12  H   UNL     1     -38.817  25.567   3.712  0.00  0.00    -0.089 HD
ENDBRANCH   8   9
BRANCH   8  13
ATOM     13  C   UNL     1     -36.448  25.223   2.442  0.00  0.00    -0.011 C 
ATOM     14  C   UNL     1     -35.069  25.885   2.332  0.00  0.00    -0.002 C 
ATOM     15  C   UNL     1     -37.477  26.112   1.728  0.00  0.00    -0.002 C 
ENDBRANCH   8  13
ENDBRANCH   6   8
ENDBRANCH   1   5
BRANCH   1  16
ATOM     16  N   UNL     1     -37.141  20.390   2.175  0.00  0.00    +0.397 N 
ATOM     17  H   UNL     1     -37.422  19.411   2.221  0.00  0.00    -0.083 HD
ATOM     18  H   UNL     1     -37.696  20.948   2.823  0.00  0.00    -0.083 HD
BRANCH  16  19
ATOM     19  C   UNL     1     -37.358  20.885   0.826  0.00  0.00    -0.000 C 
BRANCH  19  21
ATOM     20  O   UNL     1     -38.747  22.517   1.949  0.00  0.00    -0.297 OA
ATOM     21  C   UNL     1     -38.204  22.157   0.903  0.00  0.00    +0.147 C 
BRANCH  21  23
ATOM     22 CL   UNL     1     -36.710  23.567  -0.855  0.00  0.00    -0.105 Cl
ATOM     23  C   UNL     1     -38.304  22.962  -0.377  0.00  0.00    +0.157 C 
ENDBRANCH  21  23
ENDBRANCH  19  21
BRANCH  19  24
ATOM     24  C   UNL     1     -37.998  19.817  -0.073  0.00  0.00    -0.014 C 
BRANCH  24  25
ATOM     25  C   UNL     1     -37.017  19.121  -1.027  0.00  0.00    -0.004 C 
BRANCH  25  26
ATOM     26  C   UNL     1     -36.293  17.929  -0.387  0.00  0.00    -0.024 C 
BRANCH  26  27
ATOM     27  C   UNL     1     -36.855  16.550  -0.741  0.00  0.00    -0.086 C 
BRANCH  27  28
ATOM     28  N   UNL     1     -37.276  15.812   0.444  0.00  0.00    +0.380 N 
ATOM     29  H   UNL     1     -38.077  15.226   0.212  0.00  0.00    -0.089 HD
ATOM     30  H   UNL     1     -37.536  16.469   1.179  0.00  0.00    -0.089 HD
ATOM     31  H   UNL     1     -36.508  15.225   0.769  0.00  0.00    -0.089 HD
ENDBRANCH  27  28
ENDBRANCH  26  27
ENDBRANCH  25  26
ENDBRANCH  24  25
ENDBRANCH  19  24
ENDBRANCH  16  19
ENDBRANCH   1  16
BRANCH   1  32
ATOM     32  C   UNL     1     -34.914  21.105   1.392  0.00  0.00    +0.014 C 
BRANCH  32  33
ATOM     33  C   UNL     1     -33.689  20.293   1.044  0.00  0.00    -0.024 C 
ATOM     34  C   UNL     1     -32.722  20.820   0.189  0.00  0.00    -0.004 C 
ATOM     35  C   UNL     1     -33.525  19.015   1.579  0.00  0.00    -0.004 C 
ATOM     36  C   UNL     1     -31.590  20.070  -0.132  0.00  0.00    -0.000 C 
ATOM     37  C   UNL     1     -32.393  18.265   1.259  0.00  0.00    -0.000 C 
ATOM     38  C   UNL     1     -31.426  18.793   0.403  0.00  0.00    -0.000 C 
ENDBRANCH  32  33
ENDBRANCH   1  32
TORSDOF 15
ENDMDL
MODEL 4
REMARK VINA RESULT:      -5.8      2.644      5.011
REMARK  Name = 5491924
REMARK  15 active torsions:
REMARK  status: ('A' for Active; 'I' for Inactive)
REMARK    1  A    between atoms: C_1  and  C_5
REMARK    2  A    between atoms: C_1  and  N_16
REMARK    3  A    between atoms: C_1  and  C_32
REMARK    4  A    between atoms: C_6  and  C_8
REMARK    5  A    between atoms: C_8  and  N_9
REMARK    6  A    between atoms: C_8  and  C_13
REMARK    7  A    between atoms: N_16  and  C_19
REMARK    8  A    between atoms: C_19  and  C_21
REMARK    9  A    between atoms: C_19  and  C_24
REMARK   10  A    between atoms: C_21  and  C_23
REMARK   11  A    between atoms: C_24  and  C_25
REMARK   12  A    between atoms: C_25  and  C_26
REMARK   13  A    between atoms: C_26  and  C_27
REMARK   14  A    between atoms: C_27  and  N_28
REMARK   15  A    between atoms: C_32  and  C_33
REMARK                            x       y       z     vdW  Elec       q    Type
REMARK                         _______ _______ _______ _____ _____    ______ ____
ROOT
ATOM      1  C   UNL     1     -36.558  21.653   1.806  0.00  0.00    +0.022 C 
ENDROOT
BRANCH   1   5
ATOM      2  O   UNL     1     -38.765  21.055   1.001  0.00  0.00    -0.277 OA
ATOM      3  O   UNL     1     -40.723  23.006   1.426  0.00  0.00    -0.277 OA
ATOM      4  N   UNL     1     -38.466  23.142   1.996  0.00  0.00    -0.259 N 
ATOM      5  C   UNL     1     -38.043  21.893   1.536  0.00  0.00    +0.208 C 
ATOM      6  C   UNL     1     -39.775  23.620   1.913  0.00  0.00    +0.207 C 
ATOM      7  H   UNL     1     -37.792  23.728   2.409  0.00  0.00    +0.157 HD
BRANCH   6   8
ATOM      8  C   UNL     1     -39.912  25.039   2.465  0.00  0.00    +0.013 C 
BRANCH   8   9
ATOM      9  N   UNL     1     -39.774  24.895   3.915  0.00  0.00    +0.387 N 
ATOM     10  H   UNL     1     -39.655  23.909   4.150  0.00  0.00    -0.089 HD
ATOM     11  H   UNL     1     -40.611  25.255   4.374  0.00  0.00    -0.089 HD
ATOM     12  H   UNL     1     -38.959  25.421   4.233  0.00  0.00    -0.089 HD
ENDBRANCH   8   9
BRANCH   8  13
ATOM     13  C   UNL     1     -41.270  25.669   2.069  0.00  0.00    -0.011 C 
ATOM     14  C   UNL     1     -41.176  26.511   0.791  0.00  0.00    -0.002 C 
ATOM     15  C   UNL     1     -41.803  26.558   3.203  0.00  0.00    -0.002 C 
ENDBRANCH   8  13
ENDBRANCH   6   8
ENDBRANCH   1   5
BRANCH   1  16
ATOM     16  N   UNL     1     -36.366  21.763   3.253  0.00  0.00    +0.397 N 
ATOM     17  H   UNL     1     -37.261  21.968   3.696  0.00  0.00    -0.083 HD
ATOM     18  H   UNL     1     -35.993  20.880   3.602  0.00  0.00    -0.083 HD
BRANCH  16  19
ATOM     19  C   UNL     1     -35.423  22.824   3.566  0.00  0.00    -0.000 C 
BRANCH  19  21
ATOM     20  O   UNL     1     -37.034  24.378   4.483  0.00  0.00    -0.297 OA
ATOM     21  C   UNL     1     -36.022  23.700   4.667  0.00  0.00    +0.147 C 
BRANCH  21  23
ATOM     22 CL   UNL     1     -35.254  21.996   6.621  0.00  0.00    -0.105 Cl
ATOM     23  C   UNL     1     -35.313  23.655   6.006  0.00  0.00    +0.157 C 
ENDBRANCH  21  23
ENDBRANCH  19  21
BRANCH  19  24
ATOM     24  C   UNL     1     -35.051  23.637   2.318  0.00  0.00    -0.014 C 
BRANCH  24  25
ATOM     25  C   UNL     1     -34.309  24.949   2.613  0.00  0.00    -0.004 C 
BRANCH  25  26
ATOM     26  C   UNL     1     -34.824  26.134   1.785  0.00  0.00    -0.024 C 
BRANCH  26  27
ATOM     27  C   UNL     1     -35.649  27.166   2.557  0.00  0.00    -0.086 C 
BRANCH  27  28
ATOM     28  N   UNL     1     -35.433  27.072   3.996  0.00  0.00    +0.380 N 
ATOM     29  H   UNL     1     -34.433  27.090   4.191  0.00  0.00    -0.089 HD
ATOM     30  H   UNL     1     -35.832  26.200   4.343  0.00  0.00    -0.089 HD
ATOM     31  H   UNL     1     -35.885  27.860   4.460  0.00  0.00    -0.089 HD
ENDBRANCH  27  28
ENDBRANCH  26  27
ENDBRANCH  25  26
ENDBRANCH  24  25
ENDBRANCH  19  24
ENDBRANCH  16  19
ENDBRANCH   1  16
BRANCH   1  32
ATOM     32  C   UNL     1     -36.126  20.266   1.307  0.00  0.00    +0.014 C 
BRANCH  32  33
ATOM     33  C   UNL     1     -34.664  20.198   0.934  0.00  0.00    -0.024 C 
ATOM     34  C   UNL     1     -33.880  19.134   1.380  0.00  0.00    -0.004 C 
ATOM     35  C   UNL     1     -34.098  21.197   0.144  0.00  0.00    -0.004 C 
ATOM     36  C   UNL     1     -32.530  19.070   1.035  0.00  0.00    -0.000 C 
ATOM     37  C   UNL     1     -32.748  21.134  -0.202  0.00  0.00    -0.000 C 
ATOM     38  C   UNL     1     -31.964  20.069   0.244  0.00  0.00    -0.000 C 
ENDBRANCH  32  33
ENDBRANCH   1  32
TORSDOF 15
ENDMDL
MODEL 5
REMARK VINA RESULT:      -5.7      1.979      2.511
REMARK  Name = 5491924
REMARK  15 active torsions:
REMARK  status: ('A' for Active; 'I' for Inactive)
REMARK    1  A    between atoms: C_1  and  C_5
REMARK    2  A    between atoms: C_1  and  N_16
REMARK    3  A    between atoms: C_1  and  C_32
REMARK    4  A    between atoms: C_6  and  C_8
REMARK    5  A    between atoms: C_8  and  N_9
REMARK    6  A    between atoms: C_8  and  C_13
REMARK    7  A    between atoms: N_16  and  C_19
REMARK    8  A    between atoms: C_19  and  C_21
REMARK    9  A    between atoms: C_19  and  C_24
REMARK   10  A    between atoms: C_21  and  C_23
REMARK   11  A    between atoms: C_24  and  C_25
REMARK   12  A    between atoms: C_25  and  C_26
REMARK   13  A    between atoms: C_26  and  C_27
REMARK   14  A    between atoms: C_27  and  N_28
REMARK   15  A    between atoms: C_32  and  C_33
REMARK                            x       y       z     vdW  Elec       q    Type
REMARK                         _______ _______ _______ _____ _____    ______ ____
ROOT
ATOM      1  C   UNL     1     -36.580  21.021   1.756  0.00  0.00    +0.022 C 
ENDROOT
BRANCH   1   5
ATOM      2  O   UNL     1     -38.672  20.742   0.565  0.00  0.00    -0.277 OA
ATOM      3  O   UNL     1     -38.888  18.343  -0.855  0.00  0.00    -0.277 OA
ATOM      4  N   UNL     1     -37.088  19.035   0.456  0.00  0.00    -0.259 N 
ATOM      5  C   UNL     1     -37.580  20.274   0.876  0.00  0.00    +0.208 C 
ATOM      6  C   UNL     1     -37.770  18.149  -0.380  0.00  0.00    +0.207 C 
ATOM      7  H   UNL     1     -36.196  18.768   0.773  0.00  0.00    +0.157 HD
BRANCH   6   8
ATOM      8  C   UNL     1     -36.986  16.859  -0.623  0.00  0.00    +0.013 C 
BRANCH   8   9
ATOM      9  N   UNL     1     -37.443  15.939   0.419  0.00  0.00    +0.387 N 
ATOM     10  H   UNL     1     -36.790  15.960   1.203  0.00  0.00    -0.089 HD
ATOM     11  H   UNL     1     -37.489  14.992   0.042  0.00  0.00    -0.089 HD
ATOM     12  H   UNL     1     -38.369  16.222   0.742  0.00  0.00    -0.089 HD
ENDBRANCH   8   9
BRANCH   8  13
ATOM     13  C   UNL     1     -35.459  17.106  -0.553  0.00  0.00    -0.011 C 
ATOM     14  C   UNL     1     -34.888  17.624  -1.878  0.00  0.00    -0.002 C 
ATOM     15  C   UNL     1     -34.721  15.813  -0.173  0.00  0.00    -0.002 C 
ENDBRANCH   8  13
ENDBRANCH   6   8
ENDBRANCH   1   5
BRANCH   1  16
ATOM     16  N   UNL     1     -37.338  21.599   2.866  0.00  0.00    +0.397 N 
ATOM     17  H   UNL     1     -38.336  21.503   2.678  0.00  0.00    -0.083 HD
ATOM     18  H   UNL     1     -37.091  21.106   3.724  0.00  0.00    -0.083 HD
BRANCH  16  19
ATOM     19  C   UNL     1     -37.017  23.008   3.029  0.00  0.00    -0.000 C 
BRANCH  19  21
ATOM     20  O   UNL     1     -37.304  24.460   1.116  0.00  0.00    -0.297 OA
ATOM     21  C   UNL     1     -37.836  23.815   2.021  0.00  0.00    +0.147 C 
BRANCH  21  23
ATOM     22 CL   UNL     1     -39.890  24.912   3.395  0.00  0.00    -0.105 Cl
ATOM     23  C   UNL     1     -39.341  23.744   2.183  0.00  0.00    +0.157 C 
ENDBRANCH  21  23
ENDBRANCH  19  21
BRANCH  19  24
ATOM     24  C   UNL     1     -35.510  23.265   2.889  0.00  0.00    -0.014 C 
BRANCH  24  25
ATOM     25  C   UNL     1     -34.830  23.768   4.170  0.00  0.00    -0.004 C 
BRANCH  25  26
ATOM     26  C   UNL     1     -35.668  23.530   5.434  0.00  0.00    -0.024 C 
BRANCH  26  27
ATOM     27  C   UNL     1     -35.157  22.427   6.364  0.00  0.00    -0.086 C 
BRANCH  27  28
ATOM     28  N   UNL     1     -35.368  21.098   5.803  0.00  0.00    +0.380 N 
ATOM     29  H   UNL     1     -35.971  20.560   6.424  0.00  0.00    -0.089 HD
ATOM     30  H   UNL     1     -34.470  20.624   5.706  0.00  0.00    -0.089 HD
ATOM     31  H   UNL     1     -35.809  21.182   4.888  0.00  0.00    -0.089 HD
ENDBRANCH  27  28
ENDBRANCH  26  27
ENDBRANCH  25  26
ENDBRANCH  24  25
ENDBRANCH  19  24
ENDBRANCH  16  19
ENDBRANCH   1  16
BRANCH   1  32
ATOM     32  C   UNL     1     -35.492  20.071   2.281  0.00  0.00    +0.014 C 
BRANCH  32  33
ATOM     33  C   UNL     1     -34.236  20.085   1.442  0.00  0.00    -0.024 C 
ATOM     34  C   UNL     1     -33.979  21.159   0.590  0.00  0.00    -0.004 C 
ATOM     35  C   UNL     1     -33.333  19.026   1.521  0.00  0.00    -0.004 C 
ATOM     36  C   UNL     1     -32.818  21.173  -0.184  0.00  0.00    -0.000 C 
ATOM     37  C   UNL     1     -32.172  19.039   0.748  0.00  0.00    -0.000 C 
ATOM     38  C   UNL     1     -31.915  20.113  -0.105  0.00  0.00    -0.000 C 
ENDBRANCH  32  33
ENDBRANCH   1  32
TORSDOF 15
ENDMDL
MODEL 6
REMARK VINA RESULT:      -5.6      2.303      6.431
REMARK  Name = 5491924
REMARK  15 active torsions:
REMARK  status: ('A' for Active; 'I' for Inactive)
REMARK    1  A    between atoms: C_1  and  C_5
REMARK    2  A    between atoms: C_1  and  N_16
REMARK    3  A    between atoms: C_1  and  C_32
REMARK    4  A    between atoms: C_6  and  C_8
REMARK    5  A    between atoms: C_8  and  N_9
REMARK    6  A    between atoms: C_8  and  C_13
REMARK    7  A    between atoms: N_16  and  C_19
REMARK    8  A    between atoms: C_19  and  C_21
REMARK    9  A    between atoms: C_19  and  C_24
REMARK   10  A    between atoms: C_21  and  C_23
REMARK   11  A    between atoms: C_24  and  C_25
REMARK   12  A    between atoms: C_25  and  C_26
REMARK   13  A    between atoms: C_26  and  C_27
REMARK   14  A    between atoms: C_27  and  N_28
REMARK   15  A    between atoms: C_32  and  C_33
REMARK                            x       y       z     vdW  Elec       q    Type
REMARK                         _______ _______ _______ _____ _____    ______ ____
ROOT
ATOM      1  C   UNL     1     -35.687  20.490   2.571  0.00  0.00    +0.022 C 
ENDROOT
BRANCH   1   5
ATOM      2  O   UNL     1     -35.180  21.007   4.884  0.00  0.00    -0.277 OA
ATOM      3  O   UNL     1     -35.805  23.623   5.651  0.00  0.00    -0.277 OA
ATOM      4  N   UNL     1     -36.140  22.664   3.552  0.00  0.00    -0.259 N 
ATOM      5  C   UNL     1     -35.639  21.384   3.808  0.00  0.00    +0.208 C 
ATOM      6  C   UNL     1     -36.192  23.700   4.486  0.00  0.00    +0.207 C 
ATOM      7  H   UNL     1     -36.481  22.847   2.648  0.00  0.00    +0.157 HD
BRANCH   6   8
ATOM      8  C   UNL     1     -36.833  24.964   3.915  0.00  0.00    +0.013 C 
BRANCH   8   9
ATOM      9  N   UNL     1     -38.275  24.758   4.066  0.00  0.00    +0.387 N 
ATOM     10  H   UNL     1     -38.699  25.596   4.463  0.00  0.00    -0.089 HD
ATOM     11  H   UNL     1     -38.442  23.965   4.685  0.00  0.00    -0.089 HD
ATOM     12  H   UNL     1     -38.688  24.568   3.152  0.00  0.00    -0.089 HD
ENDBRANCH   8   9
BRANCH   8  13
ATOM     13  C   UNL     1     -36.429  25.184   2.436  0.00  0.00    -0.011 C 
ATOM     14  C   UNL     1     -35.055  25.850   2.298  0.00  0.00    -0.002 C 
ATOM     15  C   UNL     1     -37.470  26.053   1.715  0.00  0.00    -0.002 C 
ENDBRANCH   8  13
ENDBRANCH   6   8
ENDBRANCH   1   5
BRANCH   1  16
ATOM     16  N   UNL     1     -37.094  20.369   2.187  0.00  0.00    +0.397 N 
ATOM     17  H   UNL     1     -37.368  19.387   2.218  0.00  0.00    -0.083 HD
ATOM     18  H   UNL     1     -37.659  20.914   2.838  0.00  0.00    -0.083 HD
BRANCH  16  19
ATOM     19  C   UNL     1     -37.306  20.881   0.843  0.00  0.00    -0.000 C 
BRANCH  19  21
ATOM     20  O   UNL     1     -38.740  22.458   1.986  0.00  0.00    -0.297 OA
ATOM     21  C   UNL     1     -38.282  22.055   0.915  0.00  0.00    +0.147 C 
BRANCH  21  23
ATOM     22 CL   UNL     1     -37.230  23.601  -1.037  0.00  0.00    -0.105 Cl
ATOM     23  C   UNL     1     -38.625  22.712  -0.407  0.00  0.00    +0.157 C 
ENDBRANCH  21  23
ENDBRANCH  19  21
BRANCH  19  24
ATOM     24  C   UNL     1     -37.793  19.780  -0.111  0.00  0.00    -0.014 C 
BRANCH  24  25
ATOM     25  C   UNL     1     -36.708  19.226  -1.046  0.00  0.00    -0.004 C 
BRANCH  25  26
ATOM     26  C   UNL     1     -36.186  17.848  -0.618  0.00  0.00    -0.024 C 
BRANCH  26  27
ATOM     27  C   UNL     1     -34.965  17.339  -1.387  0.00  0.00    -0.086 C 
BRANCH  27  28
ATOM     28  N   UNL     1     -34.288  18.410  -2.107  0.00  0.00    +0.380 N 
ATOM     29  H   UNL     1     -34.315  18.217  -3.108  0.00  0.00    -0.089 HD
ATOM     30  H   UNL     1     -33.318  18.468  -1.798  0.00  0.00    -0.089 HD
ATOM     31  H   UNL     1     -34.758  19.296  -1.919  0.00  0.00    -0.089 HD
ENDBRANCH  27  28
ENDBRANCH  26  27
ENDBRANCH  25  26
ENDBRANCH  24  25
ENDBRANCH  19  24
ENDBRANCH  16  19
ENDBRANCH   1  16
BRANCH   1  32
ATOM     32  C   UNL     1     -34.864  21.094   1.423  0.00  0.00    +0.014 C 
BRANCH  32  33
ATOM     33  C   UNL     1     -33.659  20.262   1.053  0.00  0.00    -0.024 C 
ATOM     34  C   UNL     1     -33.505  18.983   1.586  0.00  0.00    -0.004 C 
ATOM     35  C   UNL     1     -32.701  20.771   0.177  0.00  0.00    -0.004 C 
ATOM     36  C   UNL     1     -32.394  18.213   1.244  0.00  0.00    -0.000 C 
ATOM     37  C   UNL     1     -31.589  20.002  -0.166  0.00  0.00    -0.000 C 
ATOM     38  C   UNL     1     -31.436  18.722   0.368  0.00  0.00    -0.000 C 
ENDBRANCH  32  33
ENDBRANCH   1  32
TORSDOF 15
ENDMDL
MODEL 7
REMARK VINA RESULT:      -5.5      2.124      6.724
REMARK  Name = 5491924
REMARK  15 active torsions:
REMARK  status: ('A' for Active; 'I' for Inactive)
REMARK    1  A    between atoms: C_1  and  C_5
REMARK    2  A    between atoms: C_1  and  N_16
REMARK    3  A    between atoms: C_1  and  C_32
REMARK    4  A    between atoms: C_6  and  C_8
REMARK    5  A    between atoms: C_8  and  N_9
REMARK    6  A    between atoms: C_8  and  C_13
REMARK    7  A    between atoms: N_16  and  C_19
REMARK    8  A    between atoms: C_19  and  C_21
REMARK    9  A    between atoms: C_19  and  C_24
REMARK   10  A    between atoms: C_21  and  C_23
REMARK   11  A    between atoms: C_24  and  C_25
REMARK   12  A    between atoms: C_25  and  C_26
REMARK   13  A    between atoms: C_26  and  C_27
REMARK   14  A    between atoms: C_27  and  N_28
REMARK   15  A    between atoms: C_32  and  C_33
REMARK                            x       y       z     vdW  Elec       q    Type
REMARK                         _______ _______ _______ _____ _____    ______ ____
ROOT
ATOM      1  C   UNL     1     -35.625  20.879   1.195  0.00  0.00    +0.022 C 
ENDROOT
BRANCH   1   5
ATOM      2  O   UNL     1     -35.641  20.900   3.619  0.00  0.00    -0.277 OA
ATOM      3  O   UNL     1     -36.508  23.304   4.753  0.00  0.00    -0.277 OA
ATOM      4  N   UNL     1     -36.355  22.805   2.480  0.00  0.00    -0.259 N 
ATOM      5  C   UNL     1     -35.873  21.496   2.570  0.00  0.00    +0.208 C 
ATOM      6  C   UNL     1     -36.642  23.625   3.573  0.00  0.00    +0.207 C 
ATOM      7  H   UNL     1     -36.503  23.175   1.581  0.00  0.00    +0.157 HD
BRANCH   6   8
ATOM      8  C   UNL     1     -37.193  24.986   3.149  0.00  0.00    +0.013 C 
BRANCH   8   9
ATOM      9  N   UNL     1     -37.368  25.728   4.399  0.00  0.00    +0.387 N 
ATOM     10  H   UNL     1     -36.839  26.599   4.355  0.00  0.00    -0.089 HD
ATOM     11  H   UNL     1     -37.032  25.164   5.180  0.00  0.00    -0.089 HD
ATOM     12  H   UNL     1     -38.358  25.939   4.533  0.00  0.00    -0.089 HD
ENDBRANCH   8   9
BRANCH   8  13
ATOM     13  C   UNL     1     -38.522  24.839   2.369  0.00  0.00    -0.011 C 
ATOM     14  C   UNL     1     -38.722  25.954   1.336  0.00  0.00    -0.002 C 
ATOM     15  C   UNL     1     -39.717  24.843   3.333  0.00  0.00    -0.002 C 
ENDBRANCH   8  13
ENDBRANCH   6   8
ENDBRANCH   1   5
BRANCH   1  16
ATOM     16  N   UNL     1     -36.714  21.325   0.325  0.00  0.00    +0.397 N 
ATOM     17  H   UNL     1     -37.391  21.851   0.877  0.00  0.00    -0.083 HD
ATOM     18  H   UNL     1     -36.325  21.914  -0.412  0.00  0.00    -0.083 HD
BRANCH  16  19
ATOM     19  C   UNL     1     -37.379  20.188  -0.290  0.00  0.00    -0.000 C 
BRANCH  19  21
ATOM     20  O   UNL     1     -39.691  19.594  -0.680  0.00  0.00    -0.297 OA
ATOM     21  C   UNL     1     -38.889  20.422  -0.244  0.00  0.00    +0.147 C 
BRANCH  21  23
ATOM     22 CL   UNL     1     -39.693  21.464   2.118  0.00  0.00    -0.105 Cl
ATOM     23  C   UNL     1     -39.338  21.717   0.403  0.00  0.00    +0.157 C 
ENDBRANCH  21  23
ENDBRANCH  19  21
BRANCH  19  24
ATOM     24  C   UNL     1     -36.977  18.867   0.382  0.00  0.00    -0.014 C 
BRANCH  24  25
ATOM     25  C   UNL     1     -36.863  17.675  -0.580  0.00  0.00    -0.004 C 
BRANCH  25  26
ATOM     26  C   UNL     1     -35.412  17.302  -0.913  0.00  0.00    -0.024 C 
BRANCH  26  27
ATOM     27  C   UNL     1     -35.074  15.814  -0.803  0.00  0.00    -0.086 C 
BRANCH  27  28
ATOM     28  N   UNL     1     -35.651  15.210   0.391  0.00  0.00    +0.380 N 
ATOM     29  H   UNL     1     -34.911  15.023   1.068  0.00  0.00    -0.089 HD
ATOM     30  H   UNL     1     -36.111  14.335   0.141  0.00  0.00    -0.089 HD
ATOM     31  H   UNL     1     -36.333  15.848   0.799  0.00  0.00    -0.089 HD
ENDBRANCH  27  28
ENDBRANCH  26  27
ENDBRANCH  25  26
ENDBRANCH  24  25
ENDBRANCH  19  24
ENDBRANCH  16  19
ENDBRANCH   1  16
BRANCH   1  32
ATOM     32  C   UNL     1     -34.266  21.322   0.631  0.00  0.00    +0.014 C 
BRANCH  32  33
ATOM     33  C   UNL     1     -33.220  20.234   0.679  0.00  0.00    -0.024 C 
ATOM     34  C   UNL     1     -32.014  20.395  -0.002  0.00  0.00    -0.004 C 
ATOM     35  C   UNL     1     -33.459  19.069   1.407  0.00  0.00    -0.004 C 
ATOM     36  C   UNL     1     -31.047  19.391   0.043  0.00  0.00    -0.000 C 
ATOM     37  C   UNL     1     -32.492  18.064   1.453  0.00  0.00    -0.000 C 
ATOM     38  C   UNL     1     -31.286  18.226   0.771  0.00  0.00    -0.000 C 
ENDBRANCH  32  33
ENDBRANCH   1  32
TORSDOF 15
ENDMDL
MODEL 8
REMARK VINA RESULT:      -5.5      2.283      3.028
REMARK  Name = 5491924
REMARK  15 active torsions:
REMARK  status: ('A' for Active; 'I' for Inactive)
REMARK    1  A    between atoms: C_1  and  C_5
REMARK    2  A    between atoms: C_1  and  N_16
REMARK    3  A    between atoms: C_1  and  C_32
REMARK    4  A    between atoms: C_6  and  C_8
REMARK    5  A    between atoms: C_8  and  N_9
REMARK    6  A    between atoms: C_8  and  C_13
REMARK    7  A    between atoms: N_16  and  C_19
REMARK    8  A    between atoms: C_19  and  C_21
REMARK    9  A    between atoms: C_19  and  C_24
REMARK   10  A    between atoms: C_21  and  C_23
REMARK   11  A    between atoms: C_24  and  C_25
REMARK   12  A    between atoms: C_25  and  C_26
REMARK   13  A    between atoms: C_26  and  C_27
REMARK   14  A    between atoms: C_27  and  N_28
REMARK   15  A    between atoms: C_32  and  C_33
REMARK                            x       y       z     vdW  Elec       q    Type
REMARK                         _______ _______ _______ _____ _____    ______ ____
ROOT
ATOM      1  C   UNL     1     -36.487  20.627   1.271  0.00  0.00    +0.022 C 
ENDROOT
BRANCH   1   5
ATOM      2  O   UNL     1     -36.661  20.295  -1.124  0.00  0.00    -0.277 OA
ATOM      3  O   UNL     1     -37.448  17.722  -1.885  0.00  0.00    -0.277 OA
ATOM      4  N   UNL     1     -37.176  18.515   0.291  0.00  0.00    -0.259 N 
ATOM      5  C   UNL     1     -36.786  19.826   0.005  0.00  0.00    +0.208 C 
ATOM      6  C   UNL     1     -37.482  17.548  -0.668  0.00  0.00    +0.207 C 
ATOM      7  H   UNL     1     -37.241  18.255   1.238  0.00  0.00    +0.157 HD
BRANCH   6   8
ATOM      8  C   UNL     1     -37.916  16.224  -0.040  0.00  0.00    +0.013 C 
BRANCH   8   9
ATOM      9  N   UNL     1     -36.670  15.568   0.359  0.00  0.00    +0.387 N 
ATOM     10  H   UNL     1     -36.240  16.089   1.124  0.00  0.00    -0.089 HD
ATOM     11  H   UNL     1     -36.030  15.541  -0.435  0.00  0.00    -0.089 HD
ATOM     12  H   UNL     1     -36.870  14.615   0.667  0.00  0.00    -0.089 HD
ENDBRANCH   8   9
BRANCH   8  13
ATOM     13  C   UNL     1     -38.731  15.366  -1.039  0.00  0.00    -0.011 C 
ATOM     14  C   UNL     1     -39.894  14.628  -0.365  0.00  0.00    -0.002 C 
ATOM     15  C   UNL     1     -37.826  14.332  -1.725  0.00  0.00    -0.002 C 
ENDBRANCH   8  13
ENDBRANCH   6   8
ENDBRANCH   1   5
BRANCH   1  16
ATOM     16  N   UNL     1     -37.716  20.642   2.065  0.00  0.00    +0.397 N 
ATOM     17  H   UNL     1     -38.459  20.179   1.543  0.00  0.00    -0.083 HD
ATOM     18  H   UNL     1     -37.544  20.153   2.944  0.00  0.00    -0.083 HD
BRANCH  16  19
ATOM     19  C   UNL     1     -38.119  22.007   2.362  0.00  0.00    -0.000 C 
BRANCH  19  21
ATOM     20  O   UNL     1     -40.353  21.247   1.829  0.00  0.00    -0.297 OA
ATOM     21  C   UNL     1     -39.571  22.194   1.918  0.00  0.00    +0.147 C 
BRANCH  21  23
ATOM     22 CL   UNL     1     -40.055  24.564   3.126  0.00  0.00    -0.105 Cl
ATOM     23  C   UNL     1     -39.994  23.621   1.629  0.00  0.00    +0.157 C 
ENDBRANCH  21  23
ENDBRANCH  19  21
BRANCH  19  24
ATOM     24  C   UNL     1     -37.178  23.029   1.709  0.00  0.00    -0.014 C 
BRANCH  24  25
ATOM     25  C   UNL     1     -36.515  24.001   2.696  0.00  0.00    -0.004 C 
BRANCH  25  26
ATOM     26  C   UNL     1     -35.158  23.507   3.214  0.00  0.00    -0.024 C 
BRANCH  26  27
ATOM     27  C   UNL     1     -35.066  23.304   4.728  0.00  0.00    -0.086 C 
BRANCH  27  28
ATOM     28  N   UNL     1     -36.143  22.460   5.232  0.00  0.00    +0.380 N 
ATOM     29  H   UNL     1     -35.747  21.630   5.670  0.00  0.00    -0.089 HD
ATOM     30  H   UNL     1     -36.748  22.183   4.459  0.00  0.00    -0.089 HD
ATOM     31  H   UNL     1     -36.689  22.981   5.919  0.00  0.00    -0.089 HD
ENDBRANCH  27  28
ENDBRANCH  26  27
ENDBRANCH  25  26
ENDBRANCH  24  25
ENDBRANCH  19  24
ENDBRANCH  16  19
ENDBRANCH   1  16
BRANCH   1  32
ATOM     32  C   UNL     1     -35.337  19.989   2.066  0.00  0.00    +0.014 C 
BRANCH  32  33
ATOM     33  C   UNL     1     -34.024  19.994   1.319  0.00  0.00    -0.024 C 
ATOM     34  C   UNL     1     -33.655  21.109   0.567  0.00  0.00    -0.004 C 
ATOM     35  C   UNL     1     -33.181  18.886   1.383  0.00  0.00    -0.004 C 
ATOM     36  C   UNL     1     -32.442  21.115  -0.122  0.00  0.00    -0.000 C 
ATOM     37  C   UNL     1     -31.967  18.891   0.695  0.00  0.00    -0.000 C 
ATOM     38  C   UNL     1     -31.598  20.006  -0.058  0.00  0.00    -0.000 C 
ENDBRANCH  32  33
ENDBRANCH   1  32
TORSDOF 15
ENDMDL
MODEL 9
REMARK VINA RESULT:      -5.5      4.951      9.256
REMARK  Name = 5491924
REMARK  15 active torsions:
REMARK  status: ('A' for Active; 'I' for Inactive)
REMARK    1  A    between atoms: C_1  and  C_5
REMARK    2  A    between atoms: C_1  and  N_16
REMARK    3  A    between atoms: C_1  and  C_32
REMARK    4  A    between atoms: C_6  and  C_8
REMARK    5  A    between atoms: C_8  and  N_9
REMARK    6  A    between atoms: C_8  and  C_13
REMARK    7  A    between atoms: N_16  and  C_19
REMARK    8  A    between atoms: C_19  and  C_21
REMARK    9  A    between atoms: C_19  and  C_24
REMARK   10  A    between atoms: C_21  and  C_23
REMARK   11  A    between atoms: C_24  and  C_25
REMARK   12  A    between atoms: C_25  and  C_26
REMARK   13  A    between atoms: C_26  and  C_27
REMARK   14  A    between atoms: C_27  and  N_28
REMARK   15  A    between atoms: C_32  and  C_33
REMARK                            x       y       z     vdW  Elec       q    Type
REMARK                         _______ _______ _______ _____ _____    ______ ____
ROOT
ATOM      1  C   UNL     1     -34.660  26.421   4.087  0.00  0.00    +0.022 C 
ENDROOT
BRANCH   1   5
ATOM      2  O   UNL     1     -32.345  27.068   3.781  0.00  0.00    -0.277 OA
ATOM      3  O   UNL     1     -31.949  29.806   3.370  0.00  0.00    -0.277 OA
ATOM      4  N   UNL     1     -33.983  28.727   3.741  0.00  0.00    -0.259 N 
ATOM      5  C   UNL     1     -33.521  27.414   3.865  0.00  0.00    +0.208 C 
ATOM      6  C   UNL     1     -33.172  29.838   3.502  0.00  0.00    +0.207 C 
ATOM      7  H   UNL     1     -34.951  28.879   3.828  0.00  0.00    +0.157 HD
BRANCH   6   8
ATOM      8  C   UNL     1     -33.969  31.141   3.459  0.00  0.00    +0.013 C 
BRANCH   8   9
ATOM      9  N   UNL     1     -35.357  30.743   3.703  0.00  0.00    +0.387 N 
ATOM     10  H   UNL     1     -35.948  31.574   3.741  0.00  0.00    -0.089 HD
ATOM     11  H   UNL     1     -35.417  30.242   4.590  0.00  0.00    -0.089 HD
ATOM     12  H   UNL     1     -35.674  30.135   2.947  0.00  0.00    -0.089 HD
ENDBRANCH   8   9
BRANCH   8  13
ATOM     13  C   UNL     1     -33.801  31.861   2.098  0.00  0.00    -0.011 C 
ATOM     14  C   UNL     1     -32.902  33.098   2.197  0.00  0.00    -0.002 C 
ATOM     15  C   UNL     1     -35.167  32.290   1.542  0.00  0.00    -0.002 C 
ENDBRANCH   8  13
ENDBRANCH   6   8
ENDBRANCH   1   5
BRANCH   1  16
ATOM     16  N   UNL     1     -35.899  27.103   3.709  0.00  0.00    +0.397 N 
ATOM     17  H   UNL     1     -36.592  26.973   4.445  0.00  0.00    -0.083 HD
ATOM     18  H   UNL     1     -35.701  28.096   3.582  0.00  0.00    -0.083 HD
BRANCH  16  19
ATOM     19  C   UNL     1     -36.420  26.567   2.462  0.00  0.00    -0.000 C 
BRANCH  19  21
ATOM     20  O   UNL     1     -36.462  28.872   1.728  0.00  0.00    -0.297 OA
ATOM     21  C   UNL     1     -36.421  27.681   1.414  0.00  0.00    +0.147 C 
BRANCH  21  23
ATOM     22 CL   UNL     1     -35.073  26.001  -0.220  0.00  0.00    -0.105 Cl
ATOM     23  C   UNL     1     -36.334  27.230  -0.030  0.00  0.00    +0.157 C 
ENDBRANCH  21  23
ENDBRANCH  19  21
BRANCH  19  24
ATOM     24  C   UNL     1     -37.813  25.949   2.651  0.00  0.00    -0.014 C 
BRANCH  24  25
ATOM     25  C   UNL     1     -38.056  24.673   1.832  0.00  0.00    -0.004 C 
BRANCH  25  26
ATOM     26  C   UNL     1     -38.686  23.538   2.651  0.00  0.00    -0.024 C 
BRANCH  26  27
ATOM     27  C   UNL     1     -38.645  22.155   1.998  0.00  0.00    -0.086 C 
BRANCH  27  28
ATOM     28  N   UNL     1     -39.888  21.420   2.197  0.00  0.00    +0.380 N 
ATOM     29  H   UNL     1     -40.278  21.653   3.110  0.00  0.00    -0.089 HD
ATOM     30  H   UNL     1     -39.703  20.419   2.151  0.00  0.00    -0.089 HD
ATOM     31  H   UNL     1     -40.554  21.676   1.467  0.00  0.00    -0.089 HD
ENDBRANCH  27  28
ENDBRANCH  26  27
ENDBRANCH  25  26
ENDBRANCH  24  25
ENDBRANCH  19  24
ENDBRANCH  16  19
ENDBRANCH   1  16
BRANCH   1  32
ATOM     32  C   UNL     1     -34.460  25.156   3.240  0.00  0.00    +0.014 C 
BRANCH  32  33
ATOM     33  C   UNL     1     -34.802  23.884   3.980  0.00  0.00    -0.024 C 
ATOM     34  C   UNL     1     -34.779  23.862   5.374  0.00  0.00    -0.004 C 
ATOM     35  C   UNL     1     -35.144  22.734   3.269  0.00  0.00    -0.004 C 
ATOM     36  C   UNL     1     -35.096  22.688   6.058  0.00  0.00    -0.000 C 
ATOM     37  C   UNL     1     -35.462  21.560   3.953  0.00  0.00    -0.000 C 
ATOM     38  C   UNL     1     -35.438  21.538   5.348  0.00  0.00    -0.000 C 
ENDBRANCH  32  33
ENDBRANCH   1  32
TORSDOF 15
ENDMDL
