MODEL 1
REMARK VINA RESULT:      -6.7      0.000      0.000
REMARK  Name = 197672
REMARK  12 active torsions:
REMARK  status: ('A' for Active; 'I' for Inactive)
REMARK    1  A    between atoms: C_1  and  N_3
REMARK    2  A    between atoms: C_1  and  C_20
REMARK    3  A    between atoms: C_1  and  C_29
REMARK    4  A    between atoms: C_4  and  C_6
REMARK    5  A    between atoms: C_6  and  C_7
REMARK    6  A    between atoms: C_6  and  C_11
REMARK    7  A    between atoms: C_7  and  C_8
REMARK    8  A    between atoms: C_11  and  C_14
REMARK    9  A    between atoms: N_13  and  O_16
REMARK   10  A    between atoms: N_19  and  C_22
REMARK   11  A    between atoms: C_22  and  C_24
REMARK   12  A    between atoms: C_29  and  C_30
REMARK                            x       y       z     vdW  Elec       q    Type
REMARK                         _______ _______ _______ _____ _____    ______ ____
ROOT
ATOM      1  C   UNL     1     -35.792  26.044   3.643  0.00  0.00    +0.153 C 
ENDROOT
BRANCH   1   3
ATOM      2  O   UNL     1     -32.935  26.291   3.745  0.00  0.00    -0.275 OA
ATOM      3  N   UNL     1     -35.038  27.262   3.819  0.00  0.00    -0.298 N 
ATOM      4  C   UNL     1     -33.654  27.283   3.856  0.00  0.00    +0.223 C 
ATOM      5  H   UNL     1     -35.527  28.112   3.916  0.00  0.00    +0.150 HD
BRANCH   4   6
ATOM      6  C   UNL     1     -33.053  28.674   4.048  0.00  0.00    +0.086 C 
BRANCH   6   7
ATOM      7  C   UNL     1     -33.385  29.624   2.879  0.00  0.00    +0.010 C 
BRANCH   7   8
ATOM      8  C   UNL     1     -34.056  30.952   3.288  0.00  0.00    +0.000 C 
ATOM      9  C   UNL     1     -33.300  32.126   2.658  0.00  0.00    +0.000 C 
ATOM     10  C   UNL     1     -35.530  31.013   2.881  0.00  0.00    +0.000 C 
ENDBRANCH   7   8
ENDBRANCH   6   7
BRANCH   6  11
ATOM     11  C   UNL     1     -31.531  28.567   4.258  0.00  0.00    +0.096 C 
BRANCH  11  14
ATOM     12  O   UNL     1     -30.257  27.858   6.164  0.00  0.00    -0.273 OA
ATOM     13  N   UNL     1     -31.961  29.387   6.481  0.00  0.00    -0.197 N 
ATOM     14  C   UNL     1     -31.168  28.559   5.729  0.00  0.00    +0.245 C 
ATOM     15  H   UNL     1     -32.680  29.929   6.080  0.00  0.00    +0.182 HD
BRANCH  13  16
ATOM     16  O   UNL     1     -31.689  29.412   7.855  0.00  0.00    -0.295 OA
ATOM     17  H   UNL     1     -31.457  30.316   8.122  0.00  0.00    +0.241 HD
ENDBRANCH  13  16
ENDBRANCH  11  14
ENDBRANCH   6  11
ENDBRANCH   4   6
ENDBRANCH   1   3
BRANCH   1  20
ATOM     18  O   UNL     1     -37.078  27.054   1.852  0.00  0.00    -0.273 OA
ATOM     19  N   UNL     1     -38.200  25.887   3.519  0.00  0.00    -0.299 N 
ATOM     20  C   UNL     1     -37.072  26.409   2.899  0.00  0.00    +0.241 C 
ATOM     21  H   UNL     1     -38.083  25.386   4.357  0.00  0.00    +0.150 HD
BRANCH  19  22
ATOM     22  C   UNL     1     -39.537  26.044   2.993  0.00  0.00    +0.118 C 
BRANCH  22  24
ATOM     23  N   UNL     1     -40.942  24.273  -0.038  0.00  0.00    -0.243 NA
ATOM     24  C   UNL     1     -39.897  24.946   2.036  0.00  0.00    +0.017 C 
ATOM     25  C   UNL     1     -39.547  23.625   2.295  0.00  0.00    +0.001 C 
ATOM     26  C   UNL     1     -40.587  25.215   0.865  0.00  0.00    +0.096 C 
ATOM     27  C   UNL     1     -39.894  22.628   1.390  0.00  0.00    +0.020 C 
ATOM     28  C   UNL     1     -40.585  23.001   0.249  0.00  0.00    +0.099 C 
ENDBRANCH  22  24
ENDBRANCH  19  22
ENDBRANCH   1  20
BRANCH   1  29
ATOM     29  C   UNL     1     -36.126  25.371   4.979  0.00  0.00    +0.055 C 
BRANCH  29  30
ATOM     30  C   UNL     1     -35.774  23.903   4.998  0.00  0.00    -0.020 C 
ATOM     31  C   UNL     1     -35.849  23.153   3.824  0.00  0.00    -0.004 C 
ATOM     32  C   UNL     1     -35.371  23.298   6.188  0.00  0.00    -0.004 C 
ATOM     33  C   UNL     1     -35.523  21.797   3.842  0.00  0.00    -0.000 C 
ATOM     34  C   UNL     1     -35.046  21.942   6.205  0.00  0.00    -0.000 C 
ATOM     35  C   UNL     1     -35.121  21.191   5.032  0.00  0.00    -0.000 C 
ENDBRANCH  29  30
ENDBRANCH   1  29
TORSDOF 12
ENDMDL
MODEL 2
REMARK VINA RESULT:      -6.7      4.688      7.983
REMARK  Name = 197672
REMARK  12 active torsions:
REMARK  status: ('A' for Active; 'I' for Inactive)
REMARK    1  A    between atoms: C_1  and  N_3
REMARK    2  A    between atoms: C_1  and  C_20
REMARK    3  A    between atoms: C_1  and  C_29
REMARK    4  A    between atoms: C_4  and  C_6
REMARK    5  A    between atoms: C_6  and  C_7
REMARK    6  A    between atoms: C_6  and  C_11
REMARK    7  A    between atoms: C_7  and  C_8
REMARK    8  A    between atoms: C_11  and  C_14
REMARK    9  A    between atoms: N_13  and  O_16
REMARK   10  A    between atoms: N_19  and  C_22
REMARK   11  A    between atoms: C_22  and  C_24
REMARK   12  A    between atoms: C_29  and  C_30
REMARK                            x       y       z     vdW  Elec       q    Type
REMARK                         _______ _______ _______ _____ _____    ______ ____
ROOT
ATOM      1  C   UNL     1     -37.259  22.591   2.479  0.00  0.00    +0.153 C 
ENDROOT
BRANCH   1   3
ATOM      2  O   UNL     1     -35.388  20.664   3.488  0.00  0.00    -0.275 OA
ATOM      3  N   UNL     1     -36.508  21.632   1.705  0.00  0.00    -0.298 N 
ATOM      4  C   UNL     1     -35.623  20.738   2.283  0.00  0.00    +0.223 C 
ATOM      5  H   UNL     1     -36.628  21.614   0.727  0.00  0.00    +0.150 HD
BRANCH   4   6
ATOM      6  C   UNL     1     -34.931  19.808   1.287  0.00  0.00    +0.086 C 
BRANCH   6   7
ATOM      7  C   UNL     1     -33.541  20.327   0.868  0.00  0.00    +0.010 C 
BRANCH   7   8
ATOM      8  C   UNL     1     -32.565  19.243   0.362  0.00  0.00    +0.000 C 
ATOM      9  C   UNL     1     -31.222  19.886   0.004  0.00  0.00    +0.000 C 
ATOM     10  C   UNL     1     -32.344  18.130   1.387  0.00  0.00    +0.000 C 
ENDBRANCH   7   8
ENDBRANCH   6   7
BRANCH   6  11
ATOM     11  C   UNL     1     -35.833  19.586   0.059  0.00  0.00    +0.096 C 
BRANCH  11  14
ATOM     12  O   UNL     1     -35.504  17.390  -0.854  0.00  0.00    -0.273 OA
ATOM     13  N   UNL     1     -37.290  17.738   0.573  0.00  0.00    -0.197 N 
ATOM     14  C   UNL     1     -36.175  18.121  -0.128  0.00  0.00    +0.245 C 
ATOM     15  H   UNL     1     -37.792  18.367   1.141  0.00  0.00    +0.182 HD
BRANCH  13  16
ATOM     16  O   UNL     1     -37.671  16.398   0.428  0.00  0.00    -0.295 OA
ATOM     17  H   UNL     1     -37.138  15.984  -0.267  0.00  0.00    +0.241 HD
ENDBRANCH  13  16
ENDBRANCH  11  14
ENDBRANCH   6  11
ENDBRANCH   4   6
ENDBRANCH   1   3
BRANCH   1  20
ATOM     18  O   UNL     1     -39.382  21.456   2.189  0.00  0.00    -0.273 OA
ATOM     19  N   UNL     1     -39.195  23.672   1.518  0.00  0.00    -0.299 N 
ATOM     20  C   UNL     1     -38.716  22.479   2.043  0.00  0.00    +0.241 C 
ATOM     21  H   UNL     1     -38.574  24.432   1.444  0.00  0.00    +0.150 HD
BRANCH  19  22
ATOM     22  C   UNL     1     -40.558  23.853   1.074  0.00  0.00    +0.118 C 
BRANCH  22  24
ATOM     23  N   UNL     1     -41.066  26.860   3.310  0.00  0.00    -0.243 NA
ATOM     24  C   UNL     1     -41.212  25.032   1.735  0.00  0.00    +0.017 C 
ATOM     25  C   UNL     1     -42.515  25.399   1.419  0.00  0.00    +0.001 C 
ATOM     26  C   UNL     1     -40.536  25.789   2.678  0.00  0.00    +0.096 C 
ATOM     27  C   UNL     1     -43.095  26.496   2.048  0.00  0.00    +0.020 C 
ATOM     28  C   UNL     1     -42.335  27.186   2.977  0.00  0.00    +0.099 C 
ENDBRANCH  22  24
ENDBRANCH  19  22
ENDBRANCH   1  20
BRANCH   1  29
ATOM     29  C   UNL     1     -36.752  24.023   2.278  0.00  0.00    +0.055 C 
BRANCH  29  30
ATOM     30  C   UNL     1     -35.997  24.549   3.476  0.00  0.00    -0.020 C 
ATOM     31  C   UNL     1     -34.644  24.249   3.633  0.00  0.00    -0.004 C 
ATOM     32  C   UNL     1     -36.652  25.336   4.422  0.00  0.00    -0.004 C 
ATOM     33  C   UNL     1     -33.947  24.734   4.739  0.00  0.00    -0.000 C 
ATOM     34  C   UNL     1     -35.955  25.822   5.528  0.00  0.00    -0.000 C 
ATOM     35  C   UNL     1     -34.602  25.522   5.687  0.00  0.00    -0.000 C 
ENDBRANCH  29  30
ENDBRANCH   1  29
TORSDOF 12
ENDMDL
MODEL 3
REMARK VINA RESULT:      -6.7      3.969      8.215
REMARK  Name = 197672
REMARK  12 active torsions:
REMARK  status: ('A' for Active; 'I' for Inactive)
REMARK    1  A    between atoms: C_1  and  N_3
REMARK    2  A    between atoms: C_1  and  C_20
REMARK    3  A    between atoms: C_1  and  C_29
REMARK    4  A    between atoms: C_4  and  C_6
REMARK    5  A    between atoms: C_6  and  C_7
REMARK    6  A    between atoms: C_6  and  C_11
REMARK    7  A    between atoms: C_7  and  C_8
REMARK    8  A    between atoms: C_11  and  C_14
REMARK    9  A    between atoms: N_13  and  O_16
REMARK   10  A    between atoms: N_19  and  C_22
REMARK   11  A    between atoms: C_22  and  C_24
REMARK   12  A    between atoms: C_29  and  C_30
REMARK                            x       y       z     vdW  Elec       q    Type
REMARK                         _______ _______ _______ _____ _____    ______ ____
ROOT
ATOM      1  C   UNL     1     -35.706  22.878   3.420  0.00  0.00    +0.153 C 
ENDROOT
BRANCH   1   3
ATOM      2  O   UNL     1     -37.070  24.625   1.596  0.00  0.00    -0.275 OA
ATOM      3  N   UNL     1     -37.134  22.999   3.247  0.00  0.00    -0.298 N 
ATOM      4  C   UNL     1     -37.703  23.874   2.337  0.00  0.00    +0.223 C 
ATOM      5  H   UNL     1     -37.728  22.437   3.797  0.00  0.00    +0.150 HD
BRANCH   4   6
ATOM      6  C   UNL     1     -39.231  23.844   2.309  0.00  0.00    +0.086 C 
BRANCH   6   7
ATOM      7  C   UNL     1     -39.855  24.855   3.293  0.00  0.00    +0.010 C 
BRANCH   7   8
ATOM      8  C   UNL     1     -40.715  25.957   2.638  0.00  0.00    +0.000 C 
ATOM      9  C   UNL     1     -41.564  25.349   1.517  0.00  0.00    +0.000 C 
ATOM     10  C   UNL     1     -41.624  26.666   3.643  0.00  0.00    +0.000 C 
ENDBRANCH   7   8
ENDBRANCH   6   7
BRANCH   6  11
ATOM     11  C   UNL     1     -39.736  22.417   2.587  0.00  0.00    +0.096 C 
BRANCH  11  14
ATOM     12  O   UNL     1     -40.701  21.771   0.487  0.00  0.00    -0.273 OA
ATOM     13  N   UNL     1     -38.820  20.651   1.230  0.00  0.00    -0.197 N 
ATOM     14  C   UNL     1     -39.813  21.592   1.319  0.00  0.00    +0.245 C 
ATOM     15  H   UNL     1     -38.132  20.550   1.928  0.00  0.00    +0.182 HD
BRANCH  13  16
ATOM     16  O   UNL     1     -38.845  19.841   0.088  0.00  0.00    -0.295 OA
ATOM     17  H   UNL     1     -39.766  19.662  -0.161  0.00  0.00    +0.241 HD
ENDBRANCH  13  16
ENDBRANCH  11  14
ENDBRANCH   6  11
ENDBRANCH   4   6
ENDBRANCH   1   3
BRANCH   1  20
ATOM     18  O   UNL     1     -35.167  20.649   4.206  0.00  0.00    -0.273 OA
ATOM     19  N   UNL     1     -35.325  21.025   1.918  0.00  0.00    -0.299 N 
ATOM     20  C   UNL     1     -35.355  21.404   3.254  0.00  0.00    +0.241 C 
ATOM     21  H   UNL     1     -35.489  21.712   1.233  0.00  0.00    +0.150 HD
BRANCH  19  22
ATOM     22  C   UNL     1     -35.065  19.671   1.484  0.00  0.00    +0.118 C 
BRANCH  22  24
ATOM     23  N   UNL     1     -31.646  18.103   1.093  0.00  0.00    -0.243 NA
ATOM     24  C   UNL     1     -33.634  19.478   1.072  0.00  0.00    +0.017 C 
ATOM     25  C   UNL     1     -32.969  20.440   0.320  0.00  0.00    +0.001 C 
ATOM     26  C   UNL     1     -32.934  18.338   1.430  0.00  0.00    +0.096 C 
ATOM     27  C   UNL     1     -31.643  20.235  -0.046  0.00  0.00    +0.020 C 
ATOM     28  C   UNL     1     -31.033  19.061   0.362  0.00  0.00    +0.099 C 
ENDBRANCH  22  24
ENDBRANCH  19  22
ENDBRANCH   1  20
BRANCH   1  29
ATOM     29  C   UNL     1     -35.244  23.385   4.790  0.00  0.00    +0.055 C 
BRANCH  29  30
ATOM     30  C   UNL     1     -34.507  24.700   4.709  0.00  0.00    -0.020 C 
ATOM     31  C   UNL     1     -34.310  25.461   5.861  0.00  0.00    -0.004 C 
ATOM     32  C   UNL     1     -34.021  25.153   3.483  0.00  0.00    -0.004 C 
ATOM     33  C   UNL     1     -33.629  26.676   5.786  0.00  0.00    -0.000 C 
ATOM     34  C   UNL     1     -33.340  26.367   3.408  0.00  0.00    -0.000 C 
ATOM     35  C   UNL     1     -33.143  27.129   4.559  0.00  0.00    -0.000 C 
ENDBRANCH  29  30
ENDBRANCH   1  29
TORSDOF 12
ENDMDL
MODEL 4
REMARK VINA RESULT:      -6.7      0.836      1.597
REMARK  Name = 197672
REMARK  12 active torsions:
REMARK  status: ('A' for Active; 'I' for Inactive)
REMARK    1  A    between atoms: C_1  and  N_3
REMARK    2  A    between atoms: C_1  and  C_20
REMARK    3  A    between atoms: C_1  and  C_29
REMARK    4  A    between atoms: C_4  and  C_6
REMARK    5  A    between atoms: C_6  and  C_7
REMARK    6  A    between atoms: C_6  and  C_11
REMARK    7  A    between atoms: C_7  and  C_8
REMARK    8  A    between atoms: C_11  and  C_14
REMARK    9  A    between atoms: N_13  and  O_16
REMARK   10  A    between atoms: N_19  and  C_22
REMARK   11  A    between atoms: C_22  and  C_24
REMARK   12  A    between atoms: C_29  and  C_30
REMARK                            x       y       z     vdW  Elec       q    Type
REMARK                         _______ _______ _______ _____ _____    ______ ____
ROOT
ATOM      1  C   UNL     1     -36.182  25.991   3.515  0.00  0.00    +0.153 C 
ENDROOT
BRANCH   1   3
ATOM      2  O   UNL     1     -33.335  26.283   3.295  0.00  0.00    -0.275 OA
ATOM      3  N   UNL     1     -35.430  27.218   3.628  0.00  0.00    -0.298 N 
ATOM      4  C   UNL     1     -34.052  27.261   3.507  0.00  0.00    +0.223 C 
ATOM      5  H   UNL     1     -35.916  28.058   3.798  0.00  0.00    +0.150 HD
BRANCH   4   6
ATOM      6  C   UNL     1     -33.452  28.659   3.657  0.00  0.00    +0.086 C 
BRANCH   6   7
ATOM      7  C   UNL     1     -33.313  29.386   2.304  0.00  0.00    +0.010 C 
BRANCH   7   8
ATOM      8  C   UNL     1     -33.976  30.779   2.241  0.00  0.00    +0.000 C 
ATOM      9  C   UNL     1     -35.159  30.830   3.212  0.00  0.00    +0.000 C 
ATOM     10  C   UNL     1     -32.997  31.908   2.563  0.00  0.00    +0.000 C 
ENDBRANCH   7   8
ENDBRANCH   6   7
BRANCH   6  11
ATOM     11  C   UNL     1     -32.097  28.577   4.383  0.00  0.00    +0.096 C 
BRANCH  11  14
ATOM     12  O   UNL     1     -32.528  30.531   5.708  0.00  0.00    -0.273 OA
ATOM     13  N   UNL     1     -31.570  28.691   6.730  0.00  0.00    -0.197 N 
ATOM     14  C   UNL     1     -32.099  29.379   5.669  0.00  0.00    +0.245 C 
ATOM     15  H   UNL     1     -31.240  27.768   6.642  0.00  0.00    +0.182 HD
BRANCH  13  16
ATOM     16  O   UNL     1     -31.526  29.385   7.946  0.00  0.00    -0.295 OA
ATOM     17  H   UNL     1     -31.305  28.768   8.662  0.00  0.00    +0.241 HD
ENDBRANCH  13  16
ENDBRANCH  11  14
ENDBRANCH   6  11
ENDBRANCH   4   6
ENDBRANCH   1   3
BRANCH   1  20
ATOM     18  O   UNL     1     -37.624  27.095   1.909  0.00  0.00    -0.273 OA
ATOM     19  N   UNL     1     -38.576  25.669   3.477  0.00  0.00    -0.299 N 
ATOM     20  C   UNL     1     -37.520  26.340   2.874  0.00  0.00    +0.241 C 
ATOM     21  H   UNL     1     -38.381  25.087   4.247  0.00  0.00    +0.150 HD
BRANCH  19  22
ATOM     22  C   UNL     1     -39.946  25.782   3.031  0.00  0.00    +0.118 C 
BRANCH  22  24
ATOM     23  N   UNL     1     -40.180  22.455   1.249  0.00  0.00    -0.243 NA
ATOM     24  C   UNL     1     -40.285  24.754   1.992  0.00  0.00    +0.017 C 
ATOM     25  C   UNL     1     -40.987  25.100   0.843  0.00  0.00    +0.001 C 
ATOM     26  C   UNL     1     -39.908  23.430   2.146  0.00  0.00    +0.096 C 
ATOM     27  C   UNL     1     -41.285  24.126  -0.104  0.00  0.00    +0.020 C 
ATOM     28  C   UNL     1     -40.864  22.830   0.145  0.00  0.00    +0.099 C 
ENDBRANCH  22  24
ENDBRANCH  19  22
ENDBRANCH   1  20
BRANCH   1  29
ATOM     29  C   UNL     1     -36.401  25.319   4.875  0.00  0.00    +0.055 C 
BRANCH  29  30
ATOM     30  C   UNL     1     -35.926  23.887   4.902  0.00  0.00    -0.020 C 
ATOM     31  C   UNL     1     -35.405  23.347   6.078  0.00  0.00    -0.004 C 
ATOM     32  C   UNL     1     -36.010  23.102   3.753  0.00  0.00    -0.004 C 
ATOM     33  C   UNL     1     -34.966  22.024   6.103  0.00  0.00    -0.000 C 
ATOM     34  C   UNL     1     -35.571  21.778   3.778  0.00  0.00    -0.000 C 
ATOM     35  C   UNL     1     -35.050  21.238   4.953  0.00  0.00    -0.000 C 
ENDBRANCH  29  30
ENDBRANCH   1  29
TORSDOF 12
ENDMDL
MODEL 5
REMARK VINA RESULT:      -6.6      4.567      7.063
REMARK  Name = 197672
REMARK  12 active torsions:
REMARK  status: ('A' for Active; 'I' for Inactive)
REMARK    1  A    between atoms: C_1  and  N_3
REMARK    2  A    between atoms: C_1  and  C_20
REMARK    3  A    between atoms: C_1  and  C_29
REMARK    4  A    between atoms: C_4  and  C_6
REMARK    5  A    between atoms: C_6  and  C_7
REMARK    6  A    between atoms: C_6  and  C_11
REMARK    7  A    between atoms: C_7  and  C_8
REMARK    8  A    between atoms: C_11  and  C_14
REMARK    9  A    between atoms: N_13  and  O_16
REMARK   10  A    between atoms: N_19  and  C_22
REMARK   11  A    between atoms: C_22  and  C_24
REMARK   12  A    between atoms: C_29  and  C_30
REMARK                            x       y       z     vdW  Elec       q    Type
REMARK                         _______ _______ _______ _____ _____    ______ ____
ROOT
ATOM      1  C   UNL     1     -35.358  21.027   1.086  0.00  0.00    +0.153 C 
ENDROOT
BRANCH   1   3
ATOM      2  O   UNL     1     -34.411  23.722   0.806  0.00  0.00    -0.275 OA
ATOM      3  N   UNL     1     -35.491  22.092   2.051  0.00  0.00    -0.298 N 
ATOM      4  C   UNL     1     -34.999  23.367   1.827  0.00  0.00    +0.223 C 
ATOM      5  H   UNL     1     -35.950  21.905   2.903  0.00  0.00    +0.150 HD
BRANCH   4   6
ATOM      6  C   UNL     1     -35.248  24.346   2.973  0.00  0.00    +0.086 C 
BRANCH   6   7
ATOM      7  C   UNL     1     -36.142  23.744   4.076  0.00  0.00    +0.010 C 
BRANCH   7   8
ATOM      8  C   UNL     1     -35.585  23.872   5.510  0.00  0.00    +0.000 C 
ATOM      9  C   UNL     1     -35.191  22.488   6.035  0.00  0.00    +0.000 C 
ATOM     10  C   UNL     1     -34.381  24.812   5.589  0.00  0.00    +0.000 C 
ENDBRANCH   7   8
ENDBRANCH   6   7
BRANCH   6  11
ATOM     11  C   UNL     1     -35.847  25.655   2.428  0.00  0.00    +0.096 C 
BRANCH  11  14
ATOM     12  O   UNL     1     -37.992  25.011   1.566  0.00  0.00    -0.273 OA
ATOM     13  N   UNL     1     -37.914  26.341   3.456  0.00  0.00    -0.197 N 
ATOM     14  C   UNL     1     -37.362  25.621   2.427  0.00  0.00    +0.245 C 
ATOM     15  H   UNL     1     -37.361  26.813   4.120  0.00  0.00    +0.182 HD
BRANCH  13  16
ATOM     16  O   UNL     1     -39.314  26.365   3.501  0.00  0.00    -0.295 OA
ATOM     17  H   UNL     1     -39.654  25.458   3.470  0.00  0.00    +0.241 HD
ENDBRANCH  13  16
ENDBRANCH  11  14
ENDBRANCH   6  11
ENDBRANCH   4   6
ENDBRANCH   1   3
BRANCH   1  20
ATOM     18  O   UNL     1     -37.777  21.179   1.059  0.00  0.00    -0.273 OA
ATOM     19  N   UNL     1     -36.713  19.931  -0.586  0.00  0.00    -0.299 N 
ATOM     20  C   UNL     1     -36.753  20.725   0.552  0.00  0.00    +0.241 C 
ATOM     21  H   UNL     1     -35.837  19.620  -0.909  0.00  0.00    +0.150 HD
BRANCH  19  22
ATOM     22  C   UNL     1     -37.894  19.538  -1.321  0.00  0.00    +0.118 C 
BRANCH  22  24
ATOM     23  N   UNL     1     -39.962  16.376  -1.162  0.00  0.00    -0.243 NA
ATOM     24  C   UNL     1     -38.298  18.124  -1.019  0.00  0.00    +0.017 C 
ATOM     25  C   UNL     1     -37.441  17.262  -0.343  0.00  0.00    +0.001 C 
ATOM     26  C   UNL     1     -39.536  17.637  -1.404  0.00  0.00    +0.096 C 
ATOM     27  C   UNL     1     -37.844  15.958  -0.075  0.00  0.00    +0.020 C 
ATOM     28  C   UNL     1     -39.102  15.568  -0.503  0.00  0.00    +0.099 C 
ENDBRANCH  22  24
ENDBRANCH  19  22
ENDBRANCH   1  20
BRANCH   1  29
ATOM     29  C   UNL     1     -34.737  19.766   1.697  0.00  0.00    +0.055 C 
BRANCH  29  30
ATOM     30  C   UNL     1     -33.363  19.466   1.148  0.00  0.00    -0.020 C 
ATOM     31  C   UNL     1     -32.702  20.414   0.367  0.00  0.00    -0.004 C 
ATOM     32  C   UNL     1     -32.753  18.242   1.425  0.00  0.00    -0.004 C 
ATOM     33  C   UNL     1     -31.433  20.137  -0.139  0.00  0.00    -0.000 C 
ATOM     34  C   UNL     1     -31.484  17.965   0.918  0.00  0.00    -0.000 C 
ATOM     35  C   UNL     1     -30.823  18.912   0.137  0.00  0.00    -0.000 C 
ENDBRANCH  29  30
ENDBRANCH   1  29
TORSDOF 12
ENDMDL
MODEL 6
REMARK VINA RESULT:      -6.6      4.680      7.267
REMARK  Name = 197672
REMARK  12 active torsions:
REMARK  status: ('A' for Active; 'I' for Inactive)
REMARK    1  A    between atoms: C_1  and  N_3
REMARK    2  A    between atoms: C_1  and  C_20
REMARK    3  A    between atoms: C_1  and  C_29
REMARK    4  A    between atoms: C_4  and  C_6
REMARK    5  A    between atoms: C_6  and  C_7
REMARK    6  A    between atoms: C_6  and  C_11
REMARK    7  A    between atoms: C_7  and  C_8
REMARK    8  A    between atoms: C_11  and  C_14
REMARK    9  A    between atoms: N_13  and  O_16
REMARK   10  A    between atoms: N_19  and  C_22
REMARK   11  A    between atoms: C_22  and  C_24
REMARK   12  A    between atoms: C_29  and  C_30
REMARK                            x       y       z     vdW  Elec       q    Type
REMARK                         _______ _______ _______ _____ _____    ______ ____
ROOT
ATOM      1  C   UNL     1     -35.970  22.099   1.517  0.00  0.00    +0.153 C 
ENDROOT
BRANCH   1   3
ATOM      2  O   UNL     1     -37.856  23.410   3.238  0.00  0.00    -0.275 OA
ATOM      3  N   UNL     1     -35.707  23.216   2.392  0.00  0.00    -0.298 N 
ATOM      4  C   UNL     1     -36.685  23.785   3.189  0.00  0.00    +0.223 C 
ATOM      5  H   UNL     1     -34.795  23.588   2.424  0.00  0.00    +0.150 HD
BRANCH   4   6
ATOM      6  C   UNL     1     -36.197  24.955   4.042  0.00  0.00    +0.086 C 
BRANCH   6   7
ATOM      7  C   UNL     1     -34.924  25.609   3.468  0.00  0.00    +0.010 C 
BRANCH   7   8
ATOM      8  C   UNL     1     -34.999  27.141   3.294  0.00  0.00    +0.000 C 
ATOM      9  C   UNL     1     -33.600  27.696   3.010  0.00  0.00    +0.000 C 
ATOM     10  C   UNL     1     -35.954  27.557   2.175  0.00  0.00    +0.000 C 
ENDBRANCH   7   8
ENDBRANCH   6   7
BRANCH   6  11
ATOM     11  C   UNL     1     -35.976  24.493   5.494  0.00  0.00    +0.096 C 
BRANCH  11  14
ATOM     12  O   UNL     1     -34.078  23.049   5.224  0.00  0.00    -0.273 OA
ATOM     13  N   UNL     1     -36.060  22.138   5.992  0.00  0.00    -0.197 N 
ATOM     14  C   UNL     1     -35.256  23.160   5.555  0.00  0.00    +0.245 C 
ATOM     15  H   UNL     1     -37.000  22.284   6.244  0.00  0.00    +0.182 HD
BRANCH  13  16
ATOM     16  O   UNL     1     -35.459  20.874   6.054  0.00  0.00    -0.295 OA
ATOM     17  H   UNL     1     -35.088  20.736   6.939  0.00  0.00    +0.241 HD
ENDBRANCH  13  16
ENDBRANCH  11  14
ENDBRANCH   6  11
ENDBRANCH   4   6
ENDBRANCH   1   3
BRANCH   1  20
ATOM     18  O   UNL     1     -35.480  20.484   3.258  0.00  0.00    -0.273 OA
ATOM     19  N   UNL     1     -34.423  20.271   1.200  0.00  0.00    -0.299 N 
ATOM     20  C   UNL     1     -35.270  20.883   2.114  0.00  0.00    +0.241 C 
ATOM     21  H   UNL     1     -34.326  20.675   0.308  0.00  0.00    +0.150 HD
BRANCH  19  22
ATOM     22  C   UNL     1     -33.674  19.070   1.494  0.00  0.00    +0.118 C 
BRANCH  22  24
ATOM     23  N   UNL     1     -30.141  18.054   0.609  0.00  0.00    -0.243 NA
ATOM     24  C   UNL     1     -32.304  19.099   0.881  0.00  0.00    +0.017 C 
ATOM     25  C   UNL     1     -31.913  20.141   0.048  0.00  0.00    +0.001 C 
ATOM     26  C   UNL     1     -31.389  18.088   1.127  0.00  0.00    +0.096 C 
ATOM     27  C   UNL     1     -30.636  20.141  -0.505  0.00  0.00    +0.020 C 
ATOM     28  C   UNL     1     -29.797  19.084  -0.196  0.00  0.00    +0.099 C 
ENDBRANCH  22  24
ENDBRANCH  19  22
ENDBRANCH   1  20
BRANCH   1  29
ATOM     29  C   UNL     1     -35.474  22.352   0.089  0.00  0.00    +0.055 C 
BRANCH  29  30
ATOM     30  C   UNL     1     -34.701  23.642  -0.041  0.00  0.00    -0.020 C 
ATOM     31  C   UNL     1     -35.348  24.803  -0.464  0.00  0.00    -0.004 C 
ATOM     32  C   UNL     1     -33.340  23.673   0.264  0.00  0.00    -0.004 C 
ATOM     33  C   UNL     1     -34.634  25.995  -0.583  0.00  0.00    -0.000 C 
ATOM     34  C   UNL     1     -32.626  24.865   0.144  0.00  0.00    -0.000 C 
ATOM     35  C   UNL     1     -33.272  26.026  -0.279  0.00  0.00    -0.000 C 
ENDBRANCH  29  30
ENDBRANCH   1  29
TORSDOF 12
ENDMDL
MODEL 7
REMARK VINA RESULT:      -6.6      5.393      8.026
REMARK  Name = 197672
REMARK  12 active torsions:
REMARK  status: ('A' for Active; 'I' for Inactive)
REMARK    1  A    between atoms: C_1  and  N_3
REMARK    2  A    between atoms: C_1  and  C_20
REMARK    3  A    between atoms: C_1  and  C_29
REMARK    4  A    between atoms: C_4  and  C_6
REMARK    5  A    between atoms: C_6  and  C_7
REMARK    6  A    between atoms: C_6  and  C_11
REMARK    7  A    between atoms: C_7  and  C_8
REMARK    8  A    between atoms: C_11  and  C_14
REMARK    9  A    between atoms: N_13  and  O_16
REMARK   10  A    between atoms: N_19  and  C_22
REMARK   11  A    between atoms: C_22  and  C_24
REMARK   12  A    between atoms: C_29  and  C_30
REMARK                            x       y       z     vdW  Elec       q    Type
REMARK                         _______ _______ _______ _____ _____    ______ ____
ROOT
ATOM      1  C   UNL     1     -35.010  20.602   0.987  0.00  0.00    +0.153 C 
ENDROOT
BRANCH   1   3
ATOM      2  O   UNL     1     -34.813  23.465   0.976  0.00  0.00    -0.275 OA
ATOM      3  N   UNL     1     -35.668  21.514   1.891  0.00  0.00    -0.298 N 
ATOM      4  C   UNL     1     -35.512  22.887   1.809  0.00  0.00    +0.223 C 
ATOM      5  H   UNL     1     -36.251  21.145   2.595  0.00  0.00    +0.150 HD
BRANCH   4   6
ATOM      6  C   UNL     1     -36.297  23.672   2.859  0.00  0.00    +0.086 C 
BRANCH   6   7
ATOM      7  C   UNL     1     -36.346  22.946   4.218  0.00  0.00    +0.010 C 
BRANCH   7   8
ATOM      8  C   UNL     1     -35.082  23.105   5.089  0.00  0.00    +0.000 C 
ATOM      9  C   UNL     1     -34.936  24.567   5.523  0.00  0.00    +0.000 C 
ATOM     10  C   UNL     1     -35.104  22.203   6.324  0.00  0.00    +0.000 C 
ENDBRANCH   7   8
ENDBRANCH   6   7
BRANCH   6  11
ATOM     11  C   UNL     1     -37.715  23.974   2.341  0.00  0.00    +0.096 C 
BRANCH  11  14
ATOM     12  O   UNL     1     -37.438  26.352   2.506  0.00  0.00    -0.273 OA
ATOM     13  N   UNL     1     -39.406  25.412   3.275  0.00  0.00    -0.197 N 
ATOM     14  C   UNL     1     -38.159  25.376   2.705  0.00  0.00    +0.245 C 
ATOM     15  H   UNL     1     -39.941  24.597   3.412  0.00  0.00    +0.182 HD
BRANCH  13  16
ATOM     16  O   UNL     1     -39.868  26.679   3.653  0.00  0.00    -0.295 OA
ATOM     17  H   UNL     1     -40.636  26.918   3.110  0.00  0.00    +0.241 HD
ENDBRANCH  13  16
ENDBRANCH  11  14
ENDBRANCH   6  11
ENDBRANCH   4   6
ENDBRANCH   1   3
BRANCH   1  20
ATOM     18  O   UNL     1     -36.654  20.491  -0.793  0.00  0.00    -0.273 OA
ATOM     19  N   UNL     1     -36.332  18.626   0.555  0.00  0.00    -0.299 N 
ATOM     20  C   UNL     1     -36.097  19.934   0.151  0.00  0.00    +0.241 C 
ATOM     21  H   UNL     1     -35.830  18.277   1.326  0.00  0.00    +0.150 HD
BRANCH  19  22
ATOM     22  C   UNL     1     -37.278  17.752  -0.101  0.00  0.00    +0.118 C 
BRANCH  22  24
ATOM     23  N   UNL     1     -36.871  14.293  -1.574  0.00  0.00    -0.243 NA
ATOM     24  C   UNL     1     -36.634  16.481  -0.575  0.00  0.00    +0.017 C 
ATOM     25  C   UNL     1     -35.260  16.293  -0.471  0.00  0.00    +0.001 C 
ATOM     26  C   UNL     1     -37.388  15.461  -1.129  0.00  0.00    +0.096 C 
ATOM     27  C   UNL     1     -34.691  15.105  -0.917  0.00  0.00    +0.020 C 
ATOM     28  C   UNL     1     -35.532  14.146  -1.456  0.00  0.00    +0.099 C 
ENDBRANCH  22  24
ENDBRANCH  19  22
ENDBRANCH   1  20
BRANCH   1  29
ATOM     29  C   UNL     1     -34.184  19.546   1.728  0.00  0.00    +0.055 C 
BRANCH  29  30
ATOM     30  C   UNL     1     -32.839  19.300   1.087  0.00  0.00    -0.020 C 
ATOM     31  C   UNL     1     -32.264  20.279   0.277  0.00  0.00    -0.004 C 
ATOM     32  C   UNL     1     -32.171  18.095   1.306  0.00  0.00    -0.004 C 
ATOM     33  C   UNL     1     -31.021  20.052  -0.314  0.00  0.00    -0.000 C 
ATOM     34  C   UNL     1     -30.929  17.869   0.714  0.00  0.00    -0.000 C 
ATOM     35  C   UNL     1     -30.353  18.847  -0.095  0.00  0.00    -0.000 C 
ENDBRANCH  29  30
ENDBRANCH   1  29
TORSDOF 12
ENDMDL
MODEL 8
REMARK VINA RESULT:      -6.6      3.866      8.210
REMARK  Name = 197672
REMARK  12 active torsions:
REMARK  status: ('A' for Active; 'I' for Inactive)
REMARK    1  A    between atoms: C_1  and  N_3
REMARK    2  A    between atoms: C_1  and  C_20
REMARK    3  A    between atoms: C_1  and  C_29
REMARK    4  A    between atoms: C_4  and  C_6
REMARK    5  A    between atoms: C_6  and  C_7
REMARK    6  A    between atoms: C_6  and  C_11
REMARK    7  A    between atoms: C_7  and  C_8
REMARK    8  A    between atoms: C_11  and  C_14
REMARK    9  A    between atoms: N_13  and  O_16
REMARK   10  A    between atoms: N_19  and  C_22
REMARK   11  A    between atoms: C_22  and  C_24
REMARK   12  A    between atoms: C_29  and  C_30
REMARK                            x       y       z     vdW  Elec       q    Type
REMARK                         _______ _______ _______ _____ _____    ______ ____
ROOT
ATOM      1  C   UNL     1     -35.857  22.751   3.447  0.00  0.00    +0.153 C 
ENDROOT
BRANCH   1   3
ATOM      2  O   UNL     1     -37.354  24.601   1.843  0.00  0.00    -0.275 OA
ATOM      3  N   UNL     1     -37.290  22.781   3.278  0.00  0.00    -0.298 N 
ATOM      4  C   UNL     1     -37.927  23.717   2.480  0.00  0.00    +0.223 C 
ATOM      5  H   UNL     1     -37.838  22.111   3.749  0.00  0.00    +0.150 HD
BRANCH   4   6
ATOM      6  C   UNL     1     -39.447  23.573   2.435  0.00  0.00    +0.086 C 
BRANCH   6   7
ATOM      7  C   UNL     1     -39.891  22.175   1.959  0.00  0.00    +0.010 C 
BRANCH   7   8
ATOM      8  C   UNL     1     -39.611  21.873   0.471  0.00  0.00    +0.000 C 
ATOM      9  C   UNL     1     -38.633  20.700   0.359  0.00  0.00    +0.000 C 
ATOM     10  C   UNL     1     -40.887  21.556  -0.312  0.00  0.00    +0.000 C 
ENDBRANCH   7   8
ENDBRANCH   6   7
BRANCH   6  11
ATOM     11  C   UNL     1     -40.056  24.677   1.552  0.00  0.00    +0.096 C 
BRANCH  11  14
ATOM     12  O   UNL     1     -42.137  25.769   2.038  0.00  0.00    -0.273 OA
ATOM     13  N   UNL     1     -40.318  26.200   3.399  0.00  0.00    -0.197 N 
ATOM     14  C   UNL     1     -40.959  25.598   2.347  0.00  0.00    +0.245 C 
ATOM     15  H   UNL     1     -39.370  26.027   3.601  0.00  0.00    +0.182 HD
BRANCH  13  16
ATOM     16  O   UNL     1     -41.094  27.080   4.165  0.00  0.00    -0.295 OA
ATOM     17  H   UNL     1     -41.577  27.680   3.576  0.00  0.00    +0.241 HD
ENDBRANCH  13  16
ENDBRANCH  11  14
ENDBRANCH   6  11
ENDBRANCH   4   6
ENDBRANCH   1   3
BRANCH   1  20
ATOM     18  O   UNL     1     -35.139  20.569   4.223  0.00  0.00    -0.273 OA
ATOM     19  N   UNL     1     -35.409  20.916   1.941  0.00  0.00    -0.299 N 
ATOM     20  C   UNL     1     -35.414  21.303   3.275  0.00  0.00    +0.241 C 
ATOM     21  H   UNL     1     -35.644  21.585   1.260  0.00  0.00    +0.150 HD
BRANCH  19  22
ATOM     22  C   UNL     1     -35.075  19.579   1.504  0.00  0.00    +0.118 C 
BRANCH  22  24
ATOM     23  N   UNL     1     -31.582  18.213   1.021  0.00  0.00    -0.243 NA
ATOM     24  C   UNL     1     -33.643  19.474   1.063  0.00  0.00    +0.017 C 
ATOM     25  C   UNL     1     -33.048  20.485   0.316  0.00  0.00    +0.001 C 
ATOM     26  C   UNL     1     -32.875  18.369   1.386  0.00  0.00    +0.096 C 
ATOM     27  C   UNL     1     -31.720  20.361  -0.078  0.00  0.00    +0.020 C 
ATOM     28  C   UNL     1     -31.037  19.215   0.297  0.00  0.00    +0.099 C 
ENDBRANCH  22  24
ENDBRANCH  19  22
ENDBRANCH   1  20
BRANCH   1  29
ATOM     29  C   UNL     1     -35.424  23.281   4.818  0.00  0.00    +0.055 C 
BRANCH  29  30
ATOM     30  C   UNL     1     -34.660  24.580   4.728  0.00  0.00    -0.020 C 
ATOM     31  C   UNL     1     -34.467  25.356   5.870  0.00  0.00    -0.004 C 
ATOM     32  C   UNL     1     -34.144  25.002   3.503  0.00  0.00    -0.004 C 
ATOM     33  C   UNL     1     -33.760  26.556   5.787  0.00  0.00    -0.000 C 
ATOM     34  C   UNL     1     -33.437  26.201   3.419  0.00  0.00    -0.000 C 
ATOM     35  C   UNL     1     -33.244  26.978   4.561  0.00  0.00    -0.000 C 
ENDBRANCH  29  30
ENDBRANCH   1  29
TORSDOF 12
ENDMDL
MODEL 9
REMARK VINA RESULT:      -6.6      4.518      6.568
REMARK  Name = 197672
REMARK  12 active torsions:
REMARK  status: ('A' for Active; 'I' for Inactive)
REMARK    1  A    between atoms: C_1  and  N_3
REMARK    2  A    between atoms: C_1  and  C_20
REMARK    3  A    between atoms: C_1  and  C_29
REMARK    4  A    between atoms: C_4  and  C_6
REMARK    5  A    between atoms: C_6  and  C_7
REMARK    6  A    between atoms: C_6  and  C_11
REMARK    7  A    between atoms: C_7  and  C_8
REMARK    8  A    between atoms: C_11  and  C_14
REMARK    9  A    between atoms: N_13  and  O_16
REMARK   10  A    between atoms: N_19  and  C_22
REMARK   11  A    between atoms: C_22  and  C_24
REMARK   12  A    between atoms: C_29  and  C_30
REMARK                            x       y       z     vdW  Elec       q    Type
REMARK                         _______ _______ _______ _____ _____    ______ ____
ROOT
ATOM      1  C   UNL     1     -35.477  21.106   1.163  0.00  0.00    +0.153 C 
ENDROOT
BRANCH   1   3
ATOM      2  O   UNL     1     -34.312  23.715   0.897  0.00  0.00    -0.275 OA
ATOM      3  N   UNL     1     -35.614  22.209   2.084  0.00  0.00    -0.298 N 
ATOM      4  C   UNL     1     -35.011  23.437   1.870  0.00  0.00    +0.223 C 
ATOM      5  H   UNL     1     -36.157  22.084   2.897  0.00  0.00    +0.150 HD
BRANCH   4   6
ATOM      6  C   UNL     1     -35.284  24.468   2.964  0.00  0.00    +0.086 C 
BRANCH   6   7
ATOM      7  C   UNL     1     -36.202  23.918   4.074  0.00  0.00    +0.010 C 
BRANCH   7   8
ATOM      8  C   UNL     1     -35.606  23.966   5.497  0.00  0.00    +0.000 C 
ATOM      9  C   UNL     1     -35.163  22.561   5.916  0.00  0.00    +0.000 C 
ATOM     10  C   UNL     1     -34.425  24.931   5.606  0.00  0.00    +0.000 C 
ENDBRANCH   7   8
ENDBRANCH   6   7
BRANCH   6  11
ATOM     11  C   UNL     1     -35.870  25.751   2.346  0.00  0.00    +0.096 C 
BRANCH  11  14
ATOM     12  O   UNL     1     -33.819  26.989   2.192  0.00  0.00    -0.273 OA
ATOM     13  N   UNL     1     -35.604  27.941   3.312  0.00  0.00    -0.197 N 
ATOM     14  C   UNL     1     -34.980  26.952   2.595  0.00  0.00    +0.245 C 
ATOM     15  H   UNL     1     -36.538  27.859   3.612  0.00  0.00    +0.182 HD
BRANCH  13  16
ATOM     16  O   UNL     1     -34.829  29.073   3.593  0.00  0.00    -0.295 OA
ATOM     17  H   UNL     1     -35.411  29.823   3.788  0.00  0.00    +0.241 HD
ENDBRANCH  13  16
ENDBRANCH  11  14
ENDBRANCH   6  11
ENDBRANCH   4   6
ENDBRANCH   1   3
BRANCH   1  20
ATOM     18  O   UNL     1     -37.900  21.100   1.262  0.00  0.00    -0.273 OA
ATOM     19  N   UNL     1     -36.847  20.036  -0.514  0.00  0.00    -0.299 N 
ATOM     20  C   UNL     1     -36.877  20.749   0.676  0.00  0.00    +0.241 C 
ATOM     21  H   UNL     1     -35.971  19.805  -0.899  0.00  0.00    +0.150 HD
BRANCH  19  22
ATOM     22  C   UNL     1     -38.037  19.615  -1.217  0.00  0.00    +0.118 C 
BRANCH  22  24
ATOM     23  N   UNL     1     -39.927  16.339  -1.161  0.00  0.00    -0.243 NA
ATOM     24  C   UNL     1     -38.368  18.175  -0.950  0.00  0.00    +0.017 C 
ATOM     25  C   UNL     1     -37.478  17.349  -0.271  0.00  0.00    +0.001 C 
ATOM     26  C   UNL     1     -39.568  17.626  -1.370  0.00  0.00    +0.096 C 
ATOM     27  C   UNL     1     -37.811  16.020  -0.036  0.00  0.00    +0.020 C 
ATOM     28  C   UNL     1     -39.037  15.568  -0.498  0.00  0.00    +0.099 C 
ENDBRANCH  22  24
ENDBRANCH  19  22
ENDBRANCH   1  20
BRANCH   1  29
ATOM     29  C   UNL     1     -34.812  19.888   1.813  0.00  0.00    +0.055 C 
BRANCH  29  30
ATOM     30  C   UNL     1     -33.459  19.575   1.219  0.00  0.00    -0.020 C 
ATOM     31  C   UNL     1     -32.831  20.502   0.388  0.00  0.00    -0.004 C 
ATOM     32  C   UNL     1     -32.837  18.360   1.504  0.00  0.00    -0.004 C 
ATOM     33  C   UNL     1     -31.582  20.212  -0.160  0.00  0.00    -0.000 C 
ATOM     34  C   UNL     1     -31.588  18.070   0.956  0.00  0.00    -0.000 C 
ATOM     35  C   UNL     1     -30.959  18.997   0.125  0.00  0.00    -0.000 C 
ENDBRANCH  29  30
ENDBRANCH   1  29
TORSDOF 12
ENDMDL
