MODEL 1
REMARK VINA RESULT:      -5.2      0.000      0.000
REMARK  Name = 5356058
REMARK  7 active torsions:
REMARK  status: ('A' for Active; 'I' for Inactive)
REMARK    1  A    between atoms: N_2  and  C_11
REMARK    2  A    between atoms: C_11  and  C_13
REMARK    3  A    between atoms: C_11  and  O_14
REMARK    4  A    between atoms: O_14  and  C_15
REMARK    5  A    between atoms: C_15  and  C_17
REMARK    6  A    between atoms: C_15  and  C_18
REMARK    7  A    between atoms: C_18  and  O_19
REMARK                            x       y       z     vdW  Elec       q    Type
REMARK                         _______ _______ _______ _____ _____    ______ ____
ROOT
ATOM      1  O   UNL     1     -38.075  23.920   3.374  0.00  0.00    -0.193 OA
ATOM      2  N   UNL     1     -36.254  22.551   3.736  0.00  0.00    -0.174 N 
ATOM      3  N   UNL     1     -37.886  22.088   2.048  0.00  0.00    -0.306 NA
ATOM      4  N   UNL     1     -37.688  20.208   0.693  0.00  0.00    -0.332 N 
ATOM      5  C   UNL     1     -35.560  21.417   3.383  0.00  0.00    +0.084 C 
ATOM      6  C   UNL     1     -37.439  22.909   3.070  0.00  0.00    +0.276 C 
ATOM      7  C   UNL     1     -35.973  20.615   2.405  0.00  0.00    +0.065 C 
ATOM      8  C   UNL     1     -37.227  21.011   1.712  0.00  0.00    +0.193 C 
ATOM      9  H   UNL     1     -38.515  20.445   0.217  0.00  0.00    +0.145 HD
ATOM     10  H   UNL     1     -37.190  19.397   0.442  0.00  0.00    +0.145 HD
ENDROOT
BRANCH   2  11
ATOM     11  C   UNL     1     -35.722  23.367   4.822  0.00  0.00    +0.274 C 
BRANCH  11  13
ATOM     12  O   UNL     1     -35.908  21.934   6.753  0.00  0.00    -0.284 OA
ATOM     13  C   UNL     1     -35.201  22.418   5.874  0.00  0.00    +0.259 C 
ENDBRANCH  11  13
BRANCH  11  14
ATOM     14  O   UNL     1     -34.653  24.173   4.366  0.00  0.00    -0.323 OA
BRANCH  14  15
ATOM     15  C   UNL     1     -34.576  25.418   5.047  0.00  0.00    +0.211 C 
BRANCH  15  17
ATOM     16  O   UNL     1     -33.923  27.659   4.386  0.00  0.00    -0.286 OA
ATOM     17  C   UNL     1     -34.068  26.477   4.091  0.00  0.00    +0.239 C 
ENDBRANCH  15  17
BRANCH  15  18
ATOM     18  C   UNL     1     -35.962  25.785   5.555  0.00  0.00    +0.175 C 
BRANCH  18  19
ATOM     19  O   UNL     1     -36.690  26.443   4.528  0.00  0.00    -0.379 OA
ATOM     20  H   UNL     1     -37.626  26.194   4.586  0.00  0.00    +0.211 HD
ENDBRANCH  18  19
ENDBRANCH  15  18
ENDBRANCH  14  15
ENDBRANCH  11  14
ENDBRANCH   2  11
TORSDOF 7
ENDMDL
MODEL 2
REMARK VINA RESULT:      -4.9      2.636      5.114
REMARK  Name = 5356058
REMARK  7 active torsions:
REMARK  status: ('A' for Active; 'I' for Inactive)
REMARK    1  A    between atoms: N_2  and  C_11
REMARK    2  A    between atoms: C_11  and  C_13
REMARK    3  A    between atoms: C_11  and  O_14
REMARK    4  A    between atoms: O_14  and  C_15
REMARK    5  A    between atoms: C_15  and  C_17
REMARK    6  A    between atoms: C_15  and  C_18
REMARK    7  A    between atoms: C_18  and  O_19
REMARK                            x       y       z     vdW  Elec       q    Type
REMARK                         _______ _______ _______ _____ _____    ______ ____
ROOT
ATOM      1  O   UNL     1     -34.118  24.486   2.165  0.00  0.00    -0.193 OA
ATOM      2  N   UNL     1     -34.900  24.300   4.327  0.00  0.00    -0.174 N 
ATOM      3  N   UNL     1     -33.558  26.147   3.607  0.00  0.00    -0.306 NA
ATOM      4  N   UNL     1     -32.986  27.844   5.090  0.00  0.00    -0.332 N 
ATOM      5  C   UNL     1     -34.966  24.835   5.593  0.00  0.00    +0.084 C 
ATOM      6  C   UNL     1     -34.189  24.952   3.304  0.00  0.00    +0.276 C 
ATOM      7  C   UNL     1     -34.366  25.981   5.904  0.00  0.00    +0.065 C 
ATOM      8  C   UNL     1     -33.620  26.655   4.809  0.00  0.00    +0.193 C 
ATOM      9  H   UNL     1     -32.485  28.312   4.385  0.00  0.00    +0.145 HD
ATOM     10  H   UNL     1     -33.034  28.225   5.996  0.00  0.00    +0.145 HD
ENDROOT
BRANCH   2  11
ATOM     11  C   UNL     1     -35.590  23.038   4.083  0.00  0.00    +0.274 C 
BRANCH  11  13
ATOM     12  O   UNL     1     -35.092  20.902   5.086  0.00  0.00    -0.284 OA
ATOM     13  C   UNL     1     -35.239  22.114   5.222  0.00  0.00    +0.259 C 
ENDBRANCH  11  13
BRANCH  11  14
ATOM     14  O   UNL     1     -36.992  23.229   4.066  0.00  0.00    -0.323 OA
BRANCH  14  15
ATOM     15  C   UNL     1     -37.492  23.501   2.764  0.00  0.00    +0.211 C 
BRANCH  15  17
ATOM     16  O   UNL     1     -39.619  22.467   2.222  0.00  0.00    -0.286 OA
ATOM     17  C   UNL     1     -38.401  22.368   2.335  0.00  0.00    +0.239 C 
ENDBRANCH  15  17
BRANCH  15  18
ATOM     18  C   UNL     1     -38.260  24.812   2.796  0.00  0.00    +0.175 C 
BRANCH  18  19
ATOM     19  O   UNL     1     -39.083  24.858   3.953  0.00  0.00    -0.379 OA
ATOM     20  H   UNL     1     -39.178  25.777   4.247  0.00  0.00    +0.211 HD
ENDBRANCH  18  19
ENDBRANCH  15  18
ENDBRANCH  14  15
ENDBRANCH  11  14
ENDBRANCH   2  11
TORSDOF 7
ENDMDL
MODEL 3
REMARK VINA RESULT:      -4.9      2.508      5.096
REMARK  Name = 5356058
REMARK  7 active torsions:
REMARK  status: ('A' for Active; 'I' for Inactive)
REMARK    1  A    between atoms: N_2  and  C_11
REMARK    2  A    between atoms: C_11  and  C_13
REMARK    3  A    between atoms: C_11  and  O_14
REMARK    4  A    between atoms: O_14  and  C_15
REMARK    5  A    between atoms: C_15  and  C_17
REMARK    6  A    between atoms: C_15  and  C_18
REMARK    7  A    between atoms: C_18  and  O_19
REMARK                            x       y       z     vdW  Elec       q    Type
REMARK                         _______ _______ _______ _____ _____    ______ ____
ROOT
ATOM      1  O   UNL     1     -34.290  24.219   2.095  0.00  0.00    -0.193 OA
ATOM      2  N   UNL     1     -34.952  24.123   4.302  0.00  0.00    -0.174 N 
ATOM      3  N   UNL     1     -33.762  25.995   3.405  0.00  0.00    -0.306 NA
ATOM      4  N   UNL     1     -33.222  27.812   4.754  0.00  0.00    -0.332 N 
ATOM      5  C   UNL     1     -34.988  24.730   5.536  0.00  0.00    +0.084 C 
ATOM      6  C   UNL     1     -34.333  24.750   3.207  0.00  0.00    +0.276 C 
ATOM      7  C   UNL     1     -34.444  25.926   5.747  0.00  0.00    +0.065 C 
ATOM      8  C   UNL     1     -33.796  26.573   4.577  0.00  0.00    +0.193 C 
ATOM      9  H   UNL     1     -32.786  28.263   3.997  0.00  0.00    +0.145 HD
ATOM     10  H   UNL     1     -33.248  28.245   5.637  0.00  0.00    +0.145 HD
ENDROOT
BRANCH   2  11
ATOM     11  C   UNL     1     -35.575  22.810   4.170  0.00  0.00    +0.274 C 
BRANCH  11  13
ATOM     12  O   UNL     1     -35.049  20.922   5.576  0.00  0.00    -0.284 OA
ATOM     13  C   UNL     1     -35.393  22.098   5.488  0.00  0.00    +0.259 C 
ENDBRANCH  11  13
BRANCH  11  14
ATOM     14  O   UNL     1     -36.960  22.937   3.908  0.00  0.00    -0.323 OA
BRANCH  14  15
ATOM     15  C   UNL     1     -37.361  22.245   2.734  0.00  0.00    +0.211 C 
BRANCH  15  17
ATOM     16  O   UNL     1     -37.634  24.460   1.782  0.00  0.00    -0.286 OA
ATOM     17  C   UNL     1     -37.576  23.245   1.617  0.00  0.00    +0.239 C 
ENDBRANCH  15  17
BRANCH  15  18
ATOM     18  C   UNL     1     -36.273  21.253   2.353  0.00  0.00    +0.175 C 
BRANCH  18  19
ATOM     19  O   UNL     1     -36.710  19.931   2.633  0.00  0.00    -0.379 OA
ATOM     20  H   UNL     1     -37.594  19.959   3.032  0.00  0.00    +0.211 HD
ENDBRANCH  18  19
ENDBRANCH  15  18
ENDBRANCH  14  15
ENDBRANCH  11  14
ENDBRANCH   2  11
TORSDOF 7
ENDMDL
MODEL 4
REMARK VINA RESULT:      -4.9      2.879      4.699
REMARK  Name = 5356058
REMARK  7 active torsions:
REMARK  status: ('A' for Active; 'I' for Inactive)
REMARK    1  A    between atoms: N_2  and  C_11
REMARK    2  A    between atoms: C_11  and  C_13
REMARK    3  A    between atoms: C_11  and  O_14
REMARK    4  A    between atoms: O_14  and  C_15
REMARK    5  A    between atoms: C_15  and  C_17
REMARK    6  A    between atoms: C_15  and  C_18
REMARK    7  A    between atoms: C_18  and  O_19
REMARK                            x       y       z     vdW  Elec       q    Type
REMARK                         _______ _______ _______ _____ _____    ______ ____
ROOT
ATOM      1  O   UNL     1     -36.427  27.058   1.966  0.00  0.00    -0.193 OA
ATOM      2  N   UNL     1     -37.560  25.463   3.188  0.00  0.00    -0.174 N 
ATOM      3  N   UNL     1     -38.645  26.824   1.545  0.00  0.00    -0.306 NA
ATOM      4  N   UNL     1     -40.919  26.582   1.120  0.00  0.00    -0.332 N 
ATOM      5  C   UNL     1     -38.752  24.830   3.458  0.00  0.00    +0.084 C 
ATOM      6  C   UNL     1     -37.486  26.479   2.220  0.00  0.00    +0.276 C 
ATOM      7  C   UNL     1     -39.877  25.148   2.822  0.00  0.00    +0.065 C 
ATOM      8  C   UNL     1     -39.777  26.224   1.802  0.00  0.00    +0.193 C 
ATOM      9  H   UNL     1     -40.882  27.291   0.439  0.00  0.00    +0.145 HD
ATOM     10  H   UNL     1     -41.771  26.128   1.315  0.00  0.00    +0.145 HD
ENDROOT
BRANCH   2  11
ATOM     11  C   UNL     1     -36.381  25.045   3.938  0.00  0.00    +0.274 C 
BRANCH  11  13
ATOM     12  O   UNL     1     -35.114  26.464   5.421  0.00  0.00    -0.284 OA
ATOM     13  C   UNL     1     -36.207  26.026   5.072  0.00  0.00    +0.259 C 
ENDBRANCH  11  13
BRANCH  11  14
ATOM     14  O   UNL     1     -36.564  23.751   4.479  0.00  0.00    -0.323 OA
BRANCH  14  15
ATOM     15  C   UNL     1     -35.402  22.940   4.363  0.00  0.00    +0.211 C 
BRANCH  15  17
ATOM     16  O   UNL     1     -36.021  22.014   6.519  0.00  0.00    -0.286 OA
ATOM     17  C   UNL     1     -35.151  22.241   5.683  0.00  0.00    +0.239 C 
ENDBRANCH  15  17
BRANCH  15  18
ATOM     18  C   UNL     1     -35.624  21.920   3.258  0.00  0.00    +0.175 C 
BRANCH  18  19
ATOM     19  O   UNL     1     -35.714  20.618   3.818  0.00  0.00    -0.379 OA
ATOM     20  H   UNL     1     -36.565  20.519   4.272  0.00  0.00    +0.211 HD
ENDBRANCH  18  19
ENDBRANCH  15  18
ENDBRANCH  14  15
ENDBRANCH  11  14
ENDBRANCH   2  11
TORSDOF 7
ENDMDL
MODEL 5
REMARK VINA RESULT:      -4.8      2.617      5.235
REMARK  Name = 5356058
REMARK  7 active torsions:
REMARK  status: ('A' for Active; 'I' for Inactive)
REMARK    1  A    between atoms: N_2  and  C_11
REMARK    2  A    between atoms: C_11  and  C_13
REMARK    3  A    between atoms: C_11  and  O_14
REMARK    4  A    between atoms: O_14  and  C_15
REMARK    5  A    between atoms: C_15  and  C_17
REMARK    6  A    between atoms: C_15  and  C_18
REMARK    7  A    between atoms: C_18  and  O_19
REMARK                            x       y       z     vdW  Elec       q    Type
REMARK                         _______ _______ _______ _____ _____    ______ ____
ROOT
ATOM      1  O   UNL     1     -36.531  26.642   2.686  0.00  0.00    -0.193 OA
ATOM      2  N   UNL     1     -35.989  24.598   3.607  0.00  0.00    -0.174 N 
ATOM      3  N   UNL     1     -35.108  26.656   4.454  0.00  0.00    -0.306 NA
ATOM      4  N   UNL     1     -33.648  26.663   6.264  0.00  0.00    -0.332 N 
ATOM      5  C   UNL     1     -35.288  23.899   4.562  0.00  0.00    +0.084 C 
ATOM      6  C   UNL     1     -35.910  26.000   3.536  0.00  0.00    +0.276 C 
ATOM      7  C   UNL     1     -34.510  24.510   5.452  0.00  0.00    +0.065 C 
ATOM      8  C   UNL     1     -34.440  25.992   5.360  0.00  0.00    +0.193 C 
ATOM      9  H   UNL     1     -33.583  27.644   6.227  0.00  0.00    +0.145 HD
ATOM     10  H   UNL     1     -33.146  26.161   6.946  0.00  0.00    +0.145 HD
ENDROOT
BRANCH   2  11
ATOM     11  C   UNL     1     -36.815  23.838   2.675  0.00  0.00    +0.274 C 
BRANCH  11  13
ATOM     12  O   UNL     1     -36.750  21.447   2.363  0.00  0.00    -0.284 OA
ATOM     13  C   UNL     1     -36.136  22.506   2.466  0.00  0.00    +0.259 C 
ENDBRANCH  11  13
BRANCH  11  14
ATOM     14  O   UNL     1     -38.103  23.614   3.214  0.00  0.00    -0.323 OA
BRANCH  14  15
ATOM     15  C   UNL     1     -39.131  24.235   2.453  0.00  0.00    +0.211 C 
BRANCH  15  17
ATOM     16  O   UNL     1     -40.025  21.991   2.224  0.00  0.00    -0.286 OA
ATOM     17  C   UNL     1     -40.031  23.166   1.869  0.00  0.00    +0.239 C 
ENDBRANCH  15  17
BRANCH  15  18
ATOM     18  C   UNL     1     -39.926  25.157   3.363  0.00  0.00    +0.175 C 
BRANCH  18  19
ATOM     19  O   UNL     1     -39.326  26.444   3.385  0.00  0.00    -0.379 OA
ATOM     20  H   UNL     1     -38.474  26.412   2.924  0.00  0.00    +0.211 HD
ENDBRANCH  18  19
ENDBRANCH  15  18
ENDBRANCH  14  15
ENDBRANCH  11  14
ENDBRANCH   2  11
TORSDOF 7
ENDMDL
MODEL 6
REMARK VINA RESULT:      -4.8      2.527      5.653
REMARK  Name = 5356058
REMARK  7 active torsions:
REMARK  status: ('A' for Active; 'I' for Inactive)
REMARK    1  A    between atoms: N_2  and  C_11
REMARK    2  A    between atoms: C_11  and  C_13
REMARK    3  A    between atoms: C_11  and  O_14
REMARK    4  A    between atoms: O_14  and  C_15
REMARK    5  A    between atoms: C_15  and  C_17
REMARK    6  A    between atoms: C_15  and  C_18
REMARK    7  A    between atoms: C_18  and  O_19
REMARK                            x       y       z     vdW  Elec       q    Type
REMARK                         _______ _______ _______ _____ _____    ______ ____
ROOT
ATOM      1  O   UNL     1     -36.007  22.946   5.731  0.00  0.00    -0.193 OA
ATOM      2  N   UNL     1     -36.431  24.468   4.050  0.00  0.00    -0.174 N 
ATOM      3  N   UNL     1     -34.811  24.875   5.764  0.00  0.00    -0.306 NA
ATOM      4  N   UNL     1     -33.590  26.854   5.793  0.00  0.00    -0.332 N 
ATOM      5  C   UNL     1     -36.147  25.689   3.483  0.00  0.00    +0.084 C 
ATOM      6  C   UNL     1     -35.763  24.036   5.209  0.00  0.00    +0.276 C 
ATOM      7  C   UNL     1     -35.236  26.509   4.002  0.00  0.00    +0.065 C 
ATOM      8  C   UNL     1     -34.541  26.035   5.226  0.00  0.00    +0.193 C 
ATOM      9  H   UNL     1     -33.114  26.566   6.604  0.00  0.00    +0.145 HD
ATOM     10  H   UNL     1     -33.388  27.728   5.387  0.00  0.00    +0.145 HD
ENDROOT
BRANCH   2  11
ATOM     11  C   UNL     1     -37.446  23.638   3.409  0.00  0.00    +0.274 C 
BRANCH  11  13
ATOM     12  O   UNL     1     -39.645  24.603   3.629  0.00  0.00    -0.284 OA
ATOM     13  C   UNL     1     -38.582  24.552   3.018  0.00  0.00    +0.259 C 
ENDBRANCH  11  13
BRANCH  11  14
ATOM     14  O   UNL     1     -36.930  23.028   2.241  0.00  0.00    -0.323 OA
BRANCH  14  15
ATOM     15  C   UNL     1     -36.989  21.608   2.295  0.00  0.00    +0.211 C 
BRANCH  15  17
ATOM     16  O   UNL     1     -37.250  19.958   0.536  0.00  0.00    -0.286 OA
ATOM     17  C   UNL     1     -37.490  21.082   0.967  0.00  0.00    +0.239 C 
ENDBRANCH  15  17
BRANCH  15  18
ATOM     18  C   UNL     1     -35.597  21.070   2.586  0.00  0.00    +0.175 C 
BRANCH  18  19
ATOM     19  O   UNL     1     -35.507  20.685   3.950  0.00  0.00    -0.379 OA
ATOM     20  H   UNL     1     -34.749  20.092   4.070  0.00  0.00    +0.211 HD
ENDBRANCH  18  19
ENDBRANCH  15  18
ENDBRANCH  14  15
ENDBRANCH  11  14
ENDBRANCH   2  11
TORSDOF 7
ENDMDL
MODEL 7
REMARK VINA RESULT:      -4.6      2.630      5.294
REMARK  Name = 5356058
REMARK  7 active torsions:
REMARK  status: ('A' for Active; 'I' for Inactive)
REMARK    1  A    between atoms: N_2  and  C_11
REMARK    2  A    between atoms: C_11  and  C_13
REMARK    3  A    between atoms: C_11  and  O_14
REMARK    4  A    between atoms: O_14  and  C_15
REMARK    5  A    between atoms: C_15  and  C_17
REMARK    6  A    between atoms: C_15  and  C_18
REMARK    7  A    between atoms: C_18  and  O_19
REMARK                            x       y       z     vdW  Elec       q    Type
REMARK                         _______ _______ _______ _____ _____    ______ ____
ROOT
ATOM      1  O   UNL     1     -33.946  24.530   2.087  0.00  0.00    -0.193 OA
ATOM      2  N   UNL     1     -35.301  24.023   3.884  0.00  0.00    -0.174 N 
ATOM      3  N   UNL     1     -33.648  25.752   3.976  0.00  0.00    -0.306 NA
ATOM      4  N   UNL     1     -33.347  26.999   5.917  0.00  0.00    -0.332 N 
ATOM      5  C   UNL     1     -35.659  24.288   5.185  0.00  0.00    +0.084 C 
ATOM      6  C   UNL     1     -34.281  24.756   3.252  0.00  0.00    +0.276 C 
ATOM      7  C   UNL     1     -35.063  25.240   5.898  0.00  0.00    +0.065 C 
ATOM      8  C   UNL     1     -33.988  26.004   5.213  0.00  0.00    +0.193 C 
ATOM      9  H   UNL     1     -32.632  27.521   5.488  0.00  0.00    +0.145 HD
ATOM     10  H   UNL     1     -33.604  27.187   6.848  0.00  0.00    +0.145 HD
ENDROOT
BRANCH   2  11
ATOM     11  C   UNL     1     -36.012  22.959   3.183  0.00  0.00    +0.274 C 
BRANCH  11  13
ATOM     12  O   UNL     1     -35.661  20.573   3.142  0.00  0.00    -0.284 OA
ATOM     13  C   UNL     1     -35.473  21.649   3.704  0.00  0.00    +0.259 C 
ENDBRANCH  11  13
BRANCH  11  14
ATOM     14  O   UNL     1     -37.399  23.021   3.455  0.00  0.00    -0.323 OA
BRANCH  14  15
ATOM     15  C   UNL     1     -38.175  23.259   2.288  0.00  0.00    +0.211 C 
BRANCH  15  17
ATOM     16  O   UNL     1     -37.457  22.563   0.077  0.00  0.00    -0.286 OA
ATOM     17  C   UNL     1     -37.265  23.249   1.077  0.00  0.00    +0.239 C 
ENDBRANCH  15  17
BRANCH  15  18
ATOM     18  C   UNL     1     -39.229  22.170   2.167  0.00  0.00    +0.175 C 
BRANCH  18  19
ATOM     19  O   UNL     1     -38.611  20.894   2.244  0.00  0.00    -0.379 OA
ATOM     20  H   UNL     1     -38.396  20.693   3.168  0.00  0.00    +0.211 HD
ENDBRANCH  18  19
ENDBRANCH  15  18
ENDBRANCH  14  15
ENDBRANCH  11  14
ENDBRANCH   2  11
TORSDOF 7
ENDMDL
MODEL 8
REMARK VINA RESULT:      -4.6      1.588      3.313
REMARK  Name = 5356058
REMARK  7 active torsions:
REMARK  status: ('A' for Active; 'I' for Inactive)
REMARK    1  A    between atoms: N_2  and  C_11
REMARK    2  A    between atoms: C_11  and  C_13
REMARK    3  A    between atoms: C_11  and  O_14
REMARK    4  A    between atoms: O_14  and  C_15
REMARK    5  A    between atoms: C_15  and  C_17
REMARK    6  A    between atoms: C_15  and  C_18
REMARK    7  A    between atoms: C_18  and  O_19
REMARK                            x       y       z     vdW  Elec       q    Type
REMARK                         _______ _______ _______ _____ _____    ______ ____
ROOT
ATOM      1  O   UNL     1     -34.643  23.153   2.103  0.00  0.00    -0.193 OA
ATOM      2  N   UNL     1     -36.901  23.307   2.548  0.00  0.00    -0.174 N 
ATOM      3  N   UNL     1     -35.933  21.387   1.496  0.00  0.00    -0.306 NA
ATOM      4  N   UNL     1     -37.261  19.582   0.874  0.00  0.00    -0.332 N 
ATOM      5  C   UNL     1     -38.145  22.723   2.480  0.00  0.00    +0.084 C 
ATOM      6  C   UNL     1     -35.765  22.644   2.052  0.00  0.00    +0.276 C 
ATOM      7  C   UNL     1     -38.328  21.517   1.948  0.00  0.00    +0.065 C 
ATOM      8  C   UNL     1     -37.115  20.833   1.431  0.00  0.00    +0.193 C 
ATOM      9  H   UNL     1     -36.475  19.105   0.524  0.00  0.00    +0.145 HD
ATOM     10  H   UNL     1     -38.152  19.166   0.826  0.00  0.00    +0.145 HD
ENDROOT
BRANCH   2  11
ATOM     11  C   UNL     1     -36.802  24.633   3.148  0.00  0.00    +0.274 C 
BRANCH  11  13
ATOM     12  O   UNL     1     -38.511  26.333   3.071  0.00  0.00    -0.284 OA
ATOM     13  C   UNL     1     -37.831  25.504   2.471  0.00  0.00    +0.259 C 
ENDBRANCH  11  13
BRANCH  11  14
ATOM     14  O   UNL     1     -37.089  24.579   4.532  0.00  0.00    -0.323 OA
BRANCH  14  15
ATOM     15  C   UNL     1     -35.925  24.702   5.338  0.00  0.00    +0.211 C 
BRANCH  15  17
ATOM     16  O   UNL     1     -36.056  22.425   6.166  0.00  0.00    -0.286 OA
ATOM     17  C   UNL     1     -35.391  23.320   5.653  0.00  0.00    +0.239 C 
ENDBRANCH  15  17
BRANCH  15  18
ATOM     18  C   UNL     1     -34.885  25.510   4.579  0.00  0.00    +0.175 C 
BRANCH  18  19
ATOM     19  O   UNL     1     -33.650  24.810   4.564  0.00  0.00    -0.379 OA
ATOM     20  H   UNL     1     -33.763  23.962   4.107  0.00  0.00    +0.211 HD
ENDBRANCH  18  19
ENDBRANCH  15  18
ENDBRANCH  14  15
ENDBRANCH  11  14
ENDBRANCH   2  11
TORSDOF 7
ENDMDL
MODEL 9
REMARK VINA RESULT:      -4.6      1.838      3.277
REMARK  Name = 5356058
REMARK  7 active torsions:
REMARK  status: ('A' for Active; 'I' for Inactive)
REMARK    1  A    between atoms: N_2  and  C_11
REMARK    2  A    between atoms: C_11  and  C_13
REMARK    3  A    between atoms: C_11  and  O_14
REMARK    4  A    between atoms: O_14  and  C_15
REMARK    5  A    between atoms: C_15  and  C_17
REMARK    6  A    between atoms: C_15  and  C_18
REMARK    7  A    between atoms: C_18  and  O_19
REMARK                            x       y       z     vdW  Elec       q    Type
REMARK                         _______ _______ _______ _____ _____    ______ ____
ROOT
ATOM      1  O   UNL     1     -35.665  23.362   1.509  0.00  0.00    -0.193 OA
ATOM      2  N   UNL     1     -37.823  23.403   2.322  0.00  0.00    -0.174 N 
ATOM      3  N   UNL     1     -37.029  21.656   0.893  0.00  0.00    -0.306 NA
ATOM      4  N   UNL     1     -38.432  19.911   0.263  0.00  0.00    -0.332 N 
ATOM      5  C   UNL     1     -39.060  22.803   2.378  0.00  0.00    +0.084 C 
ATOM      6  C   UNL     1     -36.778  22.836   1.572  0.00  0.00    +0.276 C 
ATOM      7  C   UNL     1     -39.321  21.669   1.732  0.00  0.00    +0.065 C 
ATOM      8  C   UNL     1     -38.203  21.085   0.945  0.00  0.00    +0.193 C 
ATOM      9  H   UNL     1     -37.711  19.502  -0.266  0.00  0.00    +0.145 HD
ATOM     10  H   UNL     1     -39.317  19.482   0.304  0.00  0.00    +0.145 HD
ENDROOT
BRANCH   2  11
ATOM     11  C   UNL     1     -37.634  24.645   3.064  0.00  0.00    +0.274 C 
BRANCH  11  13
ATOM     12  O   UNL     1     -39.009  26.558   2.545  0.00  0.00    -0.284 OA
ATOM     13  C   UNL     1     -38.931  25.413   2.981  0.00  0.00    +0.259 C 
ENDBRANCH  11  13
BRANCH  11  14
ATOM     14  O   UNL     1     -37.349  24.378   4.423  0.00  0.00    -0.323 OA
BRANCH  14  15
ATOM     15  C   UNL     1     -35.979  24.575   4.744  0.00  0.00    +0.211 C 
BRANCH  15  17
ATOM     16  O   UNL     1     -34.761  26.417   5.751  0.00  0.00    -0.286 OA
ATOM     17  C   UNL     1     -35.833  25.862   5.531  0.00  0.00    +0.239 C 
ENDBRANCH  15  17
BRANCH  15  18
ATOM     18  C   UNL     1     -35.492  23.394   5.568  0.00  0.00    +0.175 C 
BRANCH  18  19
ATOM     19  O   UNL     1     -36.203  22.223   5.195  0.00  0.00    -0.379 OA
ATOM     20  H   UNL     1     -36.771  21.941   5.929  0.00  0.00    +0.211 HD
ENDBRANCH  18  19
ENDBRANCH  15  18
ENDBRANCH  14  15
ENDBRANCH  11  14
ENDBRANCH   2  11
TORSDOF 7
ENDMDL
