MODEL 1
REMARK VINA RESULT:      -5.6      0.000      0.000
REMARK  Name = 57349732
REMARK  9 active torsions:
REMARK  status: ('A' for Active; 'I' for Inactive)
REMARK    1  A    between atoms: C_4  and  O_20
REMARK    2  A    between atoms: C_5  and  C_12
REMARK    3  A    between atoms: N_11  and  C_12
REMARK    4  A    between atoms: N_11  and  N_13
REMARK    5  A    between atoms: N_13  and  C_16
REMARK    6  A    between atoms: C_16  and  N_17
REMARK    7  A    between atoms: O_20  and  C_22
REMARK    8  A    between atoms: C_22  and  O_23
REMARK    9  A    between atoms: O_23  and  C_24
REMARK                            x       y       z     vdW  Elec       q    Type
REMARK                         _______ _______ _______ _____ _____    ______ ____
ROOT
ATOM      1  N   UNL     1     -34.345  27.366   4.513  0.00  0.00    -0.247 NA
ATOM      2  C   UNL     1     -35.533  24.907   3.826  0.00  0.00    +0.038 C 
ATOM      3  C   UNL     1     -34.761  25.020   5.001  0.00  0.00    +0.018 C 
ATOM      4  C   UNL     1     -36.115  23.669   3.506  0.00  0.00    +0.152 C 
ATOM      5  C   UNL     1     -34.198  26.265   5.285  0.00  0.00    +0.079 C 
ATOM      6  C   UNL     1     -34.583  23.899   5.830  0.00  0.00    +0.001 C 
ATOM      7  C   UNL     1     -35.698  26.035   3.013  0.00  0.00    +0.024 C 
ATOM      8  C   UNL     1     -35.932  22.563   4.338  0.00  0.00    +0.038 C 
ATOM      9  C   UNL     1     -35.168  22.678   5.497  0.00  0.00    +0.003 C 
ATOM     10  C   UNL     1     -35.091  27.220   3.397  0.00  0.00    +0.099 C 
ENDROOT
BRANCH   5  11
ATOM     11  C   UNL     1     -33.382  26.499   6.472  0.00  0.00    +0.157 C 
BRANCH  11  12
ATOM     12  N   UNL     1     -32.216  27.072   6.416  0.00  0.00    -0.126 NA
BRANCH  12  13
ATOM     13  N   UNL     1     -32.204  28.365   6.822  0.00  0.00    -0.244 N 
ATOM     14  H   UNL     1     -32.553  28.597   7.713  0.00  0.00    +0.170 HD
BRANCH  13  16
ATOM     15  S   UNL     1     -30.091  29.759   6.001  0.00  0.00    -0.018 S 
ATOM     16  C   UNL     1     -31.714  29.355   6.008  0.00  0.00    +0.143 C 
BRANCH  16  17
ATOM     17  N   UNL     1     -32.615  29.998   5.202  0.00  0.00    -0.340 N 
ATOM     18  H   UNL     1     -33.049  30.825   5.510  0.00  0.00    +0.144 HD
ATOM     19  H   UNL     1     -32.828  29.631   4.312  0.00  0.00    +0.144 HD
ENDBRANCH  16  17
ENDBRANCH  13  16
ENDBRANCH  12  13
ENDBRANCH  11  12
ENDBRANCH   5  11
BRANCH   4  20
ATOM     20  O   UNL     1     -36.871  23.511   2.381  0.00  0.00    -0.394 OA
BRANCH  20  22
ATOM     21  O   UNL     1     -38.782  22.187   2.189  0.00  0.00    -0.202 OA
ATOM     22  C   UNL     1     -38.208  23.174   2.630  0.00  0.00    +0.516 C 
BRANCH  22  23
ATOM     23  O   UNL     1     -38.759  24.124   3.438  0.00  0.00    -0.418 OA
BRANCH  23  24
ATOM     24  C   UNL     1     -39.873  24.834   2.885  0.00  0.00    +0.212 C 
ATOM     25  C   UNL     1     -39.358  25.999   2.068  0.00  0.00    +0.051 C 
ENDBRANCH  23  24
ENDBRANCH  22  23
ENDBRANCH  20  22
ENDBRANCH   4  20
TORSDOF 9
ENDMDL
MODEL 2
REMARK VINA RESULT:      -5.5      0.917      1.465
REMARK  Name = 57349732
REMARK  9 active torsions:
REMARK  status: ('A' for Active; 'I' for Inactive)
REMARK    1  A    between atoms: C_4  and  O_20
REMARK    2  A    between atoms: C_5  and  C_12
REMARK    3  A    between atoms: N_11  and  C_12
REMARK    4  A    between atoms: N_11  and  N_13
REMARK    5  A    between atoms: N_13  and  C_16
REMARK    6  A    between atoms: C_16  and  N_17
REMARK    7  A    between atoms: O_20  and  C_22
REMARK    8  A    between atoms: C_22  and  O_23
REMARK    9  A    between atoms: O_23  and  C_24
REMARK                            x       y       z     vdW  Elec       q    Type
REMARK                         _______ _______ _______ _____ _____    ______ ____
ROOT
ATOM      1  N   UNL     1     -34.416  27.272   4.429  0.00  0.00    -0.247 NA
ATOM      2  C   UNL     1     -35.496  24.751   3.795  0.00  0.00    +0.038 C 
ATOM      3  C   UNL     1     -34.757  24.929   4.983  0.00  0.00    +0.018 C 
ATOM      4  C   UNL     1     -36.024  23.483   3.501  0.00  0.00    +0.152 C 
ATOM      5  C   UNL     1     -34.247  26.203   5.240  0.00  0.00    +0.079 C 
ATOM      6  C   UNL     1     -34.559  23.842   5.851  0.00  0.00    +0.001 C 
ATOM      7  C   UNL     1     -35.683  25.846   2.942  0.00  0.00    +0.024 C 
ATOM      8  C   UNL     1     -35.822  22.411   4.372  0.00  0.00    +0.038 C 
ATOM      9  C   UNL     1     -35.090  22.589   5.544  0.00  0.00    +0.003 C 
ATOM     10  C   UNL     1     -35.129  27.064   3.302  0.00  0.00    +0.099 C 
ENDROOT
BRANCH   5  11
ATOM     11  C   UNL     1     -33.469  26.504   6.437  0.00  0.00    +0.157 C 
BRANCH  11  12
ATOM     12  N   UNL     1     -32.279  27.025   6.383  0.00  0.00    -0.126 NA
BRANCH  12  13
ATOM     13  N   UNL     1     -32.213  28.318   6.782  0.00  0.00    -0.244 N 
ATOM     14  H   UNL     1     -32.507  28.561   7.690  0.00  0.00    +0.170 HD
BRANCH  13  16
ATOM     15  S   UNL     1     -30.146  29.791   5.983  0.00  0.00    -0.018 S 
ATOM     16  C   UNL     1     -31.742  29.293   5.940  0.00  0.00    +0.143 C 
BRANCH  16  17
ATOM     17  N   UNL     1     -32.638  29.840   5.061  0.00  0.00    -0.340 N 
ATOM     18  H   UNL     1     -33.191  30.607   5.335  0.00  0.00    +0.144 HD
ATOM     19  H   UNL     1     -32.731  29.465   4.155  0.00  0.00    +0.144 HD
ENDBRANCH  16  17
ENDBRANCH  13  16
ENDBRANCH  12  13
ENDBRANCH  11  12
ENDBRANCH   5  11
BRANCH   4  20
ATOM     20  O   UNL     1     -36.747  23.261   2.365  0.00  0.00    -0.394 OA
BRANCH  20  22
ATOM     21  O   UNL     1     -38.901  23.775   3.099  0.00  0.00    -0.202 OA
ATOM     22  C   UNL     1     -38.105  22.997   2.589  0.00  0.00    +0.516 C 
BRANCH  22  23
ATOM     23  O   UNL     1     -38.389  21.739   2.149  0.00  0.00    -0.418 OA
BRANCH  23  24
ATOM     24  C   UNL     1     -39.737  21.525   1.719  0.00  0.00    +0.212 C 
ATOM     25  C   UNL     1     -39.779  21.536   0.206  0.00  0.00    +0.051 C 
ENDBRANCH  23  24
ENDBRANCH  22  23
ENDBRANCH  20  22
ENDBRANCH   4  20
TORSDOF 9
ENDMDL
MODEL 3
REMARK VINA RESULT:      -5.5      1.508      3.424
REMARK  Name = 57349732
REMARK  9 active torsions:
REMARK  status: ('A' for Active; 'I' for Inactive)
REMARK    1  A    between atoms: C_4  and  O_20
REMARK    2  A    between atoms: C_5  and  C_12
REMARK    3  A    between atoms: N_11  and  C_12
REMARK    4  A    between atoms: N_11  and  N_13
REMARK    5  A    between atoms: N_13  and  C_16
REMARK    6  A    between atoms: C_16  and  N_17
REMARK    7  A    between atoms: O_20  and  C_22
REMARK    8  A    between atoms: C_22  and  O_23
REMARK    9  A    between atoms: O_23  and  C_24
REMARK                            x       y       z     vdW  Elec       q    Type
REMARK                         _______ _______ _______ _____ _____    ______ ____
ROOT
ATOM      1  N   UNL     1     -32.985  27.304   5.641  0.00  0.00    -0.247 NA
ATOM      2  C   UNL     1     -35.223  26.101   4.427  0.00  0.00    +0.038 C 
ATOM      3  C   UNL     1     -34.548  27.158   3.783  0.00  0.00    +0.018 C 
ATOM      4  C   UNL     1     -36.337  25.518   3.801  0.00  0.00    +0.152 C 
ATOM      5  C   UNL     1     -33.446  27.712   4.436  0.00  0.00    +0.079 C 
ATOM      6  C   UNL     1     -34.996  27.612   2.531  0.00  0.00    +0.001 C 
ATOM      7  C   UNL     1     -34.761  25.663   5.675  0.00  0.00    +0.024 C 
ATOM      8  C   UNL     1     -36.772  25.977   2.557  0.00  0.00    +0.038 C 
ATOM      9  C   UNL     1     -36.104  27.022   1.923  0.00  0.00    +0.003 C 
ATOM     10  C   UNL     1     -33.656  26.290   6.227  0.00  0.00    +0.099 C 
ENDROOT
BRANCH   5  11
ATOM     11  C   UNL     1     -32.671  28.809   3.864  0.00  0.00    +0.157 C 
BRANCH  11  12
ATOM     12  N   UNL     1     -32.818  30.043   4.250  0.00  0.00    -0.126 NA
BRANCH  12  13
ATOM     13  N   UNL     1     -32.438  30.281   5.528  0.00  0.00    -0.244 N 
ATOM     14  H   UNL     1     -33.117  30.525   6.199  0.00  0.00    +0.170 HD
BRANCH  13  16
ATOM     15  S   UNL     1     -29.923  31.038   5.107  0.00  0.00    -0.018 S 
ATOM     16  C   UNL     1     -31.122  30.186   5.902  0.00  0.00    +0.143 C 
BRANCH  16  17
ATOM     17  N   UNL     1     -30.834  29.363   6.957  0.00  0.00    -0.340 N 
ATOM     18  H   UNL     1     -29.901  29.245   7.250  0.00  0.00    +0.144 HD
ATOM     19  H   UNL     1     -31.560  28.888   7.423  0.00  0.00    +0.144 HD
ENDBRANCH  16  17
ENDBRANCH  13  16
ENDBRANCH  12  13
ENDBRANCH  11  12
ENDBRANCH   5  11
BRANCH   4  20
ATOM     20  O   UNL     1     -37.022  24.492   4.384  0.00  0.00    -0.394 OA
BRANCH  20  22
ATOM     21  O   UNL     1     -37.757  22.681   3.110  0.00  0.00    -0.202 OA
ATOM     22  C   UNL     1     -36.877  23.260   3.734  0.00  0.00    +0.516 C 
BRANCH  22  23
ATOM     23  O   UNL     1     -35.600  22.815   3.911  0.00  0.00    -0.418 OA
BRANCH  23  24
ATOM     24  C   UNL     1     -35.467  21.605   4.664  0.00  0.00    +0.212 C 
ATOM     25  C   UNL     1     -35.088  21.950   6.088  0.00  0.00    +0.051 C 
ENDBRANCH  23  24
ENDBRANCH  22  23
ENDBRANCH  20  22
ENDBRANCH   4  20
TORSDOF 9
ENDMDL
MODEL 4
REMARK VINA RESULT:      -5.5      5.423      7.353
REMARK  Name = 57349732
REMARK  9 active torsions:
REMARK  status: ('A' for Active; 'I' for Inactive)
REMARK    1  A    between atoms: C_4  and  O_20
REMARK    2  A    between atoms: C_5  and  C_12
REMARK    3  A    between atoms: N_11  and  C_12
REMARK    4  A    between atoms: N_11  and  N_13
REMARK    5  A    between atoms: N_13  and  C_16
REMARK    6  A    between atoms: C_16  and  N_17
REMARK    7  A    between atoms: O_20  and  C_22
REMARK    8  A    between atoms: C_22  and  O_23
REMARK    9  A    between atoms: O_23  and  C_24
REMARK                            x       y       z     vdW  Elec       q    Type
REMARK                         _______ _______ _______ _____ _____    ______ ____
ROOT
ATOM      1  N   UNL     1     -36.075  22.203   1.227  0.00  0.00    -0.247 NA
ATOM      2  C   UNL     1     -35.934  23.412   3.766  0.00  0.00    +0.038 C 
ATOM      3  C   UNL     1     -35.538  22.069   3.595  0.00  0.00    +0.018 C 
ATOM      4  C   UNL     1     -35.854  23.992   5.043  0.00  0.00    +0.152 C 
ATOM      5  C   UNL     1     -35.632  21.528   2.311  0.00  0.00    +0.079 C 
ATOM      6  C   UNL     1     -35.073  21.333   4.697  0.00  0.00    +0.001 C 
ATOM      7  C   UNL     1     -36.395  24.129   2.655  0.00  0.00    +0.024 C 
ATOM      8  C   UNL     1     -35.389  23.250   6.130  0.00  0.00    +0.038 C 
ATOM      9  C   UNL     1     -35.000  21.924   5.958  0.00  0.00    +0.003 C 
ATOM     10  C   UNL     1     -36.445  23.486   1.428  0.00  0.00    +0.099 C 
ENDROOT
BRANCH   5  11
ATOM     11  C   UNL     1     -35.250  20.151   2.017  0.00  0.00    +0.157 C 
BRANCH  11  12
ATOM     12  N   UNL     1     -35.581  19.557   0.908  0.00  0.00    -0.126 NA
BRANCH  12  13
ATOM     13  N   UNL     1     -36.803  18.973   0.926  0.00  0.00    -0.244 N 
ATOM     14  H   UNL     1     -36.996  18.270   1.588  0.00  0.00    +0.170 HD
BRANCH  13  16
ATOM     15  S   UNL     1     -37.916  18.624  -1.466  0.00  0.00    -0.018 S 
ATOM     16  C   UNL     1     -37.777  19.349   0.035  0.00  0.00    +0.143 C 
BRANCH  16  17
ATOM     17  N   UNL     1     -38.630  20.343   0.431  0.00  0.00    -0.340 N 
ATOM     18  H   UNL     1     -38.958  21.001  -0.224  0.00  0.00    +0.144 HD
ATOM     19  H   UNL     1     -38.916  20.401   1.372  0.00  0.00    +0.144 HD
ENDBRANCH  16  17
ENDBRANCH  13  16
ENDBRANCH  12  13
ENDBRANCH  11  12
ENDBRANCH   5  11
BRANCH   4  20
ATOM     20  O   UNL     1     -36.225  25.287   5.258  0.00  0.00    -0.394 OA
BRANCH  20  22
ATOM     21  O   UNL     1     -34.346  26.278   6.223  0.00  0.00    -0.202 OA
ATOM     22  C   UNL     1     -35.155  26.191   5.308  0.00  0.00    +0.516 C 
BRANCH  22  23
ATOM     23  O   UNL     1     -35.166  26.951   4.177  0.00  0.00    -0.418 OA
BRANCH  23  24
ATOM     24  C   UNL     1     -33.879  27.265   3.632  0.00  0.00    +0.212 C 
ATOM     25  C   UNL     1     -33.322  26.037   2.946  0.00  0.00    +0.051 C 
ENDBRANCH  23  24
ENDBRANCH  22  23
ENDBRANCH  20  22
ENDBRANCH   4  20
TORSDOF 9
ENDMDL
MODEL 5
REMARK VINA RESULT:      -5.4      4.649      6.787
REMARK  Name = 57349732
REMARK  9 active torsions:
REMARK  status: ('A' for Active; 'I' for Inactive)
REMARK    1  A    between atoms: C_4  and  O_20
REMARK    2  A    between atoms: C_5  and  C_12
REMARK    3  A    between atoms: N_11  and  C_12
REMARK    4  A    between atoms: N_11  and  N_13
REMARK    5  A    between atoms: N_13  and  C_16
REMARK    6  A    between atoms: C_16  and  N_17
REMARK    7  A    between atoms: O_20  and  C_22
REMARK    8  A    between atoms: C_22  and  O_23
REMARK    9  A    between atoms: O_23  and  C_24
REMARK                            x       y       z     vdW  Elec       q    Type
REMARK                         _______ _______ _______ _____ _____    ______ ____
ROOT
ATOM      1  N   UNL     1     -35.131  25.665   2.893  0.00  0.00    -0.247 NA
ATOM      2  C   UNL     1     -33.317  27.400   4.168  0.00  0.00    +0.038 C 
ATOM      3  C   UNL     1     -33.959  26.380   4.900  0.00  0.00    +0.018 C 
ATOM      4  C   UNL     1     -32.416  28.252   4.827  0.00  0.00    +0.152 C 
ATOM      5  C   UNL     1     -34.848  25.554   4.211  0.00  0.00    +0.079 C 
ATOM      6  C   UNL     1     -33.693  26.232   6.272  0.00  0.00    +0.001 C 
ATOM      7  C   UNL     1     -33.596  27.531   2.802  0.00  0.00    +0.024 C 
ATOM      8  C   UNL     1     -32.159  28.095   6.190  0.00  0.00    +0.038 C 
ATOM      9  C   UNL     1     -32.796  27.088   6.911  0.00  0.00    +0.003 C 
ATOM     10  C   UNL     1     -34.497  26.651   2.224  0.00  0.00    +0.099 C 
ENDROOT
BRANCH   5  11
ATOM     11  C   UNL     1     -35.569  24.466   4.865  0.00  0.00    +0.157 C 
BRANCH  11  12
ATOM     12  N   UNL     1     -36.709  24.020   4.426  0.00  0.00    -0.126 NA
BRANCH  12  13
ATOM     13  N   UNL     1     -37.672  24.965   4.303  0.00  0.00    -0.244 N 
ATOM     14  H   UNL     1     -37.631  25.776   4.861  0.00  0.00    +0.170 HD
BRANCH  13  16
ATOM     15  S   UNL     1     -38.425  24.396   1.814  0.00  0.00    -0.018 S 
ATOM     16  C   UNL     1     -38.703  24.809   3.411  0.00  0.00    +0.143 C 
BRANCH  16  17
ATOM     17  N   UNL     1     -39.971  25.005   3.888  0.00  0.00    -0.340 N 
ATOM     18  H   UNL     1     -40.304  24.464   4.640  0.00  0.00    +0.144 HD
ATOM     19  H   UNL     1     -40.551  25.688   3.479  0.00  0.00    +0.144 HD
ENDBRANCH  16  17
ENDBRANCH  13  16
ENDBRANCH  12  13
ENDBRANCH  11  12
ENDBRANCH   5  11
BRANCH   4  20
ATOM     20  O   UNL     1     -31.769  29.252   4.161  0.00  0.00    -0.394 OA
BRANCH  20  22
ATOM     21  O   UNL     1     -31.265  31.343   5.064  0.00  0.00    -0.202 OA
ATOM     22  C   UNL     1     -32.075  30.540   4.619  0.00  0.00    +0.516 C 
BRANCH  22  23
ATOM     23  O   UNL     1     -33.416  30.749   4.488  0.00  0.00    -0.418 OA
BRANCH  23  24
ATOM     24  C   UNL     1     -33.842  31.244   3.214  0.00  0.00    +0.212 C 
ATOM     25  C   UNL     1     -35.292  30.869   3.000  0.00  0.00    +0.051 C 
ENDBRANCH  23  24
ENDBRANCH  22  23
ENDBRANCH  20  22
ENDBRANCH   4  20
TORSDOF 9
ENDMDL
MODEL 6
REMARK VINA RESULT:      -5.4      5.121      7.031
REMARK  Name = 57349732
REMARK  9 active torsions:
REMARK  status: ('A' for Active; 'I' for Inactive)
REMARK    1  A    between atoms: C_4  and  O_20
REMARK    2  A    between atoms: C_5  and  C_12
REMARK    3  A    between atoms: N_11  and  C_12
REMARK    4  A    between atoms: N_11  and  N_13
REMARK    5  A    between atoms: N_13  and  C_16
REMARK    6  A    between atoms: C_16  and  N_17
REMARK    7  A    between atoms: O_20  and  C_22
REMARK    8  A    between atoms: C_22  and  O_23
REMARK    9  A    between atoms: O_23  and  C_24
REMARK                            x       y       z     vdW  Elec       q    Type
REMARK                         _______ _______ _______ _____ _____    ______ ____
ROOT
ATOM      1  N   UNL     1     -36.628  22.580   1.334  0.00  0.00    -0.247 NA
ATOM      2  C   UNL     1     -35.790  23.690   3.782  0.00  0.00    +0.038 C 
ATOM      3  C   UNL     1     -35.850  22.290   3.620  0.00  0.00    +0.018 C 
ATOM      4  C   UNL     1     -35.369  24.219   5.013  0.00  0.00    +0.152 C 
ATOM      5  C   UNL     1     -36.274  21.803   2.383  0.00  0.00    +0.079 C 
ATOM      6  C   UNL     1     -35.491  21.448   4.686  0.00  0.00    +0.001 C 
ATOM      7  C   UNL     1     -36.152  24.513   2.708  0.00  0.00    +0.024 C 
ATOM      8  C   UNL     1     -35.014  23.372   6.065  0.00  0.00    +0.038 C 
ATOM      9  C   UNL     1     -35.075  21.990   5.902  0.00  0.00    +0.003 C 
ATOM     10  C   UNL     1     -36.558  23.915   1.526  0.00  0.00    +0.099 C 
ENDROOT
BRANCH   5  11
ATOM     11  C   UNL     1     -36.374  20.374   2.101  0.00  0.00    +0.157 C 
BRANCH  11  12
ATOM     12  N   UNL     1     -35.590  19.773   1.254  0.00  0.00    -0.126 NA
BRANCH  12  13
ATOM     13  N   UNL     1     -34.365  19.464   1.743  0.00  0.00    -0.244 N 
ATOM     14  H   UNL     1     -34.114  19.763   2.647  0.00  0.00    +0.170 HD
BRANCH  13  16
ATOM     15  S   UNL     1     -32.021  19.402   0.486  0.00  0.00    -0.018 S 
ATOM     16  C   UNL     1     -33.470  18.741   0.997  0.00  0.00    +0.143 C 
BRANCH  16  17
ATOM     17  N   UNL     1     -33.816  17.453   0.689  0.00  0.00    -0.340 N 
ATOM     18  H   UNL     1     -34.662  17.268   0.222  0.00  0.00    +0.144 HD
ATOM     19  H   UNL     1     -33.217  16.710   0.936  0.00  0.00    +0.144 HD
ENDBRANCH  16  17
ENDBRANCH  13  16
ENDBRANCH  12  13
ENDBRANCH  11  12
ENDBRANCH   5  11
BRANCH   4  20
ATOM     20  O   UNL     1     -35.294  25.566   5.218  0.00  0.00    -0.394 OA
BRANCH  20  22
ATOM     21  O   UNL     1     -33.675  26.645   6.506  0.00  0.00    -0.202 OA
ATOM     22  C   UNL     1     -34.003  26.034   5.497  0.00  0.00    +0.516 C 
BRANCH  22  23
ATOM     23  O   UNL     1     -33.179  25.698   4.464  0.00  0.00    -0.418 OA
BRANCH  23  24
ATOM     24  C   UNL     1     -33.137  26.632   3.379  0.00  0.00    +0.212 C 
ATOM     25  C   UNL     1     -32.721  25.904   2.119  0.00  0.00    +0.051 C 
ENDBRANCH  23  24
ENDBRANCH  22  23
ENDBRANCH  20  22
ENDBRANCH   4  20
TORSDOF 9
ENDMDL
MODEL 7
REMARK VINA RESULT:      -5.4      2.071      3.823
REMARK  Name = 57349732
REMARK  9 active torsions:
REMARK  status: ('A' for Active; 'I' for Inactive)
REMARK    1  A    between atoms: C_4  and  O_20
REMARK    2  A    between atoms: C_5  and  C_12
REMARK    3  A    between atoms: N_11  and  C_12
REMARK    4  A    between atoms: N_11  and  N_13
REMARK    5  A    between atoms: N_13  and  C_16
REMARK    6  A    between atoms: C_16  and  N_17
REMARK    7  A    between atoms: O_20  and  C_22
REMARK    8  A    between atoms: C_22  and  O_23
REMARK    9  A    between atoms: O_23  and  C_24
REMARK                            x       y       z     vdW  Elec       q    Type
REMARK                         _______ _______ _______ _____ _____    ______ ____
ROOT
ATOM      1  N   UNL     1     -32.588  27.517   5.699  0.00  0.00    -0.247 NA
ATOM      2  C   UNL     1     -34.751  26.246   4.421  0.00  0.00    +0.038 C 
ATOM      3  C   UNL     1     -33.935  27.148   3.708  0.00  0.00    +0.018 C 
ATOM      4  C   UNL     1     -35.824  25.625   3.761  0.00  0.00    +0.152 C 
ATOM      5  C   UNL     1     -32.879  27.746   4.398  0.00  0.00    +0.079 C 
ATOM      6  C   UNL     1     -34.205  27.414   2.355  0.00  0.00    +0.001 C 
ATOM      7  C   UNL     1     -34.466  25.995   5.769  0.00  0.00    +0.024 C 
ATOM      8  C   UNL     1     -36.082  25.897   2.416  0.00  0.00    +0.038 C 
ATOM      9  C   UNL     1     -35.275  26.789   1.715  0.00  0.00    +0.003 C 
ATOM     10  C   UNL     1     -33.390  26.648   6.350  0.00  0.00    +0.099 C 
ENDROOT
BRANCH   5  11
ATOM     11  C   UNL     1     -31.970  28.693   3.762  0.00  0.00    +0.157 C 
BRANCH  11  12
ATOM     12  N   UNL     1     -32.011  29.971   4.005  0.00  0.00    -0.126 NA
BRANCH  12  13
ATOM     13  N   UNL     1     -33.226  30.430   4.389  0.00  0.00    -0.244 N 
ATOM     14  H   UNL     1     -33.513  30.321   5.325  0.00  0.00    +0.170 HD
BRANCH  13  16
ATOM     15  S   UNL     1     -33.497  32.182   2.405  0.00  0.00    -0.018 S 
ATOM     16  C   UNL     1     -34.063  31.045   3.493  0.00  0.00    +0.143 C 
BRANCH  16  17
ATOM     17  N   UNL     1     -35.384  30.686   3.529  0.00  0.00    -0.340 N 
ATOM     18  H   UNL     1     -36.024  31.213   4.059  0.00  0.00    +0.144 HD
ATOM     19  H   UNL     1     -35.693  29.898   3.024  0.00  0.00    +0.144 HD
ENDBRANCH  16  17
ENDBRANCH  13  16
ENDBRANCH  12  13
ENDBRANCH  11  12
ENDBRANCH   5  11
BRANCH   4  20
ATOM     20  O   UNL     1     -36.642  24.745   4.408  0.00  0.00    -0.394 OA
BRANCH  20  22
ATOM     21  O   UNL     1     -37.534  22.870   3.345  0.00  0.00    -0.202 OA
ATOM     22  C   UNL     1     -36.602  23.441   3.897  0.00  0.00    +0.516 C 
BRANCH  22  23
ATOM     23  O   UNL     1     -35.362  22.918   4.115  0.00  0.00    -0.418 OA
BRANCH  23  24
ATOM     24  C   UNL     1     -35.323  21.740   4.927  0.00  0.00    +0.212 C 
ATOM     25  C   UNL     1     -35.281  22.148   6.384  0.00  0.00    +0.051 C 
ENDBRANCH  23  24
ENDBRANCH  22  23
ENDBRANCH  20  22
ENDBRANCH   4  20
TORSDOF 9
ENDMDL
MODEL 8
REMARK VINA RESULT:      -5.4      2.427      3.583
REMARK  Name = 57349732
REMARK  9 active torsions:
REMARK  status: ('A' for Active; 'I' for Inactive)
REMARK    1  A    between atoms: C_4  and  O_20
REMARK    2  A    between atoms: C_5  and  C_12
REMARK    3  A    between atoms: N_11  and  C_12
REMARK    4  A    between atoms: N_11  and  N_13
REMARK    5  A    between atoms: N_13  and  C_16
REMARK    6  A    between atoms: C_16  and  N_17
REMARK    7  A    between atoms: O_20  and  C_22
REMARK    8  A    between atoms: C_22  and  O_23
REMARK    9  A    between atoms: O_23  and  C_24
REMARK                            x       y       z     vdW  Elec       q    Type
REMARK                         _______ _______ _______ _____ _____    ______ ____
ROOT
ATOM      1  N   UNL     1     -34.657  26.367   3.724  0.00  0.00    -0.247 NA
ATOM      2  C   UNL     1     -35.275  23.634   3.449  0.00  0.00    +0.038 C 
ATOM      3  C   UNL     1     -34.890  24.153   4.702  0.00  0.00    +0.018 C 
ATOM      4  C   UNL     1     -35.578  22.267   3.338  0.00  0.00    +0.152 C 
ATOM      5  C   UNL     1     -34.596  25.516   4.773  0.00  0.00    +0.079 C 
ATOM      6  C   UNL     1     -34.813  23.301   5.817  0.00  0.00    +0.001 C 
ATOM      7  C   UNL     1     -35.345  24.499   2.350  0.00  0.00    +0.024 C 
ATOM      8  C   UNL     1     -35.499  21.431   4.453  0.00  0.00    +0.038 C 
ATOM      9  C   UNL     1     -35.118  21.946   5.689  0.00  0.00    +0.003 C 
ATOM     10  C   UNL     1     -35.030  25.835   2.540  0.00  0.00    +0.099 C 
ENDROOT
BRANCH   5  11
ATOM     11  C   UNL     1     -34.188  26.162   6.016  0.00  0.00    +0.157 C 
BRANCH  11  12
ATOM     12  N   UNL     1     -32.998  26.660   6.186  0.00  0.00    -0.126 NA
BRANCH  12  13
ATOM     13  N   UNL     1     -32.820  27.887   5.641  0.00  0.00    -0.244 N 
ATOM     14  H   UNL     1     -33.427  28.196   4.929  0.00  0.00    +0.170 HD
BRANCH  13  16
ATOM     15  S   UNL     1     -31.814  30.349   5.746  0.00  0.00    -0.018 S 
ATOM     16  C   UNL     1     -31.806  28.708   6.067  0.00  0.00    +0.143 C 
BRANCH  16  17
ATOM     17  N   UNL     1     -30.787  28.121   6.768  0.00  0.00    -0.340 N 
ATOM     18  H   UNL     1     -30.574  28.430   7.678  0.00  0.00    +0.144 HD
ATOM     19  H   UNL     1     -30.267  27.390   6.361  0.00  0.00    +0.144 HD
ENDBRANCH  16  17
ENDBRANCH  13  16
ENDBRANCH  12  13
ENDBRANCH  11  12
ENDBRANCH   5  11
BRANCH   4  20
ATOM     20  O   UNL     1     -35.957  21.719   2.147  0.00  0.00    -0.394 OA
BRANCH  20  22
ATOM     21  O   UNL     1     -34.012  21.674   0.859  0.00  0.00    -0.202 OA
ATOM     22  C   UNL     1     -34.918  21.094   1.445  0.00  0.00    +0.516 C 
BRANCH  22  23
ATOM     23  O   UNL     1     -35.082  19.743   1.523  0.00  0.00    -0.418 OA
BRANCH  23  24
ATOM     24  C   UNL     1     -34.238  18.968   0.664  0.00  0.00    +0.212 C 
ATOM     25  C   UNL     1     -33.057  18.460   1.463  0.00  0.00    +0.051 C 
ENDBRANCH  23  24
ENDBRANCH  22  23
ENDBRANCH  20  22
ENDBRANCH   4  20
TORSDOF 9
ENDMDL
MODEL 9
REMARK VINA RESULT:      -5.3      4.859      7.390
REMARK  Name = 57349732
REMARK  9 active torsions:
REMARK  status: ('A' for Active; 'I' for Inactive)
REMARK    1  A    between atoms: C_4  and  O_20
REMARK    2  A    between atoms: C_5  and  C_12
REMARK    3  A    between atoms: N_11  and  C_12
REMARK    4  A    between atoms: N_11  and  N_13
REMARK    5  A    between atoms: N_13  and  C_16
REMARK    6  A    between atoms: C_16  and  N_17
REMARK    7  A    between atoms: O_20  and  C_22
REMARK    8  A    between atoms: C_22  and  O_23
REMARK    9  A    between atoms: O_23  and  C_24
REMARK                            x       y       z     vdW  Elec       q    Type
REMARK                         _______ _______ _______ _____ _____    ______ ____
ROOT
ATOM      1  N   UNL     1     -36.384  22.583   4.521  0.00  0.00    -0.247 NA
ATOM      2  C   UNL     1     -35.354  25.198   4.357  0.00  0.00    +0.038 C 
ATOM      3  C   UNL     1     -36.365  24.776   3.469  0.00  0.00    +0.018 C 
ATOM      4  C   UNL     1     -34.856  26.508   4.254  0.00  0.00    +0.152 C 
ATOM      5  C   UNL     1     -36.834  23.468   3.602  0.00  0.00    +0.079 C 
ATOM      6  C   UNL     1     -36.858  25.665   2.499  0.00  0.00    +0.001 C 
ATOM      7  C   UNL     1     -34.875  24.298   5.316  0.00  0.00    +0.024 C 
ATOM      8  C   UNL     1     -35.355  27.382   3.286  0.00  0.00    +0.038 C 
ATOM      9  C   UNL     1     -36.353  26.962   2.411  0.00  0.00    +0.003 C 
ATOM     10  C   UNL     1     -35.416  23.023   5.353  0.00  0.00    +0.099 C 
ENDROOT
BRANCH   5  11
ATOM     11  C   UNL     1     -37.878  22.923   2.740  0.00  0.00    +0.157 C 
BRANCH  11  12
ATOM     12  N   UNL     1     -37.628  22.054   1.805  0.00  0.00    -0.126 NA
BRANCH  12  13
ATOM     13  N   UNL     1     -37.325  20.813   2.258  0.00  0.00    -0.244 N 
ATOM     14  H   UNL     1     -37.915  20.379   2.915  0.00  0.00    +0.170 HD
BRANCH  13  16
ATOM     15  S   UNL     1     -36.233  19.233   0.416  0.00  0.00    -0.018 S 
ATOM     16  C   UNL     1     -36.208  20.153   1.812  0.00  0.00    +0.143 C 
BRANCH  16  17
ATOM     17  N   UNL     1     -35.070  20.284   2.562  0.00  0.00    -0.340 N 
ATOM     18  H   UNL     1     -34.626  21.159   2.636  0.00  0.00    +0.144 HD
ATOM     19  H   UNL     1     -34.695  19.501   3.028  0.00  0.00    +0.144 HD
ENDBRANCH  16  17
ENDBRANCH  13  16
ENDBRANCH  12  13
ENDBRANCH  11  12
ENDBRANCH   5  11
BRANCH   4  20
ATOM     20  O   UNL     1     -33.879  26.963   5.091  0.00  0.00    -0.394 OA
BRANCH  20  22
ATOM     21  O   UNL     1     -32.010  26.998   3.694  0.00  0.00    -0.202 OA
ATOM     22  C   UNL     1     -32.799  27.570   4.437  0.00  0.00    +0.516 C 
BRANCH  22  23
ATOM     23  O   UNL     1     -32.772  28.893   4.762  0.00  0.00    -0.418 OA
BRANCH  23  24
ATOM     24  C   UNL     1     -31.538  29.369   5.312  0.00  0.00    +0.212 C 
ATOM     25  C   UNL     1     -31.652  29.403   6.820  0.00  0.00    +0.051 C 
ENDBRANCH  23  24
ENDBRANCH  22  23
ENDBRANCH  20  22
ENDBRANCH   4  20
TORSDOF 9
ENDMDL
