MODEL 1
REMARK VINA RESULT:      -5.5      0.000      0.000
REMARK  Name = 515708
REMARK  6 active torsions:
REMARK  status: ('A' for Active; 'I' for Inactive)
REMARK    1  A    between atoms: C_3  and  N_7
REMARK    2  A    between atoms: C_4  and  C_16
REMARK    3  A    between atoms: C_16  and  O_17
REMARK    4  A    between atoms: O_17  and  P_18
REMARK    5  A    between atoms: P_18  and  O_20
REMARK    6  A    between atoms: P_18  and  O_22
REMARK                            x       y       z     vdW  Elec       q    Type
REMARK                         _______ _______ _______ _____ _____    ______ ____
ROOT
ATOM      1  S   UNL     1     -34.109  28.419   2.713  0.00  0.00    -0.105 S 
ATOM      2  O   UNL     1     -32.897  26.236   3.606  0.00  0.00    -0.325 OA
ATOM      3  C   UNL     1     -34.179  25.848   3.097  0.00  0.00    +0.218 C 
ATOM      4  C   UNL     1     -32.573  27.519   3.055  0.00  0.00    +0.195 C 
ATOM      5  C   UNL     1     -35.123  27.032   3.250  0.00  0.00    +0.112 C 
ENDROOT
BRANCH   3   7
ATOM      6  O   UNL     1     -34.982  23.424   1.938  0.00  0.00    -0.193 OA
ATOM      7  N   UNL     1     -34.638  24.700   3.827  0.00  0.00    -0.179 N 
ATOM      8  N   UNL     1     -35.455  22.452   3.934  0.00  0.00    -0.306 NA
ATOM      9  N   UNL     1     -35.940  21.464   5.982  0.00  0.00    -0.332 N 
ATOM     10  C   UNL     1     -34.693  24.789   5.200  0.00  0.00    +0.083 C 
ATOM     11  C   UNL     1     -35.022  23.520   3.166  0.00  0.00    +0.275 C 
ATOM     12  C   UNL     1     -35.107  23.774   5.956  0.00  0.00    +0.065 C 
ATOM     13  C   UNL     1     -35.506  22.536   5.237  0.00  0.00    +0.193 C 
ATOM     14  H   UNL     1     -36.211  20.630   5.534  0.00  0.00    +0.145 HD
ATOM     15  H   UNL     1     -35.978  21.529   6.963  0.00  0.00    +0.145 HD
ENDBRANCH   3   7
BRANCH   4  16
ATOM     16  C   UNL     1     -31.702  28.270   4.044  0.00  0.00    +0.194 C 
BRANCH  16  17
ATOM     17  O   UNL     1     -32.473  28.574   5.195  0.00  0.00    -0.270 OA
BRANCH  17  18
ATOM     18  P   UNL     1     -31.781  28.415   6.650  0.00  0.00    +0.473 P 
ATOM     19  O   UNL     1     -31.660  29.688   7.436  0.00  0.00    -0.227 OA
BRANCH  18  20
ATOM     20  O   UNL     1     -30.385  27.664   6.332  0.00  0.00    -0.303 OA
ATOM     21  H   UNL     1     -30.362  26.813   6.796  0.00  0.00    +0.222 HD
ENDBRANCH  18  20
BRANCH  18  22
ATOM     22  O   UNL     1     -32.673  27.263   7.350  0.00  0.00    -0.303 OA
ATOM     23  H   UNL     1     -33.609  27.402   7.134  0.00  0.00    +0.222 HD
ENDBRANCH  18  22
ENDBRANCH  17  18
ENDBRANCH  16  17
ENDBRANCH   4  16
TORSDOF 6
ENDMDL
MODEL 2
REMARK VINA RESULT:      -5.5      4.433      5.693
REMARK  Name = 515708
REMARK  6 active torsions:
REMARK  status: ('A' for Active; 'I' for Inactive)
REMARK    1  A    between atoms: C_3  and  N_7
REMARK    2  A    between atoms: C_4  and  C_16
REMARK    3  A    between atoms: C_16  and  O_17
REMARK    4  A    between atoms: O_17  and  P_18
REMARK    5  A    between atoms: P_18  and  O_20
REMARK    6  A    between atoms: P_18  and  O_22
REMARK                            x       y       z     vdW  Elec       q    Type
REMARK                         _______ _______ _______ _____ _____    ______ ____
ROOT
ATOM      1  S   UNL     1     -35.263  22.076   2.536  0.00  0.00    -0.105 S 
ATOM      2  O   UNL     1     -37.130  23.202   4.045  0.00  0.00    -0.325 OA
ATOM      3  C   UNL     1     -37.742  22.812   2.810  0.00  0.00    +0.218 C 
ATOM      4  C   UNL     1     -35.907  22.467   4.185  0.00  0.00    +0.195 C 
ATOM      5  C   UNL     1     -36.675  22.845   1.726  0.00  0.00    +0.112 C 
ENDROOT
BRANCH   3   7
ATOM      6  O   UNL     1     -40.159  22.081   1.591  0.00  0.00    -0.193 OA
ATOM      7  N   UNL     1     -38.823  23.712   2.525  0.00  0.00    -0.179 N 
ATOM      8  N   UNL     1     -41.006  24.187   1.664  0.00  0.00    -0.306 NA
ATOM      9  N   UNL     1     -41.866  26.346   1.740  0.00  0.00    -0.332 N 
ATOM     10  C   UNL     1     -38.668  25.035   2.871  0.00  0.00    +0.083 C 
ATOM     11  C   UNL     1     -40.005  23.262   1.910  0.00  0.00    +0.275 C 
ATOM     12  C   UNL     1     -39.618  25.940   2.642  0.00  0.00    +0.065 C 
ATOM     13  C   UNL     1     -40.859  25.443   1.993  0.00  0.00    +0.193 C 
ATOM     14  H   UNL     1     -42.700  26.046   1.311  0.00  0.00    +0.145 HD
ATOM     15  H   UNL     1     -41.753  27.291   1.988  0.00  0.00    +0.145 HD
ENDBRANCH   3   7
BRANCH   4  16
ATOM     16  C   UNL     1     -34.921  23.303   4.979  0.00  0.00    +0.194 C 
BRANCH  16  17
ATOM     17  O   UNL     1     -35.626  24.350   5.626  0.00  0.00    -0.270 OA
BRANCH  17  18
ATOM     18  P   UNL     1     -35.311  25.876   5.188  0.00  0.00    +0.473 P 
ATOM     19  O   UNL     1     -34.126  26.499   5.867  0.00  0.00    -0.227 OA
BRANCH  18  20
ATOM     20  O   UNL     1     -36.718  26.640   5.415  0.00  0.00    -0.303 OA
ATOM     21  H   UNL     1     -36.897  27.219   4.658  0.00  0.00    +0.222 HD
ENDBRANCH  18  20
BRANCH  18  22
ATOM     22  O   UNL     1     -35.198  25.772   3.579  0.00  0.00    -0.303 OA
ATOM     23  H   UNL     1     -35.860  26.352   3.170  0.00  0.00    +0.222 HD
ENDBRANCH  18  22
ENDBRANCH  17  18
ENDBRANCH  16  17
ENDBRANCH   4  16
TORSDOF 6
ENDMDL
MODEL 3
REMARK VINA RESULT:      -5.4      1.225      1.656
REMARK  Name = 515708
REMARK  6 active torsions:
REMARK  status: ('A' for Active; 'I' for Inactive)
REMARK    1  A    between atoms: C_3  and  N_7
REMARK    2  A    between atoms: C_4  and  C_16
REMARK    3  A    between atoms: C_16  and  O_17
REMARK    4  A    between atoms: O_17  and  P_18
REMARK    5  A    between atoms: P_18  and  O_20
REMARK    6  A    between atoms: P_18  and  O_22
REMARK                            x       y       z     vdW  Elec       q    Type
REMARK                         _______ _______ _______ _____ _____    ______ ____
ROOT
ATOM      1  S   UNL     1     -34.002  28.399   2.590  0.00  0.00    -0.105 S 
ATOM      2  O   UNL     1     -32.835  26.178   3.447  0.00  0.00    -0.325 OA
ATOM      3  C   UNL     1     -34.179  25.851   3.076  0.00  0.00    +0.218 C 
ATOM      4  C   UNL     1     -32.493  27.421   2.820  0.00  0.00    +0.195 C 
ATOM      5  C   UNL     1     -35.036  27.093   3.272  0.00  0.00    +0.112 C 
ENDROOT
BRANCH   3   7
ATOM      6  O   UNL     1     -34.272  25.865   5.878  0.00  0.00    -0.193 OA
ATOM      7  N   UNL     1     -34.630  24.756   3.889  0.00  0.00    -0.179 N 
ATOM      8  N   UNL     1     -35.093  23.752   6.011  0.00  0.00    -0.306 NA
ATOM      9  N   UNL     1     -35.930  21.586   6.141  0.00  0.00    -0.332 N 
ATOM     10  C   UNL     1     -35.047  23.610   3.251  0.00  0.00    +0.083 C 
ATOM     11  C   UNL     1     -34.645  24.847   5.292  0.00  0.00    +0.275 C 
ATOM     12  C   UNL     1     -35.480  22.546   3.925  0.00  0.00    +0.065 C 
ATOM     13  C   UNL     1     -35.490  22.664   5.407  0.00  0.00    +0.193 C 
ATOM     14  H   UNL     1     -35.948  21.635   7.124  0.00  0.00    +0.145 HD
ATOM     15  H   UNL     1     -36.228  20.768   5.684  0.00  0.00    +0.145 HD
ENDBRANCH   3   7
BRANCH   4  16
ATOM     16  C   UNL     1     -31.491  28.151   3.694  0.00  0.00    +0.194 C 
BRANCH  16  17
ATOM     17  O   UNL     1     -31.477  27.547   4.977  0.00  0.00    -0.270 OA
BRANCH  17  18
ATOM     18  P   UNL     1     -31.680  28.492   6.276  0.00  0.00    +0.473 P 
ATOM     19  O   UNL     1     -32.312  29.825   5.996  0.00  0.00    -0.227 OA
BRANCH  18  20
ATOM     20  O   UNL     1     -30.208  28.551   6.943  0.00  0.00    -0.303 OA
ATOM     21  H   UNL     1     -30.286  28.805   7.876  0.00  0.00    +0.222 HD
ENDBRANCH  18  20
BRANCH  18  22
ATOM     22  O   UNL     1     -32.510  27.542   7.286  0.00  0.00    -0.303 OA
ATOM     23  H   UNL     1     -32.746  28.044   8.083  0.00  0.00    +0.222 HD
ENDBRANCH  18  22
ENDBRANCH  17  18
ENDBRANCH  16  17
ENDBRANCH   4  16
TORSDOF 6
ENDMDL
MODEL 4
REMARK VINA RESULT:      -5.4      4.650      7.192
REMARK  Name = 515708
REMARK  6 active torsions:
REMARK  status: ('A' for Active; 'I' for Inactive)
REMARK    1  A    between atoms: C_3  and  N_7
REMARK    2  A    between atoms: C_4  and  C_16
REMARK    3  A    between atoms: C_16  and  O_17
REMARK    4  A    between atoms: O_17  and  P_18
REMARK    5  A    between atoms: P_18  and  O_20
REMARK    6  A    between atoms: P_18  and  O_22
REMARK                            x       y       z     vdW  Elec       q    Type
REMARK                         _______ _______ _______ _____ _____    ______ ____
ROOT
ATOM      1  S   UNL     1     -38.276  25.979   0.970  0.00  0.00    -0.105 S 
ATOM      2  O   UNL     1     -38.791  24.473   3.092  0.00  0.00    -0.325 OA
ATOM      3  C   UNL     1     -37.472  25.010   3.246  0.00  0.00    +0.218 C 
ATOM      4  C   UNL     1     -39.484  25.273   2.124  0.00  0.00    +0.195 C 
ATOM      5  C   UNL     1     -36.894  25.242   1.858  0.00  0.00    +0.112 C 
ENDROOT
BRANCH   3   7
ATOM      6  O   UNL     1     -36.218  25.597   5.685  0.00  0.00    -0.193 OA
ATOM      7  N   UNL     1     -36.682  24.085   4.007  0.00  0.00    -0.179 N 
ATOM      8  N   UNL     1     -35.338  23.516   5.905  0.00  0.00    -0.306 NA
ATOM      9  N   UNL     1     -34.437  21.383   6.123  0.00  0.00    -0.332 N 
ATOM     10  C   UNL     1     -36.522  22.812   3.508  0.00  0.00    +0.083 C 
ATOM     11  C   UNL     1     -36.087  24.462   5.225  0.00  0.00    +0.275 C 
ATOM     12  C   UNL     1     -35.806  21.889   4.147  0.00  0.00    +0.065 C 
ATOM     13  C   UNL     1     -35.186  22.308   5.432  0.00  0.00    +0.193 C 
ATOM     14  H   UNL     1     -34.016  21.632   6.978  0.00  0.00    +0.145 HD
ATOM     15  H   UNL     1     -34.324  20.474   5.765  0.00  0.00    +0.145 HD
ENDBRANCH   3   7
BRANCH   4  16
ATOM     16  C   UNL     1     -40.493  24.400   1.401  0.00  0.00    +0.194 C 
BRANCH  16  17
ATOM     17  O   UNL     1     -40.438  23.090   1.943  0.00  0.00    -0.270 OA
BRANCH  17  18
ATOM     18  P   UNL     1     -39.679  21.938   1.096  0.00  0.00    +0.473 P 
ATOM     19  O   UNL     1     -38.697  22.441   0.079  0.00  0.00    -0.227 OA
BRANCH  18  20
ATOM     20  O   UNL     1     -40.886  21.038   0.504  0.00  0.00    -0.303 OA
ATOM     21  H   UNL     1     -40.811  20.993  -0.461  0.00  0.00    +0.222 HD
ENDBRANCH  18  20
BRANCH  18  22
ATOM     22  O   UNL     1     -39.046  21.000   2.250  0.00  0.00    -0.303 OA
ATOM     23  H   UNL     1     -39.761  20.591   2.763  0.00  0.00    +0.222 HD
ENDBRANCH  18  22
ENDBRANCH  17  18
ENDBRANCH  16  17
ENDBRANCH   4  16
TORSDOF 6
ENDMDL
MODEL 5
REMARK VINA RESULT:      -5.3      5.069      7.540
REMARK  Name = 515708
REMARK  6 active torsions:
REMARK  status: ('A' for Active; 'I' for Inactive)
REMARK    1  A    between atoms: C_3  and  N_7
REMARK    2  A    between atoms: C_4  and  C_16
REMARK    3  A    between atoms: C_16  and  O_17
REMARK    4  A    between atoms: O_17  and  P_18
REMARK    5  A    between atoms: P_18  and  O_20
REMARK    6  A    between atoms: P_18  and  O_22
REMARK                            x       y       z     vdW  Elec       q    Type
REMARK                         _______ _______ _______ _____ _____    ______ ____
ROOT
ATOM      1  S   UNL     1     -37.417  21.061   1.283  0.00  0.00    -0.105 S 
ATOM      2  O   UNL     1     -35.330  21.355   2.893  0.00  0.00    -0.325 OA
ATOM      3  C   UNL     1     -36.342  22.277   3.315  0.00  0.00    +0.218 C 
ATOM      4  C   UNL     1     -35.958  20.348   2.089  0.00  0.00    +0.195 C 
ATOM      5  C   UNL     1     -37.176  22.649   2.097  0.00  0.00    +0.112 C 
ENDROOT
BRANCH   3   7
ATOM      6  O   UNL     1     -35.952  22.671   6.064  0.00  0.00    -0.193 OA
ATOM      7  N   UNL     1     -35.707  23.425   3.898  0.00  0.00    -0.179 N 
ATOM      8  N   UNL     1     -34.928  24.678   5.783  0.00  0.00    -0.306 NA
ATOM      9  N   UNL     1     -33.883  26.735   5.490  0.00  0.00    -0.332 N 
ATOM     10  C   UNL     1     -35.255  24.411   3.051  0.00  0.00    +0.083 C 
ATOM     11  C   UNL     1     -35.551  23.544   5.291  0.00  0.00    +0.275 C 
ATOM     12  C   UNL     1     -34.655  25.510   3.505  0.00  0.00    +0.065 C 
ATOM     13  C   UNL     1     -34.498  25.615   4.980  0.00  0.00    +0.193 C 
ATOM     14  H   UNL     1     -33.765  26.832   6.462  0.00  0.00    +0.145 HD
ATOM     15  H   UNL     1     -33.561  27.439   4.883  0.00  0.00    +0.145 HD
ENDBRANCH   3   7
BRANCH   4  16
ATOM     16  C   UNL     1     -34.956  19.842   1.068  0.00  0.00    +0.194 C 
BRANCH  16  17
ATOM     17  O   UNL     1     -33.848  19.280   1.753  0.00  0.00    -0.270 OA
BRANCH  17  18
ATOM     18  P   UNL     1     -32.942  18.182   0.983  0.00  0.00    +0.473 P 
ATOM     19  O   UNL     1     -31.748  17.693   1.750  0.00  0.00    -0.227 OA
BRANCH  18  20
ATOM     20  O   UNL     1     -32.611  18.884  -0.436  0.00  0.00    -0.303 OA
ATOM     21  H   UNL     1     -33.218  19.626  -0.579  0.00  0.00    +0.222 HD
ENDBRANCH  18  20
BRANCH  18  22
ATOM     22  O   UNL     1     -34.016  17.040   0.592  0.00  0.00    -0.303 OA
ATOM     23  H   UNL     1     -33.553  16.204   0.420  0.00  0.00    +0.222 HD
ENDBRANCH  18  22
ENDBRANCH  17  18
ENDBRANCH  16  17
ENDBRANCH   4  16
TORSDOF 6
ENDMDL
MODEL 6
REMARK VINA RESULT:      -5.3      5.417      6.829
REMARK  Name = 515708
REMARK  6 active torsions:
REMARK  status: ('A' for Active; 'I' for Inactive)
REMARK    1  A    between atoms: C_3  and  N_7
REMARK    2  A    between atoms: C_4  and  C_16
REMARK    3  A    between atoms: C_16  and  O_17
REMARK    4  A    between atoms: O_17  and  P_18
REMARK    5  A    between atoms: P_18  and  O_20
REMARK    6  A    between atoms: P_18  and  O_22
REMARK                            x       y       z     vdW  Elec       q    Type
REMARK                         _______ _______ _______ _____ _____    ______ ____
ROOT
ATOM      1  S   UNL     1     -38.352  26.140   1.018  0.00  0.00    -0.105 S 
ATOM      2  O   UNL     1     -38.501  25.428   3.568  0.00  0.00    -0.325 OA
ATOM      3  C   UNL     1     -37.128  25.341   3.169  0.00  0.00    +0.218 C 
ATOM      4  C   UNL     1     -39.184  26.264   2.625  0.00  0.00    +0.195 C 
ATOM      5  C   UNL     1     -37.091  25.038   1.678  0.00  0.00    +0.112 C 
ENDROOT
BRANCH   3   7
ATOM      6  O   UNL     1     -36.034  25.699   5.726  0.00  0.00    -0.193 OA
ATOM      7  N   UNL     1     -36.487  24.313   3.940  0.00  0.00    -0.179 N 
ATOM      8  N   UNL     1     -35.359  23.539   5.904  0.00  0.00    -0.306 NA
ATOM      9  N   UNL     1     -34.669  21.325   6.080  0.00  0.00    -0.332 N 
ATOM     10  C   UNL     1     -36.398  23.055   3.389  0.00  0.00    +0.083 C 
ATOM     11  C   UNL     1     -35.964  24.579   5.218  0.00  0.00    +0.275 C 
ATOM     12  C   UNL     1     -35.820  22.043   4.032  0.00  0.00    +0.065 C 
ATOM     13  C   UNL     1     -35.275  22.344   5.382  0.00  0.00    +0.193 C 
ATOM     14  H   UNL     1     -34.299  21.495   6.977  0.00  0.00    +0.145 HD
ATOM     15  H   UNL     1     -34.606  20.427   5.684  0.00  0.00    +0.145 HD
ENDBRANCH   3   7
BRANCH   4  16
ATOM     16  C   UNL     1     -40.631  25.817   2.532  0.00  0.00    +0.194 C 
BRANCH  16  17
ATOM     17  O   UNL     1     -41.312  26.224   3.708  0.00  0.00    -0.270 OA
BRANCH  17  18
ATOM     18  P   UNL     1     -42.236  27.552   3.642  0.00  0.00    +0.473 P 
ATOM     19  O   UNL     1     -41.879  28.623   4.632  0.00  0.00    -0.227 OA
BRANCH  18  20
ATOM     20  O   UNL     1     -43.743  26.978   3.760  0.00  0.00    -0.303 OA
ATOM     21  H   UNL     1     -43.752  26.215   4.358  0.00  0.00    +0.222 HD
ENDBRANCH  18  20
BRANCH  18  22
ATOM     22  O   UNL     1     -42.124  27.992   2.091  0.00  0.00    -0.303 OA
ATOM     23  H   UNL     1     -41.848  27.230   1.557  0.00  0.00    +0.222 HD
ENDBRANCH  18  22
ENDBRANCH  17  18
ENDBRANCH  16  17
ENDBRANCH   4  16
TORSDOF 6
ENDMDL
MODEL 7
REMARK VINA RESULT:      -5.3      3.680      5.705
REMARK  Name = 515708
REMARK  6 active torsions:
REMARK  status: ('A' for Active; 'I' for Inactive)
REMARK    1  A    between atoms: C_3  and  N_7
REMARK    2  A    between atoms: C_4  and  C_16
REMARK    3  A    between atoms: C_16  and  O_17
REMARK    4  A    between atoms: O_17  and  P_18
REMARK    5  A    between atoms: P_18  and  O_20
REMARK    6  A    between atoms: P_18  and  O_22
REMARK                            x       y       z     vdW  Elec       q    Type
REMARK                         _______ _______ _______ _____ _____    ______ ____
ROOT
ATOM      1  S   UNL     1     -35.153  24.643   1.851  0.00  0.00    -0.105 S 
ATOM      2  O   UNL     1     -35.668  26.218   3.920  0.00  0.00    -0.325 OA
ATOM      3  C   UNL     1     -34.452  26.673   3.316  0.00  0.00    +0.218 C 
ATOM      4  C   UNL     1     -36.363  25.410   2.961  0.00  0.00    +0.195 C 
ATOM      5  C   UNL     1     -33.778  25.477   2.659  0.00  0.00    +0.112 C 
ENDROOT
BRANCH   3   7
ATOM      6  O   UNL     1     -32.995  29.050   3.017  0.00  0.00    -0.193 OA
ATOM      7  N   UNL     1     -33.624  27.263   4.331  0.00  0.00    -0.179 N 
ATOM      8  N   UNL     1     -32.147  28.972   5.122  0.00  0.00    -0.306 NA
ATOM      9  N   UNL     1     -31.279  28.884   7.278  0.00  0.00    -0.332 N 
ATOM     10  C   UNL     1     -33.532  26.617   5.543  0.00  0.00    +0.083 C 
ATOM     11  C   UNL     1     -32.926  28.461   4.097  0.00  0.00    +0.275 C 
ATOM     12  C   UNL     1     -32.788  27.092   6.540  0.00  0.00    +0.065 C 
ATOM     13  C   UNL     1     -32.060  28.360   6.273  0.00  0.00    +0.193 C 
ATOM     14  H   UNL     1     -30.786  29.723   7.130  0.00  0.00    +0.145 HD
ATOM     15  H   UNL     1     -31.215  28.422   8.143  0.00  0.00    +0.145 HD
ENDBRANCH   3   7
BRANCH   4  16
ATOM     16  C   UNL     1     -37.175  24.364   3.700  0.00  0.00    +0.194 C 
BRANCH  16  17
ATOM     17  O   UNL     1     -36.592  24.146   4.975  0.00  0.00    -0.270 OA
BRANCH  17  18
ATOM     18  P   UNL     1     -35.627  22.861   5.171  0.00  0.00    +0.473 P 
ATOM     19  O   UNL     1     -34.160  23.173   5.230  0.00  0.00    -0.227 OA
BRANCH  18  20
ATOM     20  O   UNL     1     -36.073  21.860   3.981  0.00  0.00    -0.303 OA
ATOM     21  H   UNL     1     -35.431  21.914   3.256  0.00  0.00    +0.222 HD
ENDBRANCH  18  20
BRANCH  18  22
ATOM     22  O   UNL     1     -36.230  22.157   6.495  0.00  0.00    -0.303 OA
ATOM     23  H   UNL     1     -36.494  22.840   7.132  0.00  0.00    +0.222 HD
ENDBRANCH  18  22
ENDBRANCH  17  18
ENDBRANCH  16  17
ENDBRANCH   4  16
TORSDOF 6
ENDMDL
MODEL 8
REMARK VINA RESULT:      -5.3      2.449      3.221
REMARK  Name = 515708
REMARK  6 active torsions:
REMARK  status: ('A' for Active; 'I' for Inactive)
REMARK    1  A    between atoms: C_3  and  N_7
REMARK    2  A    between atoms: C_4  and  C_16
REMARK    3  A    between atoms: C_16  and  O_17
REMARK    4  A    between atoms: O_17  and  P_18
REMARK    5  A    between atoms: P_18  and  O_20
REMARK    6  A    between atoms: P_18  and  O_22
REMARK                            x       y       z     vdW  Elec       q    Type
REMARK                         _______ _______ _______ _____ _____    ______ ____
ROOT
ATOM      1  S   UNL     1     -35.397  25.818   5.660  0.00  0.00    -0.105 S 
ATOM      2  O   UNL     1     -35.562  25.076   3.120  0.00  0.00    -0.325 OA
ATOM      3  C   UNL     1     -36.445  24.240   3.877  0.00  0.00    +0.218 C 
ATOM      4  C   UNL     1     -35.278  26.243   3.901  0.00  0.00    +0.195 C 
ATOM      5  C   UNL     1     -35.887  24.126   5.289  0.00  0.00    +0.112 C 
ENDROOT
BRANCH   3   7
ATOM      6  O   UNL     1     -38.686  23.309   2.473  0.00  0.00    -0.193 OA
ATOM      7  N   UNL     1     -36.537  22.961   3.233  0.00  0.00    -0.179 N 
ATOM      8  N   UNL     1     -37.720  21.322   1.950  0.00  0.00    -0.306 NA
ATOM      9  N   UNL     1     -36.726  19.288   1.420  0.00  0.00    -0.332 N 
ATOM     10  C   UNL     1     -35.449  22.122   3.308  0.00  0.00    +0.083 C 
ATOM     11  C   UNL     1     -37.702  22.571   2.548  0.00  0.00    +0.275 C 
ATOM     12  C   UNL     1     -35.447  20.917   2.741  0.00  0.00    +0.065 C 
ATOM     13  C   UNL     1     -36.687  20.526   2.020  0.00  0.00    +0.193 C 
ATOM     14  H   UNL     1     -37.533  19.002   0.935  0.00  0.00    +0.145 HD
ATOM     15  H   UNL     1     -35.947  18.690   1.474  0.00  0.00    +0.145 HD
ENDBRANCH   3   7
BRANCH   4  16
ATOM     16  C   UNL     1     -33.889  26.743   3.548  0.00  0.00    +0.194 C 
BRANCH  16  17
ATOM     17  O   UNL     1     -33.061  26.643   4.695  0.00  0.00    -0.270 OA
BRANCH  17  18
ATOM     18  P   UNL     1     -32.146  27.916   5.098  0.00  0.00    +0.473 P 
ATOM     19  O   UNL     1     -32.820  29.250   4.956  0.00  0.00    -0.227 OA
BRANCH  18  20
ATOM     20  O   UNL     1     -30.806  27.722   4.215  0.00  0.00    -0.303 OA
ATOM     21  H   UNL     1     -30.276  27.000   4.586  0.00  0.00    +0.222 HD
ENDBRANCH  18  20
BRANCH  18  22
ATOM     22  O   UNL     1     -31.662  27.553   6.596  0.00  0.00    -0.303 OA
ATOM     23  H   UNL     1     -32.401  27.672   7.214  0.00  0.00    +0.222 HD
ENDBRANCH  18  22
ENDBRANCH  17  18
ENDBRANCH  16  17
ENDBRANCH   4  16
TORSDOF 6
ENDMDL
MODEL 9
REMARK VINA RESULT:      -5.2      4.453      6.215
REMARK  Name = 515708
REMARK  6 active torsions:
REMARK  status: ('A' for Active; 'I' for Inactive)
REMARK    1  A    between atoms: C_3  and  N_7
REMARK    2  A    between atoms: C_4  and  C_16
REMARK    3  A    between atoms: C_16  and  O_17
REMARK    4  A    between atoms: O_17  and  P_18
REMARK    5  A    between atoms: P_18  and  O_20
REMARK    6  A    between atoms: P_18  and  O_22
REMARK                            x       y       z     vdW  Elec       q    Type
REMARK                         _______ _______ _______ _____ _____    ______ ____
ROOT
ATOM      1  S   UNL     1     -36.216  27.059   0.792  0.00  0.00    -0.105 S 
ATOM      2  O   UNL     1     -37.605  25.815   2.677  0.00  0.00    -0.325 OA
ATOM      3  C   UNL     1     -36.223  25.770   3.051  0.00  0.00    +0.218 C 
ATOM      4  C   UNL     1     -37.768  26.858   1.708  0.00  0.00    +0.195 C 
ATOM      5  C   UNL     1     -35.391  25.797   1.776  0.00  0.00    +0.112 C 
ENDROOT
BRANCH   3   7
ATOM      6  O   UNL     1     -36.039  25.669   5.847  0.00  0.00    -0.193 OA
ATOM      7  N   UNL     1     -35.989  24.578   3.816  0.00  0.00    -0.179 N 
ATOM      8  N   UNL     1     -35.684  23.427   5.893  0.00  0.00    -0.306 NA
ATOM      9  N   UNL     1     -35.318  21.131   5.933  0.00  0.00    -0.332 N 
ATOM     10  C   UNL     1     -35.842  23.392   3.133  0.00  0.00    +0.083 C 
ATOM     11  C   UNL     1     -35.912  24.616   5.220  0.00  0.00    +0.275 C 
ATOM     12  C   UNL     1     -35.621  22.239   3.762  0.00  0.00    +0.065 C 
ATOM     13  C   UNL     1     -35.545  22.301   5.245  0.00  0.00    +0.193 C 
ATOM     14  H   UNL     1     -35.263  21.141   6.916  0.00  0.00    +0.145 HD
ATOM     15  H   UNL     1     -35.213  20.285   5.443  0.00  0.00    +0.145 HD
ENDBRANCH   3   7
BRANCH   4  16
ATOM     16  C   UNL     1     -38.912  26.492   0.782  0.00  0.00    +0.194 C 
BRANCH  16  17
ATOM     17  O   UNL     1     -40.104  27.089   1.267  0.00  0.00    -0.270 OA
BRANCH  17  18
ATOM     18  P   UNL     1     -41.037  26.236   2.278  0.00  0.00    +0.473 P 
ATOM     19  O   UNL     1     -42.514  26.389   2.059  0.00  0.00    -0.227 OA
BRANCH  18  20
ATOM     20  O   UNL     1     -40.507  26.664   3.744  0.00  0.00    -0.303 OA
ATOM     21  H   UNL     1     -39.563  26.455   3.821  0.00  0.00    +0.222 HD
ENDBRANCH  18  20
BRANCH  18  22
ATOM     22  O   UNL     1     -40.473  24.731   2.103  0.00  0.00    -0.303 OA
ATOM     23  H   UNL     1     -41.217  24.109   2.066  0.00  0.00    +0.222 HD
ENDBRANCH  18  22
ENDBRANCH  17  18
ENDBRANCH  16  17
ENDBRANCH   4  16
TORSDOF 6
ENDMDL
