MODEL 1
REMARK VINA RESULT:      -6.6      0.000      0.000
REMARK  Name = 5694
REMARK  5 active torsions:
REMARK  status: ('A' for Active; 'I' for Inactive)
REMARK    1  A    between atoms: C_6  and  S_18
REMARK    2  A    between atoms: N_8  and  C_11
REMARK    3  A    between atoms: S_18  and  C_19
REMARK    4  A    between atoms: C_19  and  C_21
REMARK    5  A    between atoms: C_21  and  O_22
REMARK                            x       y       z     vdW  Elec       q    Type
REMARK                         _______ _______ _______ _____ _____    ______ ____
ROOT
ATOM      1 CL   UNL     1     -39.613  23.267   2.486  0.00  0.00    -0.051 Cl
ATOM      2  N   UNL     1     -35.266  22.436   2.879  0.00  0.00    -0.324 NA
ATOM      3  N   UNL     1     -37.343  23.312   3.734  0.00  0.00    -0.327 NA
ATOM      4  C   UNL     1     -35.918  22.069   1.751  0.00  0.00    +0.182 C 
ATOM      5  C   UNL     1     -37.270  22.294   1.554  0.00  0.00    +0.148 C 
ATOM      6  C   UNL     1     -36.026  23.042   3.812  0.00  0.00    +0.170 C 
ATOM      7  C   UNL     1     -37.936  22.922   2.586  0.00  0.00    +0.187 C 
ATOM      8  N   UNL     1     -35.203  21.430   0.722  0.00  0.00    -0.291 N 
ATOM      9  H   UNL     1     -35.560  21.607  -0.178  0.00  0.00    +0.154 HD
ENDROOT
BRANCH   8  11
ATOM     10  C   UNL     1     -32.897  20.956   0.076  0.00  0.00    -0.012 C 
ATOM     11  C   UNL     1     -34.073  20.584   0.728  0.00  0.00    +0.046 C 
ATOM     12  C   UNL     1     -31.789  20.108   0.095  0.00  0.00    -0.025 C 
ATOM     13  C   UNL     1     -34.141  19.363   1.398  0.00  0.00    +0.014 C 
ATOM     14  C   UNL     1     -31.858  18.886   0.765  0.00  0.00    -0.004 C 
ATOM     15  C   UNL     1     -32.818  22.267  -0.643  0.00  0.00    +0.032 C 
ATOM     16  C   UNL     1     -33.034  18.514   1.417  0.00  0.00    +0.001 C 
ATOM     17  C   UNL     1     -30.519  20.483  -0.594  0.00  0.00    +0.031 C 
ENDBRANCH   8  11
BRANCH   6  18
ATOM     18  S   UNL     1     -35.199  23.538   5.310  0.00  0.00    -0.006 S 
BRANCH  18  19
ATOM     19  C   UNL     1     -34.117  24.867   4.713  0.00  0.00    +0.183 C 
BRANCH  19  21
ATOM     20  O   UNL     1     -33.750  26.610   6.338  0.00  0.00    -0.249 OA
ATOM     21  C   UNL     1     -34.441  26.140   5.442  0.00  0.00    +0.326 C 
BRANCH  21  22
ATOM     22  O   UNL     1     -35.578  26.728   4.991  0.00  0.00    -0.480 OA
ATOM     23  H   UNL     1     -35.604  27.654   4.857  0.00  0.00    +0.295 HD
ENDBRANCH  21  22
ENDBRANCH  19  21
ENDBRANCH  18  19
ENDBRANCH   6  18
TORSDOF 5
ENDMDL
MODEL 2
REMARK VINA RESULT:      -6.5      2.001      2.164
REMARK  Name = 5694
REMARK  5 active torsions:
REMARK  status: ('A' for Active; 'I' for Inactive)
REMARK    1  A    between atoms: C_6  and  S_18
REMARK    2  A    between atoms: N_8  and  C_11
REMARK    3  A    between atoms: S_18  and  C_19
REMARK    4  A    between atoms: C_19  and  C_21
REMARK    5  A    between atoms: C_21  and  O_22
REMARK                            x       y       z     vdW  Elec       q    Type
REMARK                         _______ _______ _______ _____ _____    ______ ____
ROOT
ATOM      1 CL   UNL     1     -40.027  23.964   2.600  0.00  0.00    -0.051 Cl
ATOM      2  N   UNL     1     -35.668  23.126   2.798  0.00  0.00    -0.324 NA
ATOM      3  N   UNL     1     -37.685  24.093   3.698  0.00  0.00    -0.327 NA
ATOM      4  C   UNL     1     -36.391  22.669   1.749  0.00  0.00    +0.182 C 
ATOM      5  C   UNL     1     -37.751  22.890   1.615  0.00  0.00    +0.148 C 
ATOM      6  C   UNL     1     -36.366  23.818   3.720  0.00  0.00    +0.170 C 
ATOM      7  C   UNL     1     -38.349  23.612   2.627  0.00  0.00    +0.187 C 
ATOM      8  N   UNL     1     -35.743  21.936   0.737  0.00  0.00    -0.291 N 
ATOM      9  H   UNL     1     -36.154  22.039  -0.152  0.00  0.00    +0.154 HD
ENDROOT
BRANCH   8  11
ATOM     10  C   UNL     1     -33.455  21.424   0.059  0.00  0.00    -0.012 C 
ATOM     11  C   UNL     1     -34.619  21.083   0.748  0.00  0.00    +0.046 C 
ATOM     12  C   UNL     1     -32.353  20.568   0.082  0.00  0.00    -0.025 C 
ATOM     13  C   UNL     1     -34.681  19.885   1.460  0.00  0.00    +0.014 C 
ATOM     14  C   UNL     1     -32.416  19.370   0.796  0.00  0.00    -0.004 C 
ATOM     15  C   UNL     1     -33.383  22.708  -0.706  0.00  0.00    +0.032 C 
ATOM     16  C   UNL     1     -33.580  19.029   1.484  0.00  0.00    +0.001 C 
ATOM     17  C   UNL     1     -31.096  20.909  -0.646  0.00  0.00    +0.031 C 
ENDBRANCH   8  11
BRANCH   6  18
ATOM     18  S   UNL     1     -35.447  24.434   5.116  0.00  0.00    -0.006 S 
BRANCH  18  19
ATOM     19  C   UNL     1     -34.444  22.989   5.565  0.00  0.00    +0.183 C 
BRANCH  19  21
ATOM     20  O   UNL     1     -36.240  22.018   6.847  0.00  0.00    -0.249 OA
ATOM     21  C   UNL     1     -35.346  21.878   6.021  0.00  0.00    +0.326 C 
BRANCH  21  22
ATOM     22  O   UNL     1     -35.076  20.698   5.409  0.00  0.00    -0.480 OA
ATOM     23  H   UNL     1     -34.190  20.403   5.330  0.00  0.00    +0.295 HD
ENDBRANCH  21  22
ENDBRANCH  19  21
ENDBRANCH  18  19
ENDBRANCH   6  18
TORSDOF 5
ENDMDL
MODEL 3
REMARK VINA RESULT:      -6.1      3.987      6.213
REMARK  Name = 5694
REMARK  5 active torsions:
REMARK  status: ('A' for Active; 'I' for Inactive)
REMARK    1  A    between atoms: C_6  and  S_18
REMARK    2  A    between atoms: N_8  and  C_11
REMARK    3  A    between atoms: S_18  and  C_19
REMARK    4  A    between atoms: C_19  and  C_21
REMARK    5  A    between atoms: C_21  and  O_22
REMARK                            x       y       z     vdW  Elec       q    Type
REMARK                         _______ _______ _______ _____ _____    ______ ____
ROOT
ATOM      1 CL   UNL     1     -42.191  25.286   1.486  0.00  0.00    -0.051 Cl
ATOM      2  N   UNL     1     -38.286  23.807   3.003  0.00  0.00    -0.324 NA
ATOM      3  N   UNL     1     -40.337  23.500   1.774  0.00  0.00    -0.327 NA
ATOM      4  C   UNL     1     -38.682  25.069   3.292  0.00  0.00    +0.182 C 
ATOM      5  C   UNL     1     -39.883  25.601   2.857  0.00  0.00    +0.148 C 
ATOM      6  C   UNL     1     -39.147  23.091   2.254  0.00  0.00    +0.170 C 
ATOM      7  C   UNL     1     -40.675  24.766   2.096  0.00  0.00    +0.187 C 
ATOM      8  N   UNL     1     -37.845  25.889   4.071  0.00  0.00    -0.291 N 
ATOM      9  H   UNL     1     -38.332  26.549   4.615  0.00  0.00    +0.154 HD
ENDROOT
BRANCH   8  11
ATOM     10  C   UNL     1     -35.639  26.525   3.240  0.00  0.00    -0.012 C 
ATOM     11  C   UNL     1     -36.443  25.950   4.224  0.00  0.00    +0.046 C 
ATOM     12  C   UNL     1     -34.255  26.577   3.410  0.00  0.00    -0.025 C 
ATOM     13  C   UNL     1     -35.862  25.428   5.380  0.00  0.00    +0.014 C 
ATOM     14  C   UNL     1     -33.675  26.054   4.567  0.00  0.00    -0.004 C 
ATOM     15  C   UNL     1     -36.258  27.088   1.999  0.00  0.00    +0.032 C 
ATOM     16  C   UNL     1     -34.479  25.480   5.551  0.00  0.00    +0.001 C 
ATOM     17  C   UNL     1     -33.373  27.187   2.372  0.00  0.00    +0.031 C 
ENDBRANCH   8  11
BRANCH   6  18
ATOM     18  S   UNL     1     -38.657  21.425   1.855  0.00  0.00    -0.006 S 
BRANCH  18  19
ATOM     19  C   UNL     1     -36.859  21.597   1.690  0.00  0.00    +0.183 C 
BRANCH  19  21
ATOM     20  O   UNL     1     -35.315  20.328   3.039  0.00  0.00    -0.249 OA
ATOM     21  C   UNL     1     -36.190  20.345   2.182  0.00  0.00    +0.326 C 
BRANCH  21  22
ATOM     22  O   UNL     1     -36.671  19.225   1.586  0.00  0.00    -0.480 OA
ATOM     23  H   UNL     1     -36.928  18.491   2.107  0.00  0.00    +0.295 HD
ENDBRANCH  21  22
ENDBRANCH  19  21
ENDBRANCH  18  19
ENDBRANCH   6  18
TORSDOF 5
ENDMDL
MODEL 4
REMARK VINA RESULT:      -6.0      5.087      7.403
REMARK  Name = 5694
REMARK  5 active torsions:
REMARK  status: ('A' for Active; 'I' for Inactive)
REMARK    1  A    between atoms: C_6  and  S_18
REMARK    2  A    between atoms: N_8  and  C_11
REMARK    3  A    between atoms: S_18  and  C_19
REMARK    4  A    between atoms: C_19  and  C_21
REMARK    5  A    between atoms: C_21  and  O_22
REMARK                            x       y       z     vdW  Elec       q    Type
REMARK                         _______ _______ _______ _____ _____    ______ ____
ROOT
ATOM      1 CL   UNL     1     -35.482  21.996   6.347  0.00  0.00    -0.051 Cl
ATOM      2  N   UNL     1     -35.589  25.639   3.805  0.00  0.00    -0.324 NA
ATOM      3  N   UNL     1     -36.640  23.699   4.775  0.00  0.00    -0.327 NA
ATOM      4  C   UNL     1     -34.442  25.298   4.438  0.00  0.00    +0.182 C 
ATOM      5  C   UNL     1     -34.329  24.179   5.246  0.00  0.00    +0.148 C 
ATOM      6  C   UNL     1     -36.630  24.810   4.014  0.00  0.00    +0.170 C 
ATOM      7  C   UNL     1     -35.468  23.412   5.379  0.00  0.00    +0.187 C 
ATOM      8  N   UNL     1     -33.302  26.107   4.276  0.00  0.00    -0.291 N 
ATOM      9  H   UNL     1     -32.453  25.613   4.340  0.00  0.00    +0.154 HD
ENDROOT
BRANCH   8  11
ATOM     10  C   UNL     1     -32.614  28.327   5.024  0.00  0.00    -0.012 C 
ATOM     11  C   UNL     1     -33.139  27.489   4.039  0.00  0.00    +0.046 C 
ATOM     12  C   UNL     1     -32.458  29.690   4.770  0.00  0.00    -0.025 C 
ATOM     13  C   UNL     1     -33.507  28.015   2.801  0.00  0.00    +0.014 C 
ATOM     14  C   UNL     1     -32.827  30.215   3.532  0.00  0.00    -0.004 C 
ATOM     15  C   UNL     1     -32.215  27.766   6.353  0.00  0.00    +0.032 C 
ATOM     16  C   UNL     1     -33.352  29.378   2.548  0.00  0.00    +0.001 C 
ATOM     17  C   UNL     1     -31.899  30.608   5.807  0.00  0.00    +0.031 C 
ENDBRANCH   8  11
BRANCH   6  18
ATOM     18  S   UNL     1     -38.156  25.229   3.196  0.00  0.00    -0.006 S 
BRANCH  18  19
ATOM     19  C   UNL     1     -38.171  24.054   1.814  0.00  0.00    +0.183 C 
BRANCH  19  21
ATOM     20  O   UNL     1     -40.116  22.672   2.158  0.00  0.00    -0.249 OA
ATOM     21  C   UNL     1     -38.900  22.807   2.226  0.00  0.00    +0.326 C 
BRANCH  21  22
ATOM     22  O   UNL     1     -38.067  21.834   2.671  0.00  0.00    -0.480 OA
ATOM     23  H   UNL     1     -37.912  21.074   2.147  0.00  0.00    +0.295 HD
ENDBRANCH  21  22
ENDBRANCH  19  21
ENDBRANCH  18  19
ENDBRANCH   6  18
TORSDOF 5
ENDMDL
MODEL 5
REMARK VINA RESULT:      -6.0      4.877      7.008
REMARK  Name = 5694
REMARK  5 active torsions:
REMARK  status: ('A' for Active; 'I' for Inactive)
REMARK    1  A    between atoms: C_6  and  S_18
REMARK    2  A    between atoms: N_8  and  C_11
REMARK    3  A    between atoms: S_18  and  C_19
REMARK    4  A    between atoms: C_19  and  C_21
REMARK    5  A    between atoms: C_21  and  O_22
REMARK                            x       y       z     vdW  Elec       q    Type
REMARK                         _______ _______ _______ _____ _____    ______ ____
ROOT
ATOM      1 CL   UNL     1     -37.060  18.586  -1.430  0.00  0.00    -0.051 Cl
ATOM      2  N   UNL     1     -34.536  19.787   2.024  0.00  0.00    -0.324 NA
ATOM      3  N   UNL     1     -34.873  18.588  -0.041  0.00  0.00    -0.327 NA
ATOM      4  C   UNL     1     -35.805  20.248   1.929  0.00  0.00    +0.182 C 
ATOM      5  C   UNL     1     -36.652  19.919   0.885  0.00  0.00    +0.148 C 
ATOM      6  C   UNL     1     -34.142  18.976   1.022  0.00  0.00    +0.170 C 
ATOM      7  C   UNL     1     -36.129  19.081  -0.078  0.00  0.00    +0.187 C 
ATOM      8  N   UNL     1     -36.301  21.102   2.932  0.00  0.00    -0.291 N 
ATOM      9  H   UNL     1     -37.272  21.023   3.074  0.00  0.00    +0.154 HD
ENDROOT
BRANCH   8  11
ATOM     10  C   UNL     1     -35.254  23.280   3.277  0.00  0.00    -0.012 C 
ATOM     11  C   UNL     1     -35.678  22.048   3.775  0.00  0.00    +0.046 C 
ATOM     12  C   UNL     1     -34.642  24.202   4.125  0.00  0.00    -0.025 C 
ATOM     13  C   UNL     1     -35.489  21.739   5.122  0.00  0.00    +0.014 C 
ATOM     14  C   UNL     1     -34.454  23.893   5.473  0.00  0.00    -0.004 C 
ATOM     15  C   UNL     1     -35.456  23.617   1.832  0.00  0.00    +0.032 C 
ATOM     16  C   UNL     1     -34.877  22.661   5.970  0.00  0.00    +0.001 C 
ATOM     17  C   UNL     1     -34.179  25.528   3.618  0.00  0.00    +0.031 C 
ENDBRANCH   8  11
BRANCH   6  18
ATOM     18  S   UNL     1     -32.477  18.351   1.114  0.00  0.00    -0.006 S 
BRANCH  18  19
ATOM     19  C   UNL     1     -32.383  17.326  -0.381  0.00  0.00    +0.183 C 
BRANCH  19  21
ATOM     20  O   UNL     1     -31.651  15.127   0.284  0.00  0.00    -0.249 OA
ATOM     21  C   UNL     1     -32.570  15.883  -0.009  0.00  0.00    +0.326 C 
BRANCH  21  22
ATOM     22  O   UNL     1     -33.873  15.504  -0.015  0.00  0.00    -0.480 OA
ATOM     23  H   UNL     1     -34.172  14.848   0.583  0.00  0.00    +0.295 HD
ENDBRANCH  21  22
ENDBRANCH  19  21
ENDBRANCH  18  19
ENDBRANCH   6  18
TORSDOF 5
ENDMDL
MODEL 6
REMARK VINA RESULT:      -6.0      1.156      2.036
REMARK  Name = 5694
REMARK  5 active torsions:
REMARK  status: ('A' for Active; 'I' for Inactive)
REMARK    1  A    between atoms: C_6  and  S_18
REMARK    2  A    between atoms: N_8  and  C_11
REMARK    3  A    between atoms: S_18  and  C_19
REMARK    4  A    between atoms: C_19  and  C_21
REMARK    5  A    between atoms: C_21  and  O_22
REMARK                            x       y       z     vdW  Elec       q    Type
REMARK                         _______ _______ _______ _____ _____    ______ ____
ROOT
ATOM      1 CL   UNL     1     -39.588  24.219   2.937  0.00  0.00    -0.051 Cl
ATOM      2  N   UNL     1     -35.230  23.354   2.936  0.00  0.00    -0.324 NA
ATOM      3  N   UNL     1     -37.246  24.085   4.037  0.00  0.00    -0.327 NA
ATOM      4  C   UNL     1     -35.952  23.158   1.808  0.00  0.00    +0.182 C 
ATOM      5  C   UNL     1     -37.312  23.405   1.729  0.00  0.00    +0.148 C 
ATOM      6  C   UNL     1     -35.928  23.811   3.994  0.00  0.00    +0.170 C 
ATOM      7  C   UNL     1     -37.910  23.869   2.882  0.00  0.00    +0.187 C 
ATOM      8  N   UNL     1     -35.303  22.683   0.653  0.00  0.00    -0.291 N 
ATOM      9  H   UNL     1     -35.713  22.992  -0.187  0.00  0.00    +0.154 HD
ENDROOT
BRANCH   8  11
ATOM     10  C   UNL     1     -34.149  20.559   0.990  0.00  0.00    -0.012 C 
ATOM     11  C   UNL     1     -34.180  21.850   0.463  0.00  0.00    +0.046 C 
ATOM     12  C   UNL     1     -33.029  19.750   0.791  0.00  0.00    -0.025 C 
ATOM     13  C   UNL     1     -33.091  22.332  -0.263  0.00  0.00    +0.014 C 
ATOM     14  C   UNL     1     -31.941  20.232   0.064  0.00  0.00    -0.004 C 
ATOM     15  C   UNL     1     -35.316  20.037   1.770  0.00  0.00    +0.032 C 
ATOM     16  C   UNL     1     -31.972  21.523  -0.463  0.00  0.00    +0.001 C 
ATOM     17  C   UNL     1     -32.971  18.364   1.344  0.00  0.00    +0.031 C 
ENDBRANCH   8  11
BRANCH   6  18
ATOM     18  S   UNL     1     -35.009  24.080   5.497  0.00  0.00    -0.006 S 
BRANCH  18  19
ATOM     19  C   UNL     1     -34.984  25.892   5.596  0.00  0.00    +0.183 C 
BRANCH  19  21
ATOM     20  O   UNL     1     -32.980  27.212   5.827  0.00  0.00    -0.249 OA
ATOM     21  C   UNL     1     -33.630  26.395   5.185  0.00  0.00    +0.326 C 
BRANCH  21  22
ATOM     22  O   UNL     1     -33.190  25.835   4.031  0.00  0.00    -0.480 OA
ATOM     23  H   UNL     1     -33.643  25.102   3.663  0.00  0.00    +0.295 HD
ENDBRANCH  21  22
ENDBRANCH  19  21
ENDBRANCH  18  19
ENDBRANCH   6  18
TORSDOF 5
ENDMDL
MODEL 7
REMARK VINA RESULT:      -5.7     12.288     13.941
REMARK  Name = 5694
REMARK  5 active torsions:
REMARK  status: ('A' for Active; 'I' for Inactive)
REMARK    1  A    between atoms: C_6  and  S_18
REMARK    2  A    between atoms: N_8  and  C_11
REMARK    3  A    between atoms: S_18  and  C_19
REMARK    4  A    between atoms: C_19  and  C_21
REMARK    5  A    between atoms: C_21  and  O_22
REMARK                            x       y       z     vdW  Elec       q    Type
REMARK                         _______ _______ _______ _____ _____    ______ ____
ROOT
ATOM      1 CL   UNL     1     -47.073  32.451   0.640  0.00  0.00    -0.051 Cl
ATOM      2  N   UNL     1     -43.656  33.601   3.237  0.00  0.00    -0.324 NA
ATOM      3  N   UNL     1     -45.788  32.531   2.888  0.00  0.00    -0.327 NA
ATOM      4  C   UNL     1     -43.657  33.962   1.932  0.00  0.00    +0.182 C 
ATOM      5  C   UNL     1     -44.684  33.642   1.060  0.00  0.00    +0.148 C 
ATOM      6  C   UNL     1     -44.734  32.900   3.640  0.00  0.00    +0.170 C 
ATOM      7  C   UNL     1     -45.730  32.920   1.597  0.00  0.00    +0.187 C 
ATOM      8  N   UNL     1     -42.570  34.698   1.423  0.00  0.00    -0.291 N 
ATOM      9  H   UNL     1     -42.812  35.300   0.683  0.00  0.00    +0.154 HD
ENDROOT
BRANCH   8  11
ATOM     10  C   UNL     1     -40.311  33.785   1.279  0.00  0.00    -0.012 C 
ATOM     11  C   UNL     1     -41.202  34.740   1.767  0.00  0.00    +0.046 C 
ATOM     12  C   UNL     1     -38.962  33.844   1.629  0.00  0.00    -0.025 C 
ATOM     13  C   UNL     1     -40.743  35.757   2.605  0.00  0.00    +0.014 C 
ATOM     14  C   UNL     1     -38.503  34.861   2.467  0.00  0.00    -0.004 C 
ATOM     15  C   UNL     1     -40.799  32.693   0.378  0.00  0.00    +0.032 C 
ATOM     16  C   UNL     1     -39.394  35.817   2.955  0.00  0.00    +0.001 C 
ATOM     17  C   UNL     1     -37.988  32.834   1.120  0.00  0.00    +0.031 C 
ENDBRANCH   8  11
BRANCH   6  18
ATOM     18  S   UNL     1     -44.766  32.408   5.352  0.00  0.00    -0.006 S 
BRANCH  18  19
ATOM     19  C   UNL     1     -44.652  30.602   5.221  0.00  0.00    +0.183 C 
BRANCH  19  21
ATOM     20  O   UNL     1     -43.418  30.220   7.256  0.00  0.00    -0.249 OA
ATOM     21  C   UNL     1     -43.490  30.115   6.038  0.00  0.00    +0.326 C 
BRANCH  21  22
ATOM     22  O   UNL     1     -42.528  29.527   5.283  0.00  0.00    -0.480 OA
ATOM     23  H   UNL     1     -42.711  28.727   4.831  0.00  0.00    +0.295 HD
ENDBRANCH  21  22
ENDBRANCH  19  21
ENDBRANCH  18  19
ENDBRANCH   6  18
TORSDOF 5
ENDMDL
MODEL 8
REMARK VINA RESULT:      -5.7      5.051      7.333
REMARK  Name = 5694
REMARK  5 active torsions:
REMARK  status: ('A' for Active; 'I' for Inactive)
REMARK    1  A    between atoms: C_6  and  S_18
REMARK    2  A    between atoms: N_8  and  C_11
REMARK    3  A    between atoms: S_18  and  C_19
REMARK    4  A    between atoms: C_19  and  C_21
REMARK    5  A    between atoms: C_21  and  O_22
REMARK                            x       y       z     vdW  Elec       q    Type
REMARK                         _______ _______ _______ _____ _____    ______ ____
ROOT
ATOM      1 CL   UNL     1     -35.564  22.184   6.360  0.00  0.00    -0.051 Cl
ATOM      2  N   UNL     1     -35.598  25.848   3.848  0.00  0.00    -0.324 NA
ATOM      3  N   UNL     1     -36.691  23.927   4.810  0.00  0.00    -0.327 NA
ATOM      4  C   UNL     1     -34.456  25.473   4.470  0.00  0.00    +0.182 C 
ATOM      5  C   UNL     1     -34.365  24.346   5.268  0.00  0.00    +0.148 C 
ATOM      6  C   UNL     1     -36.658  25.043   4.058  0.00  0.00    +0.170 C 
ATOM      7  C   UNL     1     -35.522  23.606   5.403  0.00  0.00    +0.187 C 
ATOM      8  N   UNL     1     -33.297  26.255   4.306  0.00  0.00    -0.291 N 
ATOM      9  H   UNL     1     -32.460  25.740   4.360  0.00  0.00    +0.154 HD
ENDROOT
BRANCH   8  11
ATOM     10  C   UNL     1     -32.544  28.450   5.064  0.00  0.00    -0.012 C 
ATOM     11  C   UNL     1     -33.101  27.635   4.079  0.00  0.00    +0.046 C 
ATOM     12  C   UNL     1     -32.357  29.811   4.821  0.00  0.00    -0.025 C 
ATOM     13  C   UNL     1     -33.471  28.181   2.850  0.00  0.00    +0.014 C 
ATOM     14  C   UNL     1     -32.726  30.357   3.591  0.00  0.00    -0.004 C 
ATOM     15  C   UNL     1     -32.144  27.868   6.384  0.00  0.00    +0.032 C 
ATOM     16  C   UNL     1     -33.283  29.541   2.606  0.00  0.00    +0.001 C 
ATOM     17  C   UNL     1     -31.762  30.705   5.858  0.00  0.00    +0.031 C 
ENDBRANCH   8  11
BRANCH   6  18
ATOM     18  S   UNL     1     -38.179  25.507   3.254  0.00  0.00    -0.006 S 
BRANCH  18  19
ATOM     19  C   UNL     1     -37.697  25.478   1.505  0.00  0.00    +0.183 C 
BRANCH  19  21
ATOM     20  O   UNL     1     -37.937  27.225  -0.139  0.00  0.00    -0.249 OA
ATOM     21  C   UNL     1     -37.602  26.885   0.990  0.00  0.00    +0.326 C 
BRANCH  21  22
ATOM     22  O   UNL     1     -37.119  27.751   1.916  0.00  0.00    -0.480 OA
ATOM     23  H   UNL     1     -36.766  27.427   2.721  0.00  0.00    +0.295 HD
ENDBRANCH  21  22
ENDBRANCH  19  21
ENDBRANCH  18  19
ENDBRANCH   6  18
TORSDOF 5
ENDMDL
MODEL 9
REMARK VINA RESULT:      -5.7      4.394      6.201
REMARK  Name = 5694
REMARK  5 active torsions:
REMARK  status: ('A' for Active; 'I' for Inactive)
REMARK    1  A    between atoms: C_6  and  S_18
REMARK    2  A    between atoms: N_8  and  C_11
REMARK    3  A    between atoms: S_18  and  C_19
REMARK    4  A    between atoms: C_19  and  C_21
REMARK    5  A    between atoms: C_21  and  O_22
REMARK                            x       y       z     vdW  Elec       q    Type
REMARK                         _______ _______ _______ _____ _____    ______ ____
ROOT
ATOM      1 CL   UNL     1     -37.955  28.836  -0.486  0.00  0.00    -0.051 Cl
ATOM      2  N   UNL     1     -38.379  25.554   2.479  0.00  0.00    -0.324 NA
ATOM      3  N   UNL     1     -39.318  27.217   1.009  0.00  0.00    -0.327 NA
ATOM      4  C   UNL     1     -37.144  25.948   2.089  0.00  0.00    +0.182 C 
ATOM      5  C   UNL     1     -36.930  26.963   1.171  0.00  0.00    +0.148 C 
ATOM      6  C   UNL     1     -39.402  26.220   1.909  0.00  0.00    +0.170 C 
ATOM      7  C   UNL     1     -38.062  27.565   0.660  0.00  0.00    +0.187 C 
ATOM      8  N   UNL     1     -36.015  25.308   2.633  0.00  0.00    -0.291 N 
ATOM      9  H   UNL     1     -35.223  25.889   2.696  0.00  0.00    +0.154 HD
ENDROOT
BRANCH   8  11
ATOM     10  C   UNL     1     -35.676  23.740   4.473  0.00  0.00    -0.012 C 
ATOM     11  C   UNL     1     -35.798  23.996   3.107  0.00  0.00    +0.046 C 
ATOM     12  C   UNL     1     -35.463  22.436   4.922  0.00  0.00    -0.025 C 
ATOM     13  C   UNL     1     -35.707  22.949   2.191  0.00  0.00    +0.014 C 
ATOM     14  C   UNL     1     -35.372  21.388   4.005  0.00  0.00    -0.004 C 
ATOM     15  C   UNL     1     -35.774  24.861   5.460  0.00  0.00    +0.032 C 
ATOM     16  C   UNL     1     -35.494  21.645   2.639  0.00  0.00    +0.001 C 
ATOM     17  C   UNL     1     -35.329  22.135   6.378  0.00  0.00    +0.031 C 
ENDBRANCH   8  11
BRANCH   6  18
ATOM     18  S   UNL     1     -41.042  25.726   2.400  0.00  0.00    -0.006 S 
BRANCH  18  19
ATOM     19  C   UNL     1     -41.928  27.310   2.375  0.00  0.00    +0.183 C 
BRANCH  19  21
ATOM     20  O   UNL     1     -41.871  28.531   4.454  0.00  0.00    -0.249 OA
ATOM     21  C   UNL     1     -42.378  27.652   3.767  0.00  0.00    +0.326 C 
BRANCH  21  22
ATOM     22  O   UNL     1     -43.423  26.892   4.182  0.00  0.00    -0.480 OA
ATOM     23  H   UNL     1     -44.291  27.244   4.174  0.00  0.00    +0.295 HD
ENDBRANCH  21  22
ENDBRANCH  19  21
ENDBRANCH  18  19
ENDBRANCH   6  18
TORSDOF 5
ENDMDL
