MODEL 1
REMARK VINA RESULT:      -6.1      0.000      0.000
REMARK  Name = 191091
REMARK  7 active torsions:
REMARK  status: ('A' for Active; 'I' for Inactive)
REMARK    1  A    between atoms: C2*_2  and  O2*_17
REMARK    2  A    between atoms: C3*_3  and  O3*_19
REMARK    3  A    between atoms: C1*_4  and  N_7
REMARK    4  A    between atoms: C4*_5  and  C5*_21
REMARK    5  A    between atoms: C_10  and  C_14
REMARK    6  A    between atoms: C_14  and  O_15
REMARK    7  A    between atoms: C5*_21  and  O5*_22
REMARK                            x       y       z     vdW  Elec       q    Type
REMARK                         _______ _______ _______ _____ _____    ______ ____
ROOT
ATOM      1  O4* UNL     1     -37.124  22.763   1.703  0.00  0.00    -0.333 OA
ATOM      2  C2* UNL     1     -36.315  20.612   2.283  0.00  0.00    +0.187 C 
ATOM      3  C3* UNL     1     -37.228  20.480   1.082  0.00  0.00    +0.171 C 
ATOM      4  C1* UNL     1     -35.982  22.095   2.262  0.00  0.00    +0.228 C 
ATOM      5  C4* UNL     1     -38.017  21.780   1.136  0.00  0.00    +0.175 C 
ENDROOT
BRANCH   4   7
ATOM      6  O   UNL     1     -35.757  24.845   2.867  0.00  0.00    -0.269 OA
ATOM      7  N   UNL     1     -35.732  22.618   3.575  0.00  0.00    -0.229 N 
ATOM      8  C   UNL     1     -35.637  24.015   3.768  0.00  0.00    +0.261 C 
ATOM      9  C   UNL     1     -35.583  21.744   4.652  0.00  0.00    +0.070 C 
ATOM     10  C   UNL     1     -35.375  24.480   5.170  0.00  0.00    +0.129 C 
ATOM     11  C   UNL     1     -35.349  22.173   5.896  0.00  0.00    +0.017 C 
ATOM     12  C   UNL     1     -35.243  23.584   6.159  0.00  0.00    +0.012 C 
BRANCH  10  14
ATOM     13  O   UNL     1     -34.233  26.417   5.941  0.00  0.00    -0.245 OA
ATOM     14  C   UNL     1     -35.252  25.896   5.528  0.00  0.00    +0.343 C 
BRANCH  14  15
ATOM     15  O   UNL     1     -36.434  26.516   5.328  0.00  0.00    -0.477 OA
ATOM     16  H   UNL     1     -37.079  26.127   4.769  0.00  0.00    +0.295 HD
ENDBRANCH  14  15
ENDBRANCH  10  14
ENDBRANCH   4   7
BRANCH   2  17
ATOM     17  O2* UNL     1     -35.167  19.796   2.176  0.00  0.00    -0.378 OA
ATOM     18  H2* UNL     1     -35.344  18.934   2.587  0.00  0.00    +0.211 HD
ENDBRANCH   2  17
BRANCH   3  19
ATOM     19  O3* UNL     1     -36.463  20.480  -0.124  0.00  0.00    -0.379 OA
ATOM     20  H3* UNL     1     -36.454  19.585  -0.501  0.00  0.00    +0.211 HD
ENDBRANCH   3  19
BRANCH   5  21
ATOM     21  C5* UNL     1     -39.255  21.697   2.021  0.00  0.00    +0.169 C 
BRANCH  21  22
ATOM     22  O5* UNL     1     -40.214  20.874   1.382  0.00  0.00    -0.379 OA
ATOM     23  H5* UNL     1     -41.105  21.150   1.649  0.00  0.00    +0.211 HD
ENDBRANCH  21  22
ENDBRANCH   5  21
TORSDOF 7
ENDMDL
MODEL 2
REMARK VINA RESULT:      -6.0      1.368      2.177
REMARK  Name = 191091
REMARK  7 active torsions:
REMARK  status: ('A' for Active; 'I' for Inactive)
REMARK    1  A    between atoms: C2*_2  and  O2*_17
REMARK    2  A    between atoms: C3*_3  and  O3*_19
REMARK    3  A    between atoms: C1*_4  and  N_7
REMARK    4  A    between atoms: C4*_5  and  C5*_21
REMARK    5  A    between atoms: C_10  and  C_14
REMARK    6  A    between atoms: C_14  and  O_15
REMARK    7  A    between atoms: C5*_21  and  O5*_22
REMARK                            x       y       z     vdW  Elec       q    Type
REMARK                         _______ _______ _______ _____ _____    ______ ____
ROOT
ATOM      1  O4* UNL     1     -38.091  21.626   2.212  0.00  0.00    -0.333 OA
ATOM      2  C2* UNL     1     -36.845  23.108   0.845  0.00  0.00    +0.187 C 
ATOM      3  C3* UNL     1     -37.589  22.135  -0.046  0.00  0.00    +0.171 C 
ATOM      4  C1* UNL     1     -37.603  22.976   2.155  0.00  0.00    +0.228 C 
ATOM      5  C4* UNL     1     -37.918  21.006   0.920  0.00  0.00    +0.175 C 
ENDROOT
BRANCH   4   7
ATOM      6  O   UNL     1     -37.141  25.527   3.278  0.00  0.00    -0.269 OA
ATOM      7  N   UNL     1     -36.768  23.220   3.297  0.00  0.00    -0.229 N 
ATOM      8  C   UNL     1     -36.605  24.539   3.779  0.00  0.00    +0.261 C 
ATOM      9  C   UNL     1     -36.124  22.153   3.924  0.00  0.00    +0.070 C 
ATOM     10  C   UNL     1     -35.718  24.708   4.976  0.00  0.00    +0.129 C 
ATOM     11  C   UNL     1     -35.336  22.320   4.991  0.00  0.00    +0.017 C 
ATOM     12  C   UNL     1     -35.129  23.638   5.530  0.00  0.00    +0.012 C 
BRANCH  10  14
ATOM     13  O   UNL     1     -34.361  26.379   5.985  0.00  0.00    -0.245 OA
ATOM     14  C   UNL     1     -35.452  26.012   5.591  0.00  0.00    +0.343 C 
BRANCH  14  15
ATOM     15  O   UNL     1     -36.596  26.726   5.648  0.00  0.00    -0.477 OA
ATOM     16  H   UNL     1     -36.637  27.576   5.255  0.00  0.00    +0.295 HD
ENDBRANCH  14  15
ENDBRANCH  10  14
ENDBRANCH   4   7
BRANCH   2  17
ATOM     17  O2* UNL     1     -36.866  24.426   0.335  0.00  0.00    -0.378 OA
ATOM     18  H2* UNL     1     -36.271  24.486  -0.429  0.00  0.00    +0.211 HD
ENDBRANCH   2  17
BRANCH   3  19
ATOM     19  O3* UNL     1     -38.820  22.708  -0.488  0.00  0.00    -0.379 OA
ATOM     20  H3* UNL     1     -38.661  23.242  -1.282  0.00  0.00    +0.211 HD
ENDBRANCH   3  19
BRANCH   5  21
ATOM     21  C5* UNL     1     -36.806  19.970   1.036  0.00  0.00    +0.169 C 
BRANCH  21  22
ATOM     22  O5* UNL     1     -36.826  19.429   2.346  0.00  0.00    -0.379 OA
ATOM     23  H5* UNL     1     -36.003  18.939   2.505  0.00  0.00    +0.211 HD
ENDBRANCH  21  22
ENDBRANCH   5  21
TORSDOF 7
ENDMDL
MODEL 3
REMARK VINA RESULT:      -5.9      3.429      5.907
REMARK  Name = 191091
REMARK  7 active torsions:
REMARK  status: ('A' for Active; 'I' for Inactive)
REMARK    1  A    between atoms: C2*_2  and  O2*_17
REMARK    2  A    between atoms: C3*_3  and  O3*_19
REMARK    3  A    between atoms: C1*_4  and  N_7
REMARK    4  A    between atoms: C4*_5  and  C5*_21
REMARK    5  A    between atoms: C_10  and  C_14
REMARK    6  A    between atoms: C_14  and  O_15
REMARK    7  A    between atoms: C5*_21  and  O5*_22
REMARK                            x       y       z     vdW  Elec       q    Type
REMARK                         _______ _______ _______ _____ _____    ______ ____
ROOT
ATOM      1  O4* UNL     1     -33.640  24.793   4.383  0.00  0.00    -0.333 OA
ATOM      2  C2* UNL     1     -35.651  26.037   4.540  0.00  0.00    +0.187 C 
ATOM      3  C3* UNL     1     -35.990  24.616   4.144  0.00  0.00    +0.171 C 
ATOM      4  C1* UNL     1     -34.247  25.882   5.098  0.00  0.00    +0.228 C 
ATOM      5  C4* UNL     1     -34.655  24.103   3.623  0.00  0.00    +0.175 C 
ENDROOT
BRANCH   4   7
ATOM      6  O   UNL     1     -32.506  26.953   7.049  0.00  0.00    -0.269 OA
ATOM      7  N   UNL     1     -33.450  27.062   4.913  0.00  0.00    -0.229 N 
ATOM      8  C   UNL     1     -32.610  27.512   5.958  0.00  0.00    +0.261 C 
ATOM      9  C   UNL     1     -33.511  27.756   3.705  0.00  0.00    +0.070 C 
ATOM     10  C   UNL     1     -31.811  28.752   5.685  0.00  0.00    +0.129 C 
ATOM     11  C   UNL     1     -32.792  28.860   3.476  0.00  0.00    +0.017 C 
ATOM     12  C   UNL     1     -31.918  29.370   4.499  0.00  0.00    +0.012 C 
BRANCH  10  14
ATOM     13  O   UNL     1     -29.736  29.630   6.442  0.00  0.00    -0.245 OA
ATOM     14  C   UNL     1     -30.896  29.340   6.667  0.00  0.00    +0.343 C 
BRANCH  14  15
ATOM     15  O   UNL     1     -31.540  29.504   7.842  0.00  0.00    -0.477 OA
ATOM     16  H   UNL     1     -31.726  28.760   8.382  0.00  0.00    +0.295 HD
ENDBRANCH  14  15
ENDBRANCH  10  14
ENDBRANCH   4   7
BRANCH   2  17
ATOM     17  O2* UNL     1     -36.558  26.561   5.488  0.00  0.00    -0.378 OA
ATOM     18  H2* UNL     1     -36.113  26.648   6.347  0.00  0.00    +0.211 HD
ENDBRANCH   2  17
BRANCH   3  19
ATOM     19  O3* UNL     1     -36.335  23.849   5.299  0.00  0.00    -0.379 OA
ATOM     20  H3* UNL     1     -36.380  22.909   5.061  0.00  0.00    +0.211 HD
ENDBRANCH   3  19
BRANCH   5  21
ATOM     21  C5* UNL     1     -34.429  24.404   2.147  0.00  0.00    +0.169 C 
BRANCH  21  22
ATOM     22  O5* UNL     1     -34.968  23.342   1.379  0.00  0.00    -0.379 OA
ATOM     23  H5* UNL     1     -34.372  23.145   0.639  0.00  0.00    +0.211 HD
ENDBRANCH  21  22
ENDBRANCH   5  21
TORSDOF 7
ENDMDL
MODEL 4
REMARK VINA RESULT:      -5.9      1.800      5.808
REMARK  Name = 191091
REMARK  7 active torsions:
REMARK  status: ('A' for Active; 'I' for Inactive)
REMARK    1  A    between atoms: C2*_2  and  O2*_17
REMARK    2  A    between atoms: C3*_3  and  O3*_19
REMARK    3  A    between atoms: C1*_4  and  N_7
REMARK    4  A    between atoms: C4*_5  and  C5*_21
REMARK    5  A    between atoms: C_10  and  C_14
REMARK    6  A    between atoms: C_14  and  O_15
REMARK    7  A    between atoms: C5*_21  and  O5*_22
REMARK                            x       y       z     vdW  Elec       q    Type
REMARK                         _______ _______ _______ _____ _____    ______ ____
ROOT
ATOM      1  O4* UNL     1     -35.363  23.412   3.902  0.00  0.00    -0.333 OA
ATOM      2  C2* UNL     1     -36.202  25.226   5.176  0.00  0.00    +0.187 C 
ATOM      3  C3* UNL     1     -34.886  24.779   5.776  0.00  0.00    +0.171 C 
ATOM      4  C1* UNL     1     -36.136  24.618   3.785  0.00  0.00    +0.228 C 
ATOM      5  C4* UNL     1     -34.731  23.379   5.199  0.00  0.00    +0.175 C 
ENDROOT
BRANCH   4   7
ATOM      6  O   UNL     1     -36.820  22.122   2.653  0.00  0.00    -0.269 OA
ATOM      7  N   UNL     1     -37.434  24.292   3.267  0.00  0.00    -0.229 N 
ATOM      8  C   UNL     1     -37.670  23.009   2.721  0.00  0.00    +0.261 C 
ATOM      9  C   UNL     1     -38.453  25.243   3.305  0.00  0.00    +0.070 C 
ATOM     10  C   UNL     1     -39.053  22.749   2.202  0.00  0.00    +0.129 C 
ATOM     11  C   UNL     1     -39.681  24.996   2.838  0.00  0.00    +0.017 C 
ATOM     12  C   UNL     1     -39.986  23.709   2.271  0.00  0.00    +0.012 C 
BRANCH  10  14
ATOM     13  O   UNL     1     -38.973  21.001   0.592  0.00  0.00    -0.245 OA
ATOM     14  C   UNL     1     -39.451  21.469   1.608  0.00  0.00    +0.343 C 
BRANCH  14  15
ATOM     15  O   UNL     1     -40.420  20.904   2.360  0.00  0.00    -0.477 OA
ATOM     16  H   UNL     1     -40.503  21.134   3.265  0.00  0.00    +0.295 HD
ENDBRANCH  14  15
ENDBRANCH  10  14
ENDBRANCH   4   7
BRANCH   2  17
ATOM     17  O2* UNL     1     -36.330  26.632   5.148  0.00  0.00    -0.378 OA
ATOM     18  H2* UNL     1     -36.632  26.913   4.270  0.00  0.00    +0.211 HD
ENDBRANCH   2  17
BRANCH   3  19
ATOM     19  O3* UNL     1     -33.816  25.582   5.276  0.00  0.00    -0.379 OA
ATOM     20  H3* UNL     1     -33.712  25.426   4.324  0.00  0.00    +0.211 HD
ENDBRANCH   3  19
BRANCH   5  21
ATOM     21  C5* UNL     1     -35.416  22.304   6.033  0.00  0.00    +0.169 C 
BRANCH  21  22
ATOM     22  O5* UNL     1     -35.542  21.132   5.248  0.00  0.00    -0.379 OA
ATOM     23  H5* UNL     1     -34.735  20.600   5.331  0.00  0.00    +0.211 HD
ENDBRANCH  21  22
ENDBRANCH   5  21
TORSDOF 7
ENDMDL
MODEL 5
REMARK VINA RESULT:      -5.9      2.699      5.515
REMARK  Name = 191091
REMARK  7 active torsions:
REMARK  status: ('A' for Active; 'I' for Inactive)
REMARK    1  A    between atoms: C2*_2  and  O2*_17
REMARK    2  A    between atoms: C3*_3  and  O3*_19
REMARK    3  A    between atoms: C1*_4  and  N_7
REMARK    4  A    between atoms: C4*_5  and  C5*_21
REMARK    5  A    between atoms: C_10  and  C_14
REMARK    6  A    between atoms: C_14  and  O_15
REMARK    7  A    between atoms: C5*_21  and  O5*_22
REMARK                            x       y       z     vdW  Elec       q    Type
REMARK                         _______ _______ _______ _____ _____    ______ ____
ROOT
ATOM      1  O4* UNL     1     -35.350  23.399   3.775  0.00  0.00    -0.333 OA
ATOM      2  C2* UNL     1     -36.237  25.180   5.061  0.00  0.00    +0.187 C 
ATOM      3  C3* UNL     1     -34.968  24.689   5.725  0.00  0.00    +0.171 C 
ATOM      4  C1* UNL     1     -36.094  24.622   3.656  0.00  0.00    +0.228 C 
ATOM      5  C4* UNL     1     -34.800  23.308   5.107  0.00  0.00    +0.175 C 
ENDROOT
BRANCH   4   7
ATOM      6  O   UNL     1     -37.861  26.589   2.663  0.00  0.00    -0.269 OA
ATOM      7  N   UNL     1     -37.363  24.338   3.047  0.00  0.00    -0.229 N 
ATOM      8  C   UNL     1     -38.171  25.401   2.583  0.00  0.00    +0.261 C 
ATOM      9  C   UNL     1     -37.789  23.017   2.918  0.00  0.00    +0.070 C 
ATOM     10  C   UNL     1     -39.481  25.020   1.959  0.00  0.00    +0.129 C 
ATOM     11  C   UNL     1     -38.959  22.693   2.359  0.00  0.00    +0.017 C 
ATOM     12  C   UNL     1     -39.828  23.728   1.866  0.00  0.00    +0.012 C 
BRANCH  10  14
ATOM     13  O   UNL     1     -40.859  26.010   0.293  0.00  0.00    -0.245 OA
ATOM     14  C   UNL     1     -40.427  26.008   1.430  0.00  0.00    +0.343 C 
BRANCH  14  15
ATOM     15  O   UNL     1     -40.734  26.901   2.395  0.00  0.00    -0.477 OA
ATOM     16  H   UNL     1     -40.992  26.601   3.245  0.00  0.00    +0.295 HD
ENDBRANCH  14  15
ENDBRANCH  10  14
ENDBRANCH   4   7
BRANCH   2  17
ATOM     17  O2* UNL     1     -36.340  26.589   5.078  0.00  0.00    -0.378 OA
ATOM     18  H2* UNL     1     -36.940  26.878   4.371  0.00  0.00    +0.211 HD
ENDBRANCH   2  17
BRANCH   3  19
ATOM     19  O3* UNL     1     -33.856  25.489   5.322  0.00  0.00    -0.379 OA
ATOM     20  H3* UNL     1     -33.474  25.925   6.100  0.00  0.00    +0.211 HD
ENDBRANCH   3  19
BRANCH   5  21
ATOM     21  C5* UNL     1     -35.553  22.216   5.857  0.00  0.00    +0.169 C 
BRANCH  21  22
ATOM     22  O5* UNL     1     -35.119  20.955   5.380  0.00  0.00    -0.379 OA
ATOM     23  H5* UNL     1     -34.182  20.833   5.600  0.00  0.00    +0.211 HD
ENDBRANCH  21  22
ENDBRANCH   5  21
TORSDOF 7
ENDMDL
MODEL 6
REMARK VINA RESULT:      -5.9      1.525      2.013
REMARK  Name = 191091
REMARK  7 active torsions:
REMARK  status: ('A' for Active; 'I' for Inactive)
REMARK    1  A    between atoms: C2*_2  and  O2*_17
REMARK    2  A    between atoms: C3*_3  and  O3*_19
REMARK    3  A    between atoms: C1*_4  and  N_7
REMARK    4  A    between atoms: C4*_5  and  C5*_21
REMARK    5  A    between atoms: C_10  and  C_14
REMARK    6  A    between atoms: C_14  and  O_15
REMARK    7  A    between atoms: C5*_21  and  O5*_22
REMARK                            x       y       z     vdW  Elec       q    Type
REMARK                         _______ _______ _______ _____ _____    ______ ____
ROOT
ATOM      1  O4* UNL     1     -36.809  21.902   1.416  0.00  0.00    -0.333 OA
ATOM      2  C2* UNL     1     -34.540  22.377   0.927  0.00  0.00    +0.187 C 
ATOM      3  C3* UNL     1     -35.108  21.525  -0.188  0.00  0.00    +0.171 C 
ATOM      4  C1* UNL     1     -35.799  22.909   1.589  0.00  0.00    +0.228 C 
ATOM      5  C4* UNL     1     -36.339  20.918   0.470  0.00  0.00    +0.175 C 
ENDROOT
BRANCH   4   7
ATOM      6  O   UNL     1     -35.616  25.477   2.750  0.00  0.00    -0.269 OA
ATOM      7  N   UNL     1     -35.619  23.153   2.992  0.00  0.00    -0.229 N 
ATOM      8  C   UNL     1     -35.540  24.481   3.469  0.00  0.00    +0.261 C 
ATOM      9  C   UNL     1     -35.522  22.078   3.875  0.00  0.00    +0.070 C 
ATOM     10  C   UNL     1     -35.351  24.650   4.948  0.00  0.00    +0.129 C 
ATOM     11  C   UNL     1     -35.355  22.244   5.191  0.00  0.00    +0.017 C 
ATOM     12  C   UNL     1     -35.267  23.571   5.739  0.00  0.00    +0.012 C 
BRANCH  10  14
ATOM     13  O   UNL     1     -34.255  26.388   6.143  0.00  0.00    -0.245 OA
ATOM     14  C   UNL     1     -35.253  25.963   5.591  0.00  0.00    +0.343 C 
BRANCH  14  15
ATOM     15  O   UNL     1     -36.430  26.613   5.476  0.00  0.00    -0.477 OA
ATOM     16  H   UNL     1     -36.564  27.423   5.928  0.00  0.00    +0.295 HD
ENDBRANCH  14  15
ENDBRANCH  10  14
ENDBRANCH   4   7
BRANCH   2  17
ATOM     17  O2* UNL     1     -33.705  23.408   0.441  0.00  0.00    -0.378 OA
ATOM     18  H2* UNL     1     -34.240  24.195   0.249  0.00  0.00    +0.211 HD
ENDBRANCH   2  17
BRANCH   3  19
ATOM     19  O3* UNL     1     -35.549  22.349  -1.267  0.00  0.00    -0.379 OA
ATOM     20  H3* UNL     1     -35.677  23.257  -0.949  0.00  0.00    +0.211 HD
ENDBRANCH   3  19
BRANCH   5  21
ATOM     21  C5* UNL     1     -36.042  19.632   1.232  0.00  0.00    +0.169 C 
BRANCH  21  22
ATOM     22  O5* UNL     1     -36.910  19.555   2.349  0.00  0.00    -0.379 OA
ATOM     23  H5* UNL     1     -37.542  20.291   2.317  0.00  0.00    +0.211 HD
ENDBRANCH  21  22
ENDBRANCH   5  21
TORSDOF 7
ENDMDL
MODEL 7
REMARK VINA RESULT:      -5.9      2.060      6.146
REMARK  Name = 191091
REMARK  7 active torsions:
REMARK  status: ('A' for Active; 'I' for Inactive)
REMARK    1  A    between atoms: C2*_2  and  O2*_17
REMARK    2  A    between atoms: C3*_3  and  O3*_19
REMARK    3  A    between atoms: C1*_4  and  N_7
REMARK    4  A    between atoms: C4*_5  and  C5*_21
REMARK    5  A    between atoms: C_10  and  C_14
REMARK    6  A    between atoms: C_14  and  O_15
REMARK    7  A    between atoms: C5*_21  and  O5*_22
REMARK                            x       y       z     vdW  Elec       q    Type
REMARK                         _______ _______ _______ _____ _____    ______ ____
ROOT
ATOM      1  O4* UNL     1     -33.544  25.580   4.196  0.00  0.00    -0.333 OA
ATOM      2  C2* UNL     1     -35.825  26.041   4.647  0.00  0.00    +0.187 C 
ATOM      3  C3* UNL     1     -35.039  27.330   4.757  0.00  0.00    +0.171 C 
ATOM      4  C1* UNL     1     -34.875  25.160   3.853  0.00  0.00    +0.228 C 
ATOM      5  C4* UNL     1     -33.614  26.822   4.929  0.00  0.00    +0.175 C 
ENDROOT
BRANCH   4   7
ATOM      6  O   UNL     1     -35.194  23.108   1.938  0.00  0.00    -0.269 OA
ATOM      7  N   UNL     1     -35.021  23.768   4.174  0.00  0.00    -0.229 N 
ATOM      8  C   UNL     1     -35.175  22.821   3.135  0.00  0.00    +0.261 C 
ATOM      9  C   UNL     1     -35.011  23.360   5.507  0.00  0.00    +0.070 C 
ATOM     10  C   UNL     1     -35.322  21.388   3.554  0.00  0.00    +0.129 C 
ATOM     11  C   UNL     1     -35.143  22.079   5.865  0.00  0.00    +0.017 C 
ATOM     12  C   UNL     1     -35.303  21.066   4.855  0.00  0.00    +0.012 C 
BRANCH  10  14
ATOM     13  O   UNL     1     -34.600  19.855   1.887  0.00  0.00    -0.245 OA
ATOM     14  C   UNL     1     -35.488  20.293   2.594  0.00  0.00    +0.343 C 
BRANCH  14  15
ATOM     15  O   UNL     1     -36.766  19.858   2.622  0.00  0.00    -0.477 OA
ATOM     16  H   UNL     1     -37.136  19.446   1.866  0.00  0.00    +0.295 HD
ENDBRANCH  14  15
ENDBRANCH  10  14
ENDBRANCH   4   7
BRANCH   2  17
ATOM     17  O2* UNL     1     -37.067  26.223   3.998  0.00  0.00    -0.378 OA
ATOM     18  H2* UNL     1     -36.914  26.478   3.074  0.00  0.00    +0.211 HD
ENDBRANCH   2  17
BRANCH   3  19
ATOM     19  O3* UNL     1     -35.101  28.054   3.527  0.00  0.00    -0.379 OA
ATOM     20  H3* UNL     1     -34.864  27.465   2.793  0.00  0.00    +0.211 HD
ENDBRANCH   3  19
BRANCH   5  21
ATOM     21  C5* UNL     1     -33.249  26.536   6.381  0.00  0.00    +0.169 C 
BRANCH  21  22
ATOM     22  O5* UNL     1     -32.611  27.680   6.921  0.00  0.00    -0.379 OA
ATOM     23  H5* UNL     1     -31.667  27.659   6.698  0.00  0.00    +0.211 HD
ENDBRANCH  21  22
ENDBRANCH   5  21
TORSDOF 7
ENDMDL
MODEL 8
REMARK VINA RESULT:      -5.8      1.795      6.149
REMARK  Name = 191091
REMARK  7 active torsions:
REMARK  status: ('A' for Active; 'I' for Inactive)
REMARK    1  A    between atoms: C2*_2  and  O2*_17
REMARK    2  A    between atoms: C3*_3  and  O3*_19
REMARK    3  A    between atoms: C1*_4  and  N_7
REMARK    4  A    between atoms: C4*_5  and  C5*_21
REMARK    5  A    between atoms: C_10  and  C_14
REMARK    6  A    between atoms: C_14  and  O_15
REMARK    7  A    between atoms: C5*_21  and  O5*_22
REMARK                            x       y       z     vdW  Elec       q    Type
REMARK                         _______ _______ _______ _____ _____    ______ ____
ROOT
ATOM      1  O4* UNL     1     -35.486  26.050   2.780  0.00  0.00    -0.333 OA
ATOM      2  C2* UNL     1     -35.412  24.657   4.696  0.00  0.00    +0.187 C 
ATOM      3  C3* UNL     1     -35.234  26.095   5.134  0.00  0.00    +0.171 C 
ATOM      4  C1* UNL     1     -36.013  24.823   3.310  0.00  0.00    +0.228 C 
ATOM      5  C4* UNL     1     -34.823  26.776   3.836  0.00  0.00    +0.175 C 
ENDROOT
BRANCH   4   7
ATOM      6  O   UNL     1     -37.409  22.371   3.158  0.00  0.00    -0.269 OA
ATOM      7  N   UNL     1     -35.664  23.745   2.429  0.00  0.00    -0.229 N 
ATOM      8  C   UNL     1     -36.432  22.558   2.433  0.00  0.00    +0.261 C 
ATOM      9  C   UNL     1     -34.569  23.876   1.575  0.00  0.00    +0.070 C 
ATOM     10  C   UNL     1     -36.001  21.481   1.483  0.00  0.00    +0.129 C 
ATOM     11  C   UNL     1     -34.198  22.907   0.733  0.00  0.00    +0.017 C 
ATOM     12  C   UNL     1     -34.938  21.674   0.688  0.00  0.00    +0.012 C 
BRANCH  10  14
ATOM     13  O   UNL     1     -37.086  19.711   0.324  0.00  0.00    -0.245 OA
ATOM     14  C   UNL     1     -36.697  20.195   1.370  0.00  0.00    +0.343 C 
BRANCH  14  15
ATOM     15  O   UNL     1     -36.833  19.647   2.596  0.00  0.00    -0.477 OA
ATOM     16  H   UNL     1     -36.154  19.102   2.944  0.00  0.00    +0.295 HD
ENDBRANCH  14  15
ENDBRANCH  10  14
ENDBRANCH   4   7
BRANCH   2  17
ATOM     17  O2* UNL     1     -36.252  23.930   5.569  0.00  0.00    -0.378 OA
ATOM     18  H2* UNL     1     -35.762  23.175   5.934  0.00  0.00    +0.211 HD
ENDBRANCH   2  17
BRANCH   3  19
ATOM     19  O3* UNL     1     -36.486  26.648   5.543  0.00  0.00    -0.379 OA
ATOM     20  H3* UNL     1     -36.330  27.399   6.136  0.00  0.00    +0.211 HD
ENDBRANCH   3  19
BRANCH   5  21
ATOM     21  C5* UNL     1     -33.322  26.724   3.578  0.00  0.00    +0.169 C 
BRANCH  21  22
ATOM     22  O5* UNL     1     -32.645  27.098   4.765  0.00  0.00    -0.379 OA
ATOM     23  H5* UNL     1     -31.687  27.085   4.607  0.00  0.00    +0.211 HD
ENDBRANCH  21  22
ENDBRANCH   5  21
TORSDOF 7
ENDMDL
MODEL 9
REMARK VINA RESULT:      -5.7      2.301      5.789
REMARK  Name = 191091
REMARK  7 active torsions:
REMARK  status: ('A' for Active; 'I' for Inactive)
REMARK    1  A    between atoms: C2*_2  and  O2*_17
REMARK    2  A    between atoms: C3*_3  and  O3*_19
REMARK    3  A    between atoms: C1*_4  and  N_7
REMARK    4  A    between atoms: C4*_5  and  C5*_21
REMARK    5  A    between atoms: C_10  and  C_14
REMARK    6  A    between atoms: C_14  and  O_15
REMARK    7  A    between atoms: C5*_21  and  O5*_22
REMARK                            x       y       z     vdW  Elec       q    Type
REMARK                         _______ _______ _______ _____ _____    ______ ____
ROOT
ATOM      1  O4* UNL     1     -36.567  24.820   1.763  0.00  0.00    -0.333 OA
ATOM      2  C2* UNL     1     -36.118  23.764   3.836  0.00  0.00    +0.187 C 
ATOM      3  C3* UNL     1     -36.807  25.086   4.104  0.00  0.00    +0.171 C 
ATOM      4  C1* UNL     1     -36.454  23.525   2.374  0.00  0.00    +0.228 C 
ATOM      5  C4* UNL     1     -36.590  25.830   2.794  0.00  0.00    +0.175 C 
ENDROOT
BRANCH   4   7
ATOM      6  O   UNL     1     -36.165  20.719   2.535  0.00  0.00    -0.269 OA
ATOM      7  N   UNL     1     -35.437  22.775   1.694  0.00  0.00    -0.229 N 
ATOM      8  C   UNL     1     -35.382  21.370   1.844  0.00  0.00    +0.261 C 
ATOM      9  C   UNL     1     -34.509  23.437   0.890  0.00  0.00    +0.070 C 
ATOM     10  C   UNL     1     -34.289  20.661   1.099  0.00  0.00    +0.129 C 
ATOM     11  C   UNL     1     -33.541  22.791   0.233  0.00  0.00    +0.017 C 
ATOM     12  C   UNL     1     -33.431  21.361   0.343  0.00  0.00    +0.012 C 
BRANCH  10  14
ATOM     13  O   UNL     1     -33.111  18.655   1.588  0.00  0.00    -0.245 OA
ATOM     14  C   UNL     1     -34.104  19.208   1.154  0.00  0.00    +0.343 C 
BRANCH  14  15
ATOM     15  O   UNL     1     -35.196  18.594   0.650  0.00  0.00    -0.477 OA
ATOM     16  H   UNL     1     -35.200  17.663   0.540  0.00  0.00    +0.295 HD
ENDBRANCH  14  15
ENDBRANCH  10  14
ENDBRANCH   4   7
BRANCH   2  17
ATOM     17  O2* UNL     1     -36.590  22.733   4.678  0.00  0.00    -0.378 OA
ATOM     18  H2* UNL     1     -35.943  22.009   4.696  0.00  0.00    +0.211 HD
ENDBRANCH   2  17
BRANCH   3  19
ATOM     19  O3* UNL     1     -38.212  24.887   4.269  0.00  0.00    -0.379 OA
ATOM     20  H3* UNL     1     -38.462  25.095   5.183  0.00  0.00    +0.211 HD
ENDBRANCH   3  19
BRANCH   5  21
ATOM     21  C5* UNL     1     -35.270  26.588   2.744  0.00  0.00    +0.169 C 
BRANCH  21  22
ATOM     22  O5* UNL     1     -35.293  27.603   3.733  0.00  0.00    -0.379 OA
ATOM     23  H5* UNL     1     -34.413  28.008   3.799  0.00  0.00    +0.211 HD
ENDBRANCH  21  22
ENDBRANCH   5  21
TORSDOF 7
ENDMDL
