MODEL 1
REMARK VINA RESULT:      -6.2      0.000      0.000
REMARK  Name = 189825
REMARK  4 active torsions:
REMARK  status: ('A' for Active; 'I' for Inactive)
REMARK    1  A    between atoms: C_9  and  O_20
REMARK    2  A    between atoms: C_10  and  O_22
REMARK    3  A    between atoms: C_12  and  O_18
REMARK    4  A    between atoms: C_16  and  O_24
REMARK                            x       y       z     vdW  Elec       q    Type
REMARK                         _______ _______ _______ _____ _____    ______ ____
ROOT
ATOM      1  O   UNL     1     -34.155  24.993   1.175  0.00  0.00    -0.286 OA
ATOM      2  O   UNL     1     -33.790  26.479   6.294  0.00  0.00    -0.286 OA
ATOM      3  C   UNL     1     -33.336  27.020   4.038  0.00  0.00    +0.078 C 
ATOM      4  C   UNL     1     -33.434  26.625   2.702  0.00  0.00    +0.079 C 
ATOM      5  C   UNL     1     -34.594  24.476   3.422  0.00  0.00    +0.076 C 
ATOM      6  C   UNL     1     -34.495  24.870   4.759  0.00  0.00    +0.048 C 
ATOM      7  C   UNL     1     -34.067  25.339   2.345  0.00  0.00    +0.202 C 
ATOM      8  C   UNL     1     -33.862  26.158   5.115  0.00  0.00    +0.199 C 
ATOM      9  C   UNL     1     -32.733  28.242   4.362  0.00  0.00    +0.133 C 
ATOM     10  C   UNL     1     -32.932  27.453   1.690  0.00  0.00    +0.137 C 
ATOM     11  C   UNL     1     -32.233  29.063   3.352  0.00  0.00    +0.015 C 
ATOM     12  C   UNL     1     -35.195  23.255   3.098  0.00  0.00    +0.145 C 
ATOM     13  C   UNL     1     -34.998  24.044   5.770  0.00  0.00    +0.040 C 
ATOM     14  C   UNL     1     -32.332  28.669   2.018  0.00  0.00    +0.035 C 
ATOM     15  C   UNL     1     -35.696  22.433   4.109  0.00  0.00    +0.074 C 
ATOM     16  C   UNL     1     -35.597  22.827   5.443  0.00  0.00    +0.137 C 
ATOM     17  C   UNL     1     -31.585  30.370   3.673  0.00  0.00    +0.034 C 
ENDROOT
BRANCH  12  18
ATOM     18  O   UNL     1     -35.326  22.808   1.817  0.00  0.00    -0.471 OA
ATOM     19  C   UNL     1     -35.152  21.410   1.598  0.00  0.00    +0.252 C 
ENDBRANCH  12  18
BRANCH   9  20
ATOM     20  O   UNL     1     -32.613  28.671   5.652  0.00  0.00    -0.506 OA
ATOM     21  H   UNL     1     -33.173  29.351   5.974  0.00  0.00    +0.292 HD
ENDBRANCH   9  20
BRANCH  10  22
ATOM     22  O   UNL     1     -32.995  27.130   0.367  0.00  0.00    -0.505 OA
ATOM     23  H   UNL     1     -33.480  26.378   0.091  0.00  0.00    +0.292 HD
ENDBRANCH  10  22
BRANCH  16  24
ATOM     24  O   UNL     1     -36.086  22.023   6.427  0.00  0.00    -0.505 OA
ATOM     25  H   UNL     1     -35.686  21.193   6.595  0.00  0.00    +0.292 HD
ENDBRANCH  16  24
TORSDOF 4
ENDMDL
MODEL 2
REMARK VINA RESULT:      -6.1      4.050      6.014
REMARK  Name = 189825
REMARK  4 active torsions:
REMARK  status: ('A' for Active; 'I' for Inactive)
REMARK    1  A    between atoms: C_9  and  O_20
REMARK    2  A    between atoms: C_10  and  O_22
REMARK    3  A    between atoms: C_12  and  O_18
REMARK    4  A    between atoms: C_16  and  O_24
REMARK                            x       y       z     vdW  Elec       q    Type
REMARK                         _______ _______ _______ _____ _____    ______ ____
ROOT
ATOM      1  O   UNL     1     -37.547  21.011   2.250  0.00  0.00    -0.286 OA
ATOM      2  O   UNL     1     -38.784  26.158   2.977  0.00  0.00    -0.286 OA
ATOM      3  C   UNL     1     -37.337  24.372   3.530  0.00  0.00    +0.078 C 
ATOM      4  C   UNL     1     -37.019  23.026   3.335  0.00  0.00    +0.079 C 
ATOM      5  C   UNL     1     -38.972  22.798   1.717  0.00  0.00    +0.076 C 
ATOM      6  C   UNL     1     -39.291  24.144   1.912  0.00  0.00    +0.048 C 
ATOM      7  C   UNL     1     -37.825  22.190   2.422  0.00  0.00    +0.202 C 
ATOM      8  C   UNL     1     -38.484  24.980   2.825  0.00  0.00    +0.199 C 
ATOM      9  C   UNL     1     -36.565  25.153   4.398  0.00  0.00    +0.133 C 
ATOM     10  C   UNL     1     -35.929  22.461   4.008  0.00  0.00    +0.137 C 
ATOM     11  C   UNL     1     -35.480  24.587   5.067  0.00  0.00    +0.015 C 
ATOM     12  C   UNL     1     -39.744  22.018   0.849  0.00  0.00    +0.145 C 
ATOM     13  C   UNL     1     -40.380  24.710   1.239  0.00  0.00    +0.040 C 
ATOM     14  C   UNL     1     -35.162  23.243   4.873  0.00  0.00    +0.035 C 
ATOM     15  C   UNL     1     -40.830  22.584   0.180  0.00  0.00    +0.074 C 
ATOM     16  C   UNL     1     -41.147  23.927   0.375  0.00  0.00    +0.137 C 
ATOM     17  C   UNL     1     -34.643  25.400   6.000  0.00  0.00    +0.034 C 
ENDROOT
BRANCH  12  18
ATOM     18  O   UNL     1     -39.491  20.700   0.612  0.00  0.00    -0.471 OA
ATOM     19  C   UNL     1     -39.351  20.302  -0.750  0.00  0.00    +0.252 C 
ENDBRANCH  12  18
BRANCH   9  20
ATOM     20  O   UNL     1     -36.836  26.472   4.622  0.00  0.00    -0.506 OA
ATOM     21  H   UNL     1     -37.042  27.036   3.902  0.00  0.00    +0.292 HD
ENDBRANCH   9  20
BRANCH  10  22
ATOM     22  O   UNL     1     -35.563  21.156   3.864  0.00  0.00    -0.505 OA
ATOM     23  H   UNL     1     -34.778  20.843   4.268  0.00  0.00    +0.292 HD
ENDBRANCH  10  22
BRANCH  16  24
ATOM     24  O   UNL     1     -42.207  24.477  -0.280  0.00  0.00    -0.505 OA
ATOM     25  H   UNL     1     -42.692  25.173   0.117  0.00  0.00    +0.292 HD
ENDBRANCH  16  24
TORSDOF 4
ENDMDL
MODEL 3
REMARK VINA RESULT:      -6.1      4.666      7.331
REMARK  Name = 189825
REMARK  4 active torsions:
REMARK  status: ('A' for Active; 'I' for Inactive)
REMARK    1  A    between atoms: C_9  and  O_20
REMARK    2  A    between atoms: C_10  and  O_22
REMARK    3  A    between atoms: C_12  and  O_18
REMARK    4  A    between atoms: C_16  and  O_24
REMARK                            x       y       z     vdW  Elec       q    Type
REMARK                         _______ _______ _______ _____ _____    ______ ____
ROOT
ATOM      1  O   UNL     1     -37.858  25.032   4.047  0.00  0.00    -0.286 OA
ATOM      2  O   UNL     1     -39.587  21.487   0.442  0.00  0.00    -0.286 OA
ATOM      3  C   UNL     1     -39.980  23.540   1.548  0.00  0.00    +0.078 C 
ATOM      4  C   UNL     1     -39.523  24.462   2.491  0.00  0.00    +0.079 C 
ATOM      5  C   UNL     1     -37.488  22.997   2.937  0.00  0.00    +0.076 C 
ATOM      6  C   UNL     1     -37.947  22.073   1.994  0.00  0.00    +0.048 C 
ATOM      7  C   UNL     1     -38.260  24.224   3.220  0.00  0.00    +0.202 C 
ATOM      8  C   UNL     1     -39.209  22.312   1.265  0.00  0.00    +0.199 C 
ATOM      9  C   UNL     1     -41.179  23.777   0.864  0.00  0.00    +0.133 C 
ATOM     10  C   UNL     1     -40.263  25.622   2.750  0.00  0.00    +0.137 C 
ATOM     11  C   UNL     1     -41.913  24.933   1.125  0.00  0.00    +0.015 C 
ATOM     12  C   UNL     1     -36.291  22.759   3.621  0.00  0.00    +0.145 C 
ATOM     13  C   UNL     1     -37.207  20.914   1.735  0.00  0.00    +0.040 C 
ATOM     14  C   UNL     1     -41.457  25.854   2.066  0.00  0.00    +0.035 C 
ATOM     15  C   UNL     1     -35.556  21.602   3.361  0.00  0.00    +0.074 C 
ATOM     16  C   UNL     1     -36.014  20.681   2.419  0.00  0.00    +0.137 C 
ATOM     17  C   UNL     1     -43.196  25.208   0.409  0.00  0.00    +0.034 C 
ENDROOT
BRANCH  12  18
ATOM     18  O   UNL     1     -35.786  23.616   4.553  0.00  0.00    -0.471 OA
ATOM     19  C   UNL     1     -35.113  23.036   5.669  0.00  0.00    +0.252 C 
ENDBRANCH  12  18
BRANCH   9  20
ATOM     20  O   UNL     1     -41.668  22.906  -0.066  0.00  0.00    -0.506 OA
ATOM     21  H   UNL     1     -42.496  22.489   0.073  0.00  0.00    +0.292 HD
ENDBRANCH   9  20
BRANCH  10  22
ATOM     22  O   UNL     1     -39.875  26.563   3.656  0.00  0.00    -0.505 OA
ATOM     23  H   UNL     1     -39.165  27.141   3.458  0.00  0.00    +0.292 HD
ENDBRANCH  10  22
BRANCH  16  24
ATOM     24  O   UNL     1     -35.294  19.553   2.167  0.00  0.00    -0.505 OA
ATOM     25  H   UNL     1     -34.600  19.302   2.743  0.00  0.00    +0.292 HD
ENDBRANCH  16  24
TORSDOF 4
ENDMDL
MODEL 4
REMARK VINA RESULT:      -6.1      2.917      6.250
REMARK  Name = 189825
REMARK  4 active torsions:
REMARK  status: ('A' for Active; 'I' for Inactive)
REMARK    1  A    between atoms: C_9  and  O_20
REMARK    2  A    between atoms: C_10  and  O_22
REMARK    3  A    between atoms: C_12  and  O_18
REMARK    4  A    between atoms: C_16  and  O_24
REMARK                            x       y       z     vdW  Elec       q    Type
REMARK                         _______ _______ _______ _____ _____    ______ ____
ROOT
ATOM      1  O   UNL     1     -34.259  27.832   3.871  0.00  0.00    -0.286 OA
ATOM      2  O   UNL     1     -37.785  24.238   2.084  0.00  0.00    -0.286 OA
ATOM      3  C   UNL     1     -36.063  24.724   3.629  0.00  0.00    +0.078 C 
ATOM      4  C   UNL     1     -35.143  25.668   4.091  0.00  0.00    +0.079 C 
ATOM      5  C   UNL     1     -35.970  27.328   2.345  0.00  0.00    +0.076 C 
ATOM      6  C   UNL     1     -36.890  26.383   1.883  0.00  0.00    +0.048 C 
ATOM      7  C   UNL     1     -35.064  27.004   3.466  0.00  0.00    +0.202 C 
ATOM      8  C   UNL     1     -36.969  25.046   2.509  0.00  0.00    +0.199 C 
ATOM      9  C   UNL     1     -36.128  23.461   4.229  0.00  0.00    +0.133 C 
ATOM     10  C   UNL     1     -34.290  25.350   5.154  0.00  0.00    +0.137 C 
ATOM     11  C   UNL     1     -35.275  23.148   5.288  0.00  0.00    +0.015 C 
ATOM     12  C   UNL     1     -35.905  28.589   1.744  0.00  0.00    +0.145 C 
ATOM     13  C   UNL     1     -37.743  26.700   0.820  0.00  0.00    +0.040 C 
ATOM     14  C   UNL     1     -34.358  24.090   5.750  0.00  0.00    +0.035 C 
ATOM     15  C   UNL     1     -36.757  28.903   0.685  0.00  0.00    +0.074 C 
ATOM     16  C   UNL     1     -37.675  27.960   0.224  0.00  0.00    +0.137 C 
ATOM     17  C   UNL     1     -35.326  21.806   5.945  0.00  0.00    +0.034 C 
ENDROOT
BRANCH  12  18
ATOM     18  O   UNL     1     -35.033  29.558   2.144  0.00  0.00    -0.471 OA
ATOM     19  C   UNL     1     -35.594  30.797   2.574  0.00  0.00    +0.252 C 
ENDBRANCH  12  18
BRANCH   9  20
ATOM     20  O   UNL     1     -37.008  22.504   3.814  0.00  0.00    -0.506 OA
ATOM     21  H   UNL     1     -36.723  21.827   3.231  0.00  0.00    +0.292 HD
ENDBRANCH   9  20
BRANCH  10  22
ATOM     22  O   UNL     1     -33.371  26.223   5.655  0.00  0.00    -0.505 OA
ATOM     23  H   UNL     1     -32.797  26.683   5.075  0.00  0.00    +0.292 HD
ENDBRANCH  10  22
BRANCH  16  24
ATOM     24  O   UNL     1     -38.505  28.269  -0.810  0.00  0.00    -0.505 OA
ATOM     25  H   UNL     1     -38.573  29.154  -1.108  0.00  0.00    +0.292 HD
ENDBRANCH  16  24
TORSDOF 4
ENDMDL
MODEL 5
REMARK VINA RESULT:      -5.9      3.826      7.151
REMARK  Name = 189825
REMARK  4 active torsions:
REMARK  status: ('A' for Active; 'I' for Inactive)
REMARK    1  A    between atoms: C_9  and  O_20
REMARK    2  A    between atoms: C_10  and  O_22
REMARK    3  A    between atoms: C_12  and  O_18
REMARK    4  A    between atoms: C_16  and  O_24
REMARK                            x       y       z     vdW  Elec       q    Type
REMARK                         _______ _______ _______ _____ _____    ______ ____
ROOT
ATOM      1  O   UNL     1     -35.919  20.691   3.132  0.00  0.00    -0.286 OA
ATOM      2  O   UNL     1     -38.683  24.784   1.093  0.00  0.00    -0.286 OA
ATOM      3  C   UNL     1     -38.054  22.515   0.876  0.00  0.00    +0.078 C 
ATOM      4  C   UNL     1     -37.329  21.450   1.414  0.00  0.00    +0.079 C 
ATOM      5  C   UNL     1     -36.556  22.942   3.327  0.00  0.00    +0.076 C 
ATOM      6  C   UNL     1     -37.280  24.008   2.788  0.00  0.00    +0.048 C 
ATOM      7  C   UNL     1     -36.554  21.624   2.659  0.00  0.00    +0.202 C 
ATOM      8  C   UNL     1     -38.056  23.833   1.543  0.00  0.00    +0.199 C 
ATOM      9  C   UNL     1     -38.785  22.337  -0.305  0.00  0.00    +0.133 C 
ATOM     10  C   UNL     1     -37.336  20.205   0.772  0.00  0.00    +0.137 C 
ATOM     11  C   UNL     1     -38.788  21.095  -0.942  0.00  0.00    +0.015 C 
ATOM     12  C   UNL     1     -35.825  23.121   4.507  0.00  0.00    +0.145 C 
ATOM     13  C   UNL     1     -37.274  25.252   3.429  0.00  0.00    +0.040 C 
ATOM     14  C   UNL     1     -38.065  20.032  -0.404  0.00  0.00    +0.035 C 
ATOM     15  C   UNL     1     -35.821  24.363   5.144  0.00  0.00    +0.074 C 
ATOM     16  C   UNL     1     -36.544  25.426   4.606  0.00  0.00    +0.137 C 
ATOM     17  C   UNL     1     -39.559  20.881  -2.203  0.00  0.00    +0.034 C 
ENDROOT
BRANCH  12  18
ATOM     18  O   UNL     1     -35.097  22.126   5.087  0.00  0.00    -0.471 OA
ATOM     19  C   UNL     1     -35.301  21.902   6.481  0.00  0.00    +0.252 C 
ENDBRANCH  12  18
BRANCH   9  20
ATOM     20  O   UNL     1     -39.508  23.346  -0.871  0.00  0.00    -0.506 OA
ATOM     21  H   UNL     1     -39.117  23.891  -1.527  0.00  0.00    +0.292 HD
ENDBRANCH   9  20
BRANCH  10  22
ATOM     22  O   UNL     1     -36.652  19.124   1.243  0.00  0.00    -0.505 OA
ATOM     23  H   UNL     1     -36.872  18.264   0.943  0.00  0.00    +0.292 HD
ENDBRANCH  10  22
BRANCH  16  24
ATOM     24  O   UNL     1     -36.538  26.637   5.229  0.00  0.00    -0.505 OA
ATOM     25  H   UNL     1     -35.725  27.039   5.464  0.00  0.00    +0.292 HD
ENDBRANCH  16  24
TORSDOF 4
ENDMDL
MODEL 6
REMARK VINA RESULT:      -5.8      3.707      6.552
REMARK  Name = 189825
REMARK  4 active torsions:
REMARK  status: ('A' for Active; 'I' for Inactive)
REMARK    1  A    between atoms: C_9  and  O_20
REMARK    2  A    between atoms: C_10  and  O_22
REMARK    3  A    between atoms: C_12  and  O_18
REMARK    4  A    between atoms: C_16  and  O_24
REMARK                            x       y       z     vdW  Elec       q    Type
REMARK                         _______ _______ _______ _____ _____    ______ ____
ROOT
ATOM      1  O   UNL     1     -37.591  22.169   3.133  0.00  0.00    -0.286 OA
ATOM      2  O   UNL     1     -33.782  24.543   0.235  0.00  0.00    -0.286 OA
ATOM      3  C   UNL     1     -34.640  22.515   1.096  0.00  0.00    +0.078 C 
ATOM      4  C   UNL     1     -35.639  21.902   1.855  0.00  0.00    +0.079 C 
ATOM      5  C   UNL     1     -36.720  24.170   2.268  0.00  0.00    +0.076 C 
ATOM      6  C   UNL     1     -35.720  24.784   1.510  0.00  0.00    +0.048 C 
ATOM      7  C   UNL     1     -36.715  22.706   2.468  0.00  0.00    +0.202 C 
ATOM      8  C   UNL     1     -34.644  23.979   0.896  0.00  0.00    +0.199 C 
ATOM      9  C   UNL     1     -33.625  21.742   0.520  0.00  0.00    +0.133 C 
ATOM     10  C   UNL     1     -35.624  20.513   2.036  0.00  0.00    +0.137 C 
ATOM     11  C   UNL     1     -33.614  20.359   0.704  0.00  0.00    +0.015 C 
ATOM     12  C   UNL     1     -37.733  24.944   2.845  0.00  0.00    +0.145 C 
ATOM     13  C   UNL     1     -35.735  26.172   1.328  0.00  0.00    +0.040 C 
ATOM     14  C   UNL     1     -34.611  19.746   1.461  0.00  0.00    +0.035 C 
ATOM     15  C   UNL     1     -37.745  26.327   2.661  0.00  0.00    +0.074 C 
ATOM     16  C   UNL     1     -36.748  26.940   1.904  0.00  0.00    +0.137 C 
ATOM     17  C   UNL     1     -32.541  19.512   0.100  0.00  0.00    +0.034 C 
ENDROOT
BRANCH  12  18
ATOM     18  O   UNL     1     -38.739  24.411   3.595  0.00  0.00    -0.471 OA
ATOM     19  C   UNL     1     -40.049  24.935   3.389  0.00  0.00    +0.252 C 
ENDBRANCH  12  18
BRANCH   9  20
ATOM     20  O   UNL     1     -32.628  22.295  -0.229  0.00  0.00    -0.506 OA
ATOM     21  H   UNL     1     -32.060  22.938   0.150  0.00  0.00    +0.292 HD
ENDBRANCH   9  20
BRANCH  10  22
ATOM     22  O   UNL     1     -36.567  19.850   2.763  0.00  0.00    -0.505 OA
ATOM     23  H   UNL     1     -36.319  19.125   3.302  0.00  0.00    +0.292 HD
ENDBRANCH  10  22
BRANCH  16  24
ATOM     24  O   UNL     1     -36.762  28.290   1.727  0.00  0.00    -0.505 OA
ATOM     25  H   UNL     1     -37.071  28.653   0.920  0.00  0.00    +0.292 HD
ENDBRANCH  16  24
TORSDOF 4
ENDMDL
MODEL 7
REMARK VINA RESULT:      -5.8      4.000      6.173
REMARK  Name = 189825
REMARK  4 active torsions:
REMARK  status: ('A' for Active; 'I' for Inactive)
REMARK    1  A    between atoms: C_9  and  O_20
REMARK    2  A    between atoms: C_10  and  O_22
REMARK    3  A    between atoms: C_12  and  O_18
REMARK    4  A    between atoms: C_16  and  O_24
REMARK                            x       y       z     vdW  Elec       q    Type
REMARK                         _______ _______ _______ _____ _____    ______ ____
ROOT
ATOM      1  O   UNL     1     -37.779  22.634   3.375  0.00  0.00    -0.286 OA
ATOM      2  O   UNL     1     -37.072  27.713   1.875  0.00  0.00    -0.286 OA
ATOM      3  C   UNL     1     -38.479  25.813   1.833  0.00  0.00    +0.078 C 
ATOM      4  C   UNL     1     -38.657  24.486   2.229  0.00  0.00    +0.079 C 
ATOM      5  C   UNL     1     -36.398  24.532   3.402  0.00  0.00    +0.076 C 
ATOM      6  C   UNL     1     -36.219  25.859   3.006  0.00  0.00    +0.048 C 
ATOM      7  C   UNL     1     -37.624  23.797   3.028  0.00  0.00    +0.202 C 
ATOM      8  C   UNL     1     -37.254  26.548   2.207  0.00  0.00    +0.199 C 
ATOM      9  C   UNL     1     -39.467  26.455   1.076  0.00  0.00    +0.133 C 
ATOM     10  C   UNL     1     -39.824  23.800   1.868  0.00  0.00    +0.137 C 
ATOM     11  C   UNL     1     -40.627  25.768   0.718  0.00  0.00    +0.015 C 
ATOM     12  C   UNL     1     -35.410  23.890   4.158  0.00  0.00    +0.145 C 
ATOM     13  C   UNL     1     -35.054  26.545   3.367  0.00  0.00    +0.040 C 
ATOM     14  C   UNL     1     -40.805  24.443   1.113  0.00  0.00    +0.035 C 
ATOM     15  C   UNL     1     -34.249  24.577   4.516  0.00  0.00    +0.074 C 
ATOM     16  C   UNL     1     -34.072  25.902   4.121  0.00  0.00    +0.137 C 
ATOM     17  C   UNL     1     -41.694  26.431  -0.090  0.00  0.00    +0.034 C 
ENDROOT
BRANCH  12  18
ATOM     18  O   UNL     1     -35.519  22.598   4.578  0.00  0.00    -0.471 OA
ATOM     19  C   UNL     1     -35.190  22.330   5.940  0.00  0.00    +0.252 C 
ENDBRANCH  12  18
BRANCH   9  20
ATOM     20  O   UNL     1     -39.339  27.750   0.665  0.00  0.00    -0.506 OA
ATOM     21  H   UNL     1     -38.510  28.184   0.735  0.00  0.00    +0.292 HD
ENDBRANCH   9  20
BRANCH  10  22
ATOM     22  O   UNL     1     -40.062  22.505   2.220  0.00  0.00    -0.505 OA
ATOM     23  H   UNL     1     -40.673  22.311   2.903  0.00  0.00    +0.292 HD
ENDBRANCH  10  22
BRANCH  16  24
ATOM     24  O   UNL     1     -32.938  26.569   4.471  0.00  0.00    -0.505 OA
ATOM     25  H   UNL     1     -32.110  26.132   4.445  0.00  0.00    +0.292 HD
ENDBRANCH  16  24
TORSDOF 4
ENDMDL
MODEL 8
REMARK VINA RESULT:      -5.8      1.525      5.448
REMARK  Name = 189825
REMARK  4 active torsions:
REMARK  status: ('A' for Active; 'I' for Inactive)
REMARK    1  A    between atoms: C_9  and  O_20
REMARK    2  A    between atoms: C_10  and  O_22
REMARK    3  A    between atoms: C_12  and  O_18
REMARK    4  A    between atoms: C_16  and  O_24
REMARK                            x       y       z     vdW  Elec       q    Type
REMARK                         _______ _______ _______ _____ _____    ______ ____
ROOT
ATOM      1  O   UNL     1     -33.363  26.406   1.508  0.00  0.00    -0.286 OA
ATOM      2  O   UNL     1     -35.297  23.988   5.862  0.00  0.00    -0.286 OA
ATOM      3  C   UNL     1     -35.196  24.030   3.500  0.00  0.00    +0.078 C 
ATOM      4  C   UNL     1     -34.687  24.667   2.367  0.00  0.00    +0.079 C 
ATOM      5  C   UNL     1     -33.479  26.346   3.852  0.00  0.00    +0.076 C 
ATOM      6  C   UNL     1     -33.989  25.709   4.986  0.00  0.00    +0.048 C 
ATOM      7  C   UNL     1     -33.810  25.847   2.501  0.00  0.00    +0.202 C 
ATOM      8  C   UNL     1     -34.865  24.527   4.851  0.00  0.00    +0.199 C 
ATOM      9  C   UNL     1     -36.026  22.911   3.359  0.00  0.00    +0.133 C 
ATOM     10  C   UNL     1     -35.007  24.184   1.092  0.00  0.00    +0.137 C 
ATOM     11  C   UNL     1     -36.343  22.435   2.088  0.00  0.00    +0.015 C 
ATOM     12  C   UNL     1     -32.650  27.464   3.993  0.00  0.00    +0.145 C 
ATOM     13  C   UNL     1     -33.669  26.190   6.261  0.00  0.00    +0.040 C 
ATOM     14  C   UNL     1     -35.835  23.070   0.956  0.00  0.00    +0.035 C 
ATOM     15  C   UNL     1     -32.332  27.941   5.266  0.00  0.00    +0.074 C 
ATOM     16  C   UNL     1     -32.841  27.305   6.397  0.00  0.00    +0.137 C 
ATOM     17  C   UNL     1     -37.228  21.243   1.911  0.00  0.00    +0.034 C 
ENDROOT
BRANCH  12  18
ATOM     18  O   UNL     1     -32.118  28.133   2.931  0.00  0.00    -0.471 OA
ATOM     19  C   UNL     1     -32.327  29.543   2.884  0.00  0.00    +0.252 C 
ENDBRANCH  12  18
BRANCH   9  20
ATOM     20  O   UNL     1     -36.549  22.255   4.436  0.00  0.00    -0.506 OA
ATOM     21  H   UNL     1     -37.108  21.513   4.306  0.00  0.00    +0.292 HD
ENDBRANCH   9  20
BRANCH  10  22
ATOM     22  O   UNL     1     -34.545  24.757  -0.056  0.00  0.00    -0.505 OA
ATOM     23  H   UNL     1     -33.893  25.428  -0.015  0.00  0.00    +0.292 HD
ENDBRANCH  10  22
BRANCH  16  24
ATOM     24  O   UNL     1     -32.530  27.774   7.637  0.00  0.00    -0.505 OA
ATOM     25  H   UNL     1     -31.644  27.994   7.846  0.00  0.00    +0.292 HD
ENDBRANCH  16  24
TORSDOF 4
ENDMDL
MODEL 9
REMARK VINA RESULT:      -5.7      3.244      5.813
REMARK  Name = 189825
REMARK  4 active torsions:
REMARK  status: ('A' for Active; 'I' for Inactive)
REMARK    1  A    between atoms: C_9  and  O_20
REMARK    2  A    between atoms: C_10  and  O_22
REMARK    3  A    between atoms: C_12  and  O_18
REMARK    4  A    between atoms: C_16  and  O_24
REMARK                            x       y       z     vdW  Elec       q    Type
REMARK                         _______ _______ _______ _____ _____    ______ ____
ROOT
ATOM      1  O   UNL     1     -35.195  20.052   3.000  0.00  0.00    -0.286 OA
ATOM      2  O   UNL     1     -35.652  24.894   0.787  0.00  0.00    -0.286 OA
ATOM      3  C   UNL     1     -35.537  23.631   2.783  0.00  0.00    +0.078 C 
ATOM      4  C   UNL     1     -35.418  22.363   3.354  0.00  0.00    +0.079 C 
ATOM      5  C   UNL     1     -35.311  21.326   1.031  0.00  0.00    +0.076 C 
ATOM      6  C   UNL     1     -35.432  22.595   0.459  0.00  0.00    +0.048 C 
ATOM      7  C   UNL     1     -35.300  21.164   2.500  0.00  0.00    +0.202 C 
ATOM      8  C   UNL     1     -35.549  23.794   1.315  0.00  0.00    +0.199 C 
ATOM      9  C   UNL     1     -35.649  24.760   3.604  0.00  0.00    +0.133 C 
ATOM     10  C   UNL     1     -35.408  22.223   4.747  0.00  0.00    +0.137 C 
ATOM     11  C   UNL     1     -35.639  24.616   4.991  0.00  0.00    +0.015 C 
ATOM     12  C   UNL     1     -35.201  20.198   0.210  0.00  0.00    +0.145 C 
ATOM     13  C   UNL     1     -35.441  22.736  -0.933  0.00  0.00    +0.040 C 
ATOM     14  C   UNL     1     -35.519  23.350   5.562  0.00  0.00    +0.035 C 
ATOM     15  C   UNL     1     -35.211  20.342  -1.178  0.00  0.00    +0.074 C 
ATOM     16  C   UNL     1     -35.331  21.608  -1.748  0.00  0.00    +0.137 C 
ATOM     17  C   UNL     1     -35.757  25.805   5.888  0.00  0.00    +0.034 C 
ENDROOT
BRANCH  12  18
ATOM     18  O   UNL     1     -35.081  18.932   0.699  0.00  0.00    -0.471 OA
ATOM     19  C   UNL     1     -33.950  18.177   0.271  0.00  0.00    +0.252 C 
ENDBRANCH  12  18
BRANCH   9  20
ATOM     20  O   UNL     1     -35.768  26.020   3.094  0.00  0.00    -0.506 OA
ATOM     21  H   UNL     1     -35.090  26.370   2.548  0.00  0.00    +0.292 HD
ENDBRANCH   9  20
BRANCH  10  22
ATOM     22  O   UNL     1     -35.294  21.016   5.371  0.00  0.00    -0.505 OA
ATOM     23  H   UNL     1     -35.764  20.852   6.164  0.00  0.00    +0.292 HD
ENDBRANCH  10  22
BRANCH  16  24
ATOM     24  O   UNL     1     -35.341  21.745  -3.103  0.00  0.00    -0.505 OA
ATOM     25  H   UNL     1     -35.615  21.032  -3.644  0.00  0.00    +0.292 HD
ENDBRANCH  16  24
TORSDOF 4
ENDMDL
