MODEL 1
REMARK VINA RESULT:      -5.0      0.000      0.000
REMARK  Name = 54295332
REMARK  9 active torsions:
REMARK  status: ('A' for Active; 'I' for Inactive)
REMARK    1  A    between atoms: C_1  and  C_4
REMARK    2  A    between atoms: C_1  and  O_12
REMARK    3  A    between atoms: C_1  and  C_14
REMARK    4  A    between atoms: N_3  and  C_6
REMARK    5  A    between atoms: C_14  and  O_15
REMARK    6  A    between atoms: C_14  and  C_17
REMARK    7  A    between atoms: C_17  and  O_18
REMARK    8  A    between atoms: C_17  and  C_20
REMARK    9  A    between atoms: C_20  and  O_21
REMARK                            x       y       z     vdW  Elec       q    Type
REMARK                         _______ _______ _______ _____ _____    ______ ____
ROOT
ATOM      1  C   UNL     1     -36.028  24.131   4.852  0.00  0.00    +0.217 C 
ENDROOT
BRANCH   1   4
ATOM      2  O   UNL     1     -36.305  26.419   5.551  0.00  0.00    -0.272 OA
ATOM      3  N   UNL     1     -34.138  25.600   5.164  0.00  0.00    -0.282 N 
ATOM      4  C   UNL     1     -35.526  25.526   5.227  0.00  0.00    +0.256 C 
ATOM      5  H   UNL     1     -33.670  24.777   4.896  0.00  0.00    +0.155 HD
BRANCH   3   6
ATOM      6  C   UNL     1     -33.321  26.721   5.440  0.00  0.00    +0.050 C 
ATOM      7  C   UNL     1     -32.924  27.566   4.404  0.00  0.00    +0.015 C 
ATOM      8  C   UNL     1     -32.911  26.981   6.748  0.00  0.00    +0.015 C 
ATOM      9  C   UNL     1     -32.118  28.672   4.676  0.00  0.00    +0.001 C 
ATOM     10  C   UNL     1     -32.105  28.087   7.020  0.00  0.00    +0.001 C 
ATOM     11  C   UNL     1     -31.709  28.933   5.984  0.00  0.00    +0.000 C 
ENDBRANCH   3   6
ENDBRANCH   1   4
BRANCH   1  12
ATOM     12  O   UNL     1     -35.811  23.253   5.947  0.00  0.00    -0.374 OA
ATOM     13  H   UNL     1     -36.522  22.594   5.979  0.00  0.00    +0.211 HD
ENDBRANCH   1  12
BRANCH   1  14
ATOM     14  C   UNL     1     -35.313  23.585   3.607  0.00  0.00    +0.175 C 
BRANCH  14  15
ATOM     15  O   UNL     1     -35.189  24.658   2.662  0.00  0.00    -0.379 OA
ATOM     16  H   UNL     1     -34.667  25.375   3.054  0.00  0.00    +0.211 HD
ENDBRANCH  14  15
BRANCH  14  17
ATOM     17  C   UNL     1     -36.061  22.434   2.910  0.00  0.00    +0.169 C 
BRANCH  17  18
ATOM     18  O   UNL     1     -37.398  22.395   3.423  0.00  0.00    -0.379 OA
ATOM     19  H   UNL     1     -37.596  23.232   3.874  0.00  0.00    +0.211 HD
ENDBRANCH  17  18
BRANCH  17  20
ATOM     20  C   UNL     1     -35.440  21.050   3.095  0.00  0.00    +0.169 C 
BRANCH  20  21
ATOM     21  O   UNL     1     -35.362  20.698   4.470  0.00  0.00    -0.379 OA
ATOM     22  H   UNL     1     -36.255  20.657   4.845  0.00  0.00    +0.211 HD
ENDBRANCH  20  21
ENDBRANCH  17  20
ENDBRANCH  14  17
ENDBRANCH   1  14
TORSDOF 9
ENDMDL
MODEL 2
REMARK VINA RESULT:      -5.0      3.833      6.909
REMARK  Name = 54295332
REMARK  9 active torsions:
REMARK  status: ('A' for Active; 'I' for Inactive)
REMARK    1  A    between atoms: C_1  and  C_4
REMARK    2  A    between atoms: C_1  and  O_12
REMARK    3  A    between atoms: C_1  and  C_14
REMARK    4  A    between atoms: N_3  and  C_6
REMARK    5  A    between atoms: C_14  and  O_15
REMARK    6  A    between atoms: C_14  and  C_17
REMARK    7  A    between atoms: C_17  and  O_18
REMARK    8  A    between atoms: C_17  and  C_20
REMARK    9  A    between atoms: C_20  and  O_21
REMARK                            x       y       z     vdW  Elec       q    Type
REMARK                         _______ _______ _______ _____ _____    ______ ____
ROOT
ATOM      1  C   UNL     1     -31.870  29.146   5.893  0.00  0.00    +0.217 C 
ENDROOT
BRANCH   1   4
ATOM      2  O   UNL     1     -32.069  26.949   6.859  0.00  0.00    -0.272 OA
ATOM      3  N   UNL     1     -33.380  27.494   4.988  0.00  0.00    -0.282 N 
ATOM      4  C   UNL     1     -32.435  27.728   5.982  0.00  0.00    +0.256 C 
ATOM      5  H   UNL     1     -33.561  28.242   4.375  0.00  0.00    +0.155 HD
BRANCH   3   6
ATOM      6  C   UNL     1     -34.113  26.306   4.757  0.00  0.00    +0.050 C 
ATOM      7  C   UNL     1     -35.156  25.953   5.611  0.00  0.00    +0.015 C 
ATOM      8  C   UNL     1     -33.791  25.487   3.674  0.00  0.00    +0.015 C 
ATOM      9  C   UNL     1     -35.879  24.781   5.383  0.00  0.00    +0.001 C 
ATOM     10  C   UNL     1     -34.513  24.315   3.446  0.00  0.00    +0.001 C 
ATOM     11  C   UNL     1     -35.557  23.963   4.301  0.00  0.00    +0.000 C 
ENDBRANCH   3   6
ENDBRANCH   1   4
BRANCH   1  12
ATOM     12  O   UNL     1     -32.730  29.935   5.084  0.00  0.00    -0.374 OA
ATOM     13  H   UNL     1     -32.280  30.156   4.253  0.00  0.00    +0.211 HD
ENDBRANCH   1  12
BRANCH   1  14
ATOM     14  C   UNL     1     -30.454  29.157   5.299  0.00  0.00    +0.175 C 
BRANCH  14  15
ATOM     15  O   UNL     1     -30.250  27.912   4.616  0.00  0.00    -0.379 OA
ATOM     16  H   UNL     1     -30.928  27.804   3.931  0.00  0.00    +0.211 HD
ENDBRANCH  14  15
BRANCH  14  17
ATOM     17  C   UNL     1     -29.336  29.302   6.348  0.00  0.00    +0.169 C 
BRANCH  17  18
ATOM     18  O   UNL     1     -28.522  30.422   5.981  0.00  0.00    -0.379 OA
ATOM     19  H   UNL     1     -27.726  30.108   5.523  0.00  0.00    +0.211 HD
ENDBRANCH  17  18
BRANCH  17  20
ATOM     20  C   UNL     1     -28.427  28.083   6.501  0.00  0.00    +0.169 C 
BRANCH  20  21
ATOM     21  O   UNL     1     -29.115  26.997   7.107  0.00  0.00    -0.379 OA
ATOM     22  H   UNL     1     -28.907  26.177   6.634  0.00  0.00    +0.211 HD
ENDBRANCH  20  21
ENDBRANCH  17  20
ENDBRANCH  14  17
ENDBRANCH   1  14
TORSDOF 9
ENDMDL
MODEL 3
REMARK VINA RESULT:      -5.0      2.251      6.533
REMARK  Name = 54295332
REMARK  9 active torsions:
REMARK  status: ('A' for Active; 'I' for Inactive)
REMARK    1  A    between atoms: C_1  and  C_4
REMARK    2  A    between atoms: C_1  and  O_12
REMARK    3  A    between atoms: C_1  and  C_14
REMARK    4  A    between atoms: N_3  and  C_6
REMARK    5  A    between atoms: C_14  and  O_15
REMARK    6  A    between atoms: C_14  and  C_17
REMARK    7  A    between atoms: C_17  and  O_18
REMARK    8  A    between atoms: C_17  and  C_20
REMARK    9  A    between atoms: C_20  and  O_21
REMARK                            x       y       z     vdW  Elec       q    Type
REMARK                         _______ _______ _______ _____ _____    ______ ____
ROOT
ATOM      1  C   UNL     1     -35.434  23.555   5.391  0.00  0.00    +0.217 C 
ENDROOT
BRANCH   1   4
ATOM      2  O   UNL     1     -34.836  23.779   3.070  0.00  0.00    -0.272 OA
ATOM      3  N   UNL     1     -35.903  21.814   3.786  0.00  0.00    -0.282 N 
ATOM      4  C   UNL     1     -35.352  23.083   3.939  0.00  0.00    +0.256 C 
ATOM      5  H   UNL     1     -36.263  21.395   4.600  0.00  0.00    +0.155 HD
BRANCH   3   6
ATOM      6  C   UNL     1     -36.006  21.056   2.596  0.00  0.00    +0.050 C 
ATOM      7  C   UNL     1     -34.932  20.274   2.172  0.00  0.00    +0.015 C 
ATOM      8  C   UNL     1     -37.182  21.091   1.845  0.00  0.00    +0.015 C 
ATOM      9  C   UNL     1     -35.033  19.527   0.999  0.00  0.00    +0.001 C 
ATOM     10  C   UNL     1     -37.283  20.344   0.671  0.00  0.00    +0.001 C 
ATOM     11  C   UNL     1     -36.209  19.562   0.248  0.00  0.00    +0.000 C 
ENDBRANCH   3   6
ENDBRANCH   1   4
BRANCH   1  12
ATOM     12  O   UNL     1     -35.961  22.505   6.189  0.00  0.00    -0.374 OA
ATOM     13  H   UNL     1     -36.152  22.840   7.079  0.00  0.00    +0.211 HD
ENDBRANCH   1  12
BRANCH   1  14
ATOM     14  C   UNL     1     -36.319  24.802   5.535  0.00  0.00    +0.175 C 
BRANCH  14  15
ATOM     15  O   UNL     1     -37.313  24.760   4.502  0.00  0.00    -0.379 OA
ATOM     16  H   UNL     1     -37.948  25.482   4.634  0.00  0.00    +0.211 HD
ENDBRANCH  14  15
BRANCH  14  17
ATOM     17  C   UNL     1     -35.555  26.132   5.393  0.00  0.00    +0.169 C 
BRANCH  17  18
ATOM     18  O   UNL     1     -35.734  26.608   4.054  0.00  0.00    -0.379 OA
ATOM     19  H   UNL     1     -36.517  26.188   3.662  0.00  0.00    +0.211 HD
ENDBRANCH  17  18
BRANCH  17  20
ATOM     20  C   UNL     1     -34.055  26.052   5.674  0.00  0.00    +0.169 C 
BRANCH  20  21
ATOM     21  O   UNL     1     -33.303  26.038   4.468  0.00  0.00    -0.379 OA
ATOM     22  H   UNL     1     -33.466  26.858   3.976  0.00  0.00    +0.211 HD
ENDBRANCH  20  21
ENDBRANCH  17  20
ENDBRANCH  14  17
ENDBRANCH   1  14
TORSDOF 9
ENDMDL
MODEL 4
REMARK VINA RESULT:      -5.0      3.180      4.684
REMARK  Name = 54295332
REMARK  9 active torsions:
REMARK  status: ('A' for Active; 'I' for Inactive)
REMARK    1  A    between atoms: C_1  and  C_4
REMARK    2  A    between atoms: C_1  and  O_12
REMARK    3  A    between atoms: C_1  and  C_14
REMARK    4  A    between atoms: N_3  and  C_6
REMARK    5  A    between atoms: C_14  and  O_15
REMARK    6  A    between atoms: C_14  and  C_17
REMARK    7  A    between atoms: C_17  and  O_18
REMARK    8  A    between atoms: C_17  and  C_20
REMARK    9  A    between atoms: C_20  and  O_21
REMARK                            x       y       z     vdW  Elec       q    Type
REMARK                         _______ _______ _______ _____ _____    ______ ____
ROOT
ATOM      1  C   UNL     1     -37.594  21.192   1.642  0.00  0.00    +0.217 C 
ENDROOT
BRANCH   1   4
ATOM      2  O   UNL     1     -35.941  22.913   1.324  0.00  0.00    -0.272 OA
ATOM      3  N   UNL     1     -36.917  22.651   3.443  0.00  0.00    -0.282 N 
ATOM      4  C   UNL     1     -36.707  22.350   2.100  0.00  0.00    +0.256 C 
ATOM      5  H   UNL     1     -37.585  22.101   3.912  0.00  0.00    +0.155 HD
BRANCH   3   6
ATOM      6  C   UNL     1     -36.283  23.654   4.212  0.00  0.00    +0.050 C 
ATOM      7  C   UNL     1     -36.883  24.905   4.355  0.00  0.00    +0.015 C 
ATOM      8  C   UNL     1     -35.058  23.394   4.826  0.00  0.00    +0.015 C 
ATOM      9  C   UNL     1     -36.258  25.896   5.113  0.00  0.00    +0.001 C 
ATOM     10  C   UNL     1     -34.433  24.385   5.584  0.00  0.00    +0.001 C 
ATOM     11  C   UNL     1     -35.033  25.635   5.728  0.00  0.00    +0.000 C 
ENDBRANCH   3   6
ENDBRANCH   1   4
BRANCH   1  12
ATOM     12  O   UNL     1     -38.781  21.182   2.422  0.00  0.00    -0.374 OA
ATOM     13  H   UNL     1     -38.969  22.081   2.736  0.00  0.00    +0.211 HD
ENDBRANCH   1  12
BRANCH   1  14
ATOM     14  C   UNL     1     -36.878  19.840   1.780  0.00  0.00    +0.175 C 
BRANCH  14  15
ATOM     15  O   UNL     1     -35.631  20.065   2.451  0.00  0.00    -0.379 OA
ATOM     16  H   UNL     1     -35.240  19.214   2.702  0.00  0.00    +0.211 HD
ENDBRANCH  14  15
BRANCH  14  17
ATOM     17  C   UNL     1     -36.568  19.156   0.436  0.00  0.00    +0.169 C 
BRANCH  17  18
ATOM     18  O   UNL     1     -37.121  17.834   0.470  0.00  0.00    -0.379 OA
ATOM     19  H   UNL     1     -36.930  17.382  -0.367  0.00  0.00    +0.211 HD
ENDBRANCH  17  18
BRANCH  17  20
ATOM     20  C   UNL     1     -35.083  19.041   0.093  0.00  0.00    +0.169 C 
BRANCH  20  21
ATOM     21  O   UNL     1     -34.485  17.930   0.748  0.00  0.00    -0.379 OA
ATOM     22  H   UNL     1     -33.522  17.971   0.642  0.00  0.00    +0.211 HD
ENDBRANCH  20  21
ENDBRANCH  17  20
ENDBRANCH  14  17
ENDBRANCH   1  14
TORSDOF 9
ENDMDL
MODEL 5
REMARK VINA RESULT:      -4.9      2.449      3.313
REMARK  Name = 54295332
REMARK  9 active torsions:
REMARK  status: ('A' for Active; 'I' for Inactive)
REMARK    1  A    between atoms: C_1  and  C_4
REMARK    2  A    between atoms: C_1  and  O_12
REMARK    3  A    between atoms: C_1  and  C_14
REMARK    4  A    between atoms: N_3  and  C_6
REMARK    5  A    between atoms: C_14  and  O_15
REMARK    6  A    between atoms: C_14  and  C_17
REMARK    7  A    between atoms: C_17  and  O_18
REMARK    8  A    between atoms: C_17  and  C_20
REMARK    9  A    between atoms: C_20  and  O_21
REMARK                            x       y       z     vdW  Elec       q    Type
REMARK                         _______ _______ _______ _____ _____    ______ ____
ROOT
ATOM      1  C   UNL     1     -36.120  25.490   4.683  0.00  0.00    +0.217 C 
ENDROOT
BRANCH   1   4
ATOM      2  O   UNL     1     -35.365  25.634   2.401  0.00  0.00    -0.272 OA
ATOM      3  N   UNL     1     -35.197  27.529   3.778  0.00  0.00    -0.282 N 
ATOM      4  C   UNL     1     -35.512  26.207   3.477  0.00  0.00    +0.256 C 
ATOM      5  H   UNL     1     -35.398  27.826   4.695  0.00  0.00    +0.155 HD
BRANCH   3   6
ATOM      6  C   UNL     1     -34.623  28.496   2.920  0.00  0.00    +0.050 C 
ATOM      7  C   UNL     1     -35.443  29.316   2.147  0.00  0.00    +0.015 C 
ATOM      8  C   UNL     1     -33.236  28.628   2.846  0.00  0.00    +0.015 C 
ATOM      9  C   UNL     1     -34.878  30.270   1.300  0.00  0.00    +0.001 C 
ATOM     10  C   UNL     1     -32.670  29.581   1.999  0.00  0.00    +0.001 C 
ATOM     11  C   UNL     1     -33.491  30.403   1.227  0.00  0.00    +0.000 C 
ENDBRANCH   3   6
ENDBRANCH   1   4
BRANCH   1  12
ATOM     12  O   UNL     1     -36.544  26.459   5.631  0.00  0.00    -0.374 OA
ATOM     13  H   UNL     1     -36.554  26.063   6.516  0.00  0.00    +0.211 HD
ENDBRANCH   1  12
BRANCH   1  14
ATOM     14  C   UNL     1     -35.115  24.533   5.342  0.00  0.00    +0.175 C 
BRANCH  14  15
ATOM     15  O   UNL     1     -33.809  24.850   4.840  0.00  0.00    -0.379 OA
ATOM     16  H   UNL     1     -33.835  25.706   4.386  0.00  0.00    +0.211 HD
ENDBRANCH  14  15
BRANCH  14  17
ATOM     17  C   UNL     1     -35.380  23.046   5.047  0.00  0.00    +0.169 C 
BRANCH  17  18
ATOM     18  O   UNL     1     -36.700  22.928   4.502  0.00  0.00    -0.379 OA
ATOM     19  H   UNL     1     -36.674  23.108   3.548  0.00  0.00    +0.211 HD
ENDBRANCH  17  18
BRANCH  17  20
ATOM     20  C   UNL     1     -35.279  22.115   6.255  0.00  0.00    +0.169 C 
BRANCH  20  21
ATOM     21  O   UNL     1     -35.349  20.751   5.864  0.00  0.00    -0.379 OA
ATOM     22  H   UNL     1     -34.793  20.216   6.452  0.00  0.00    +0.211 HD
ENDBRANCH  20  21
ENDBRANCH  17  20
ENDBRANCH  14  17
ENDBRANCH   1  14
TORSDOF 9
ENDMDL
MODEL 6
REMARK VINA RESULT:      -4.9      1.630      2.211
REMARK  Name = 54295332
REMARK  9 active torsions:
REMARK  status: ('A' for Active; 'I' for Inactive)
REMARK    1  A    between atoms: C_1  and  C_4
REMARK    2  A    between atoms: C_1  and  O_12
REMARK    3  A    between atoms: C_1  and  C_14
REMARK    4  A    between atoms: N_3  and  C_6
REMARK    5  A    between atoms: C_14  and  O_15
REMARK    6  A    between atoms: C_14  and  C_17
REMARK    7  A    between atoms: C_17  and  O_18
REMARK    8  A    between atoms: C_17  and  C_20
REMARK    9  A    between atoms: C_20  and  O_21
REMARK                            x       y       z     vdW  Elec       q    Type
REMARK                         _______ _______ _______ _____ _____    ______ ____
ROOT
ATOM      1  C   UNL     1     -35.371  25.955   4.682  0.00  0.00    +0.217 C 
ENDROOT
BRANCH   1   4
ATOM      2  O   UNL     1     -34.609  27.947   3.564  0.00  0.00    -0.272 OA
ATOM      3  N   UNL     1     -33.363  27.106   5.369  0.00  0.00    -0.282 N 
ATOM      4  C   UNL     1     -34.411  27.122   4.452  0.00  0.00    +0.256 C 
ATOM      5  H   UNL     1     -33.371  26.372   6.024  0.00  0.00    +0.155 HD
BRANCH   3   6
ATOM      6  C   UNL     1     -32.288  28.020   5.466  0.00  0.00    +0.050 C 
ATOM      7  C   UNL     1     -31.477  28.264   4.359  0.00  0.00    +0.015 C 
ATOM      8  C   UNL     1     -32.040  28.679   6.671  0.00  0.00    +0.015 C 
ATOM      9  C   UNL     1     -30.417  29.166   4.455  0.00  0.00    +0.001 C 
ATOM     10  C   UNL     1     -30.980  29.581   6.767  0.00  0.00    +0.001 C 
ATOM     11  C   UNL     1     -30.169  29.825   5.659  0.00  0.00    +0.000 C 
ENDBRANCH   3   6
ENDBRANCH   1   4
BRANCH   1  12
ATOM     12  O   UNL     1     -36.357  26.347   5.625  0.00  0.00    -0.374 OA
ATOM     13  H   UNL     1     -36.175  27.250   5.927  0.00  0.00    +0.211 HD
ENDBRANCH   1  12
BRANCH   1  14
ATOM     14  C   UNL     1     -34.636  24.707   5.195  0.00  0.00    +0.175 C 
BRANCH  14  15
ATOM     15  O   UNL     1     -33.412  24.580   4.459  0.00  0.00    -0.379 OA
ATOM     16  H   UNL     1     -32.725  25.121   4.877  0.00  0.00    +0.211 HD
ENDBRANCH  14  15
BRANCH  14  17
ATOM     17  C   UNL     1     -35.426  23.397   5.018  0.00  0.00    +0.169 C 
BRANCH  17  18
ATOM     18  O   UNL     1     -36.799  23.733   4.784  0.00  0.00    -0.379 OA
ATOM     19  H   UNL     1     -37.215  23.041   4.245  0.00  0.00    +0.211 HD
ENDBRANCH  17  18
BRANCH  17  20
ATOM     20  C   UNL     1     -35.366  22.436   6.204  0.00  0.00    +0.169 C 
BRANCH  20  21
ATOM     21  O   UNL     1     -35.450  21.083   5.778  0.00  0.00    -0.379 OA
ATOM     22  H   UNL     1     -35.585  20.509   6.548  0.00  0.00    +0.211 HD
ENDBRANCH  20  21
ENDBRANCH  17  20
ENDBRANCH  14  17
ENDBRANCH   1  14
TORSDOF 9
ENDMDL
MODEL 7
REMARK VINA RESULT:      -4.9      4.110      6.555
REMARK  Name = 54295332
REMARK  9 active torsions:
REMARK  status: ('A' for Active; 'I' for Inactive)
REMARK    1  A    between atoms: C_1  and  C_4
REMARK    2  A    between atoms: C_1  and  O_12
REMARK    3  A    between atoms: C_1  and  C_14
REMARK    4  A    between atoms: N_3  and  C_6
REMARK    5  A    between atoms: C_14  and  O_15
REMARK    6  A    between atoms: C_14  and  C_17
REMARK    7  A    between atoms: C_17  and  O_18
REMARK    8  A    between atoms: C_17  and  C_20
REMARK    9  A    between atoms: C_20  and  O_21
REMARK                            x       y       z     vdW  Elec       q    Type
REMARK                         _______ _______ _______ _____ _____    ______ ____
ROOT
ATOM      1  C   UNL     1     -36.817  25.473   4.565  0.00  0.00    +0.217 C 
ENDROOT
BRANCH   1   4
ATOM      2  O   UNL     1     -37.470  26.370   2.428  0.00  0.00    -0.272 OA
ATOM      3  N   UNL     1     -39.078  25.274   3.743  0.00  0.00    -0.282 N 
ATOM      4  C   UNL     1     -37.813  25.774   3.445  0.00  0.00    +0.256 C 
ATOM      5  H   UNL     1     -39.169  24.807   4.604  0.00  0.00    +0.155 HD
BRANCH   3   6
ATOM      6  C   UNL     1     -40.247  25.358   2.951  0.00  0.00    +0.050 C 
ATOM      7  C   UNL     1     -41.228  26.302   3.254  0.00  0.00    +0.015 C 
ATOM      8  C   UNL     1     -40.419  24.498   1.866  0.00  0.00    +0.015 C 
ATOM      9  C   UNL     1     -42.381  26.385   2.473  0.00  0.00    +0.001 C 
ATOM     10  C   UNL     1     -41.572  24.581   1.085  0.00  0.00    +0.001 C 
ATOM     11  C   UNL     1     -42.553  25.525   1.389  0.00  0.00    +0.000 C 
ENDBRANCH   3   6
ENDBRANCH   1   4
BRANCH   1  12
ATOM     12  O   UNL     1     -35.930  26.574   4.701  0.00  0.00    -0.374 OA
ATOM     13  H   UNL     1     -36.034  27.169   3.943  0.00  0.00    +0.211 HD
ENDBRANCH   1  12
BRANCH   1  14
ATOM     14  C   UNL     1     -36.012  24.196   4.282  0.00  0.00    +0.175 C 
BRANCH  14  15
ATOM     15  O   UNL     1     -36.939  23.113   4.126  0.00  0.00    -0.379 OA
ATOM     16  H   UNL     1     -37.017  22.887   3.186  0.00  0.00    +0.211 HD
ENDBRANCH  14  15
BRANCH  14  17
ATOM     17  C   UNL     1     -35.031  23.812   5.405  0.00  0.00    +0.169 C 
BRANCH  17  18
ATOM     18  O   UNL     1     -33.727  24.278   5.037  0.00  0.00    -0.379 OA
ATOM     19  H   UNL     1     -33.786  25.198   4.733  0.00  0.00    +0.211 HD
ENDBRANCH  17  18
BRANCH  17  20
ATOM     20  C   UNL     1     -34.936  22.316   5.701  0.00  0.00    +0.169 C 
BRANCH  20  21
ATOM     21  O   UNL     1     -36.062  21.862   6.440  0.00  0.00    -0.379 OA
ATOM     22  H   UNL     1     -36.378  22.574   7.018  0.00  0.00    +0.211 HD
ENDBRANCH  20  21
ENDBRANCH  17  20
ENDBRANCH  14  17
ENDBRANCH   1  14
TORSDOF 9
ENDMDL
MODEL 8
REMARK VINA RESULT:      -4.9      1.981      3.355
REMARK  Name = 54295332
REMARK  9 active torsions:
REMARK  status: ('A' for Active; 'I' for Inactive)
REMARK    1  A    between atoms: C_1  and  C_4
REMARK    2  A    between atoms: C_1  and  O_12
REMARK    3  A    between atoms: C_1  and  C_14
REMARK    4  A    between atoms: N_3  and  C_6
REMARK    5  A    between atoms: C_14  and  O_15
REMARK    6  A    between atoms: C_14  and  C_17
REMARK    7  A    between atoms: C_17  and  O_18
REMARK    8  A    between atoms: C_17  and  C_20
REMARK    9  A    between atoms: C_20  and  O_21
REMARK                            x       y       z     vdW  Elec       q    Type
REMARK                         _______ _______ _______ _____ _____    ______ ____
ROOT
ATOM      1  C   UNL     1     -34.899  26.947   3.665  0.00  0.00    +0.217 C 
ENDROOT
BRANCH   1   4
ATOM      2  O   UNL     1     -32.601  26.250   3.844  0.00  0.00    -0.272 OA
ATOM      3  N   UNL     1     -33.194  28.411   4.548  0.00  0.00    -0.282 N 
ATOM      4  C   UNL     1     -33.427  27.140   4.030  0.00  0.00    +0.256 C 
ATOM      5  H   UNL     1     -33.977  29.003   4.613  0.00  0.00    +0.155 HD
BRANCH   3   6
ATOM      6  C   UNL     1     -31.964  28.949   4.992  0.00  0.00    +0.050 C 
ATOM      7  C   UNL     1     -31.633  28.907   6.346  0.00  0.00    +0.015 C 
ATOM      8  C   UNL     1     -31.082  29.524   4.076  0.00  0.00    +0.015 C 
ATOM      9  C   UNL     1     -30.419  29.438   6.784  0.00  0.00    +0.001 C 
ATOM     10  C   UNL     1     -29.869  30.055   4.514  0.00  0.00    +0.001 C 
ATOM     11  C   UNL     1     -29.537  30.011   5.868  0.00  0.00    +0.000 C 
ENDBRANCH   3   6
ENDBRANCH   1   4
BRANCH   1  12
ATOM     12  O   UNL     1     -35.476  28.214   3.387  0.00  0.00    -0.374 OA
ATOM     13  H   UNL     1     -34.772  28.856   3.204  0.00  0.00    +0.211 HD
ENDBRANCH   1  12
BRANCH   1  14
ATOM     14  C   UNL     1     -35.680  26.265   4.799  0.00  0.00    +0.175 C 
BRANCH  14  15
ATOM     15  O   UNL     1     -34.829  26.209   5.952  0.00  0.00    -0.379 OA
ATOM     16  H   UNL     1     -35.226  25.627   6.619  0.00  0.00    +0.211 HD
ENDBRANCH  14  15
BRANCH  14  17
ATOM     17  C   UNL     1     -36.125  24.826   4.477  0.00  0.00    +0.169 C 
BRANCH  17  18
ATOM     18  O   UNL     1     -37.557  24.788   4.494  0.00  0.00    -0.379 OA
ATOM     19  H   UNL     1     -37.859  24.319   5.289  0.00  0.00    +0.211 HD
ENDBRANCH  17  18
BRANCH  17  20
ATOM     20  C   UNL     1     -35.608  23.756   5.438  0.00  0.00    +0.169 C 
BRANCH  20  21
ATOM     21  O   UNL     1     -36.335  22.543   5.298  0.00  0.00    -0.379 OA
ATOM     22  H   UNL     1     -36.417  22.113   6.164  0.00  0.00    +0.211 HD
ENDBRANCH  20  21
ENDBRANCH  17  20
ENDBRANCH  14  17
ENDBRANCH   1  14
TORSDOF 9
ENDMDL
MODEL 9
REMARK VINA RESULT:      -4.8      1.897      6.302
REMARK  Name = 54295332
REMARK  9 active torsions:
REMARK  status: ('A' for Active; 'I' for Inactive)
REMARK    1  A    between atoms: C_1  and  C_4
REMARK    2  A    between atoms: C_1  and  O_12
REMARK    3  A    between atoms: C_1  and  C_14
REMARK    4  A    between atoms: N_3  and  C_6
REMARK    5  A    between atoms: C_14  and  O_15
REMARK    6  A    between atoms: C_14  and  C_17
REMARK    7  A    between atoms: C_17  and  O_18
REMARK    8  A    between atoms: C_17  and  C_20
REMARK    9  A    between atoms: C_20  and  O_21
REMARK                            x       y       z     vdW  Elec       q    Type
REMARK                         _______ _______ _______ _____ _____    ______ ____
ROOT
ATOM      1  C   UNL     1     -35.700  25.467   5.625  0.00  0.00    +0.217 C 
ENDROOT
BRANCH   1   4
ATOM      2  O   UNL     1     -35.925  23.103   6.028  0.00  0.00    -0.272 OA
ATOM      3  N   UNL     1     -36.176  23.914   3.838  0.00  0.00    -0.282 N 
ATOM      4  C   UNL     1     -35.938  24.015   5.206  0.00  0.00    +0.256 C 
ATOM      5  H   UNL     1     -36.163  24.757   3.331  0.00  0.00    +0.155 HD
BRANCH   3   6
ATOM      6  C   UNL     1     -36.436  22.740   3.093  0.00  0.00    +0.050 C 
ATOM      7  C   UNL     1     -37.698  22.532   2.538  0.00  0.00    +0.015 C 
ATOM      8  C   UNL     1     -35.431  21.790   2.914  0.00  0.00    +0.015 C 
ATOM      9  C   UNL     1     -37.955  21.375   1.803  0.00  0.00    +0.001 C 
ATOM     10  C   UNL     1     -35.687  20.633   2.178  0.00  0.00    +0.001 C 
ATOM     11  C   UNL     1     -36.950  20.425   1.622  0.00  0.00    +0.000 C 
ENDBRANCH   3   6
ENDBRANCH   1   4
BRANCH   1  12
ATOM     12  O   UNL     1     -36.683  26.290   5.015  0.00  0.00    -0.374 OA
ATOM     13  H   UNL     1     -36.314  26.696   4.215  0.00  0.00    +0.211 HD
ENDBRANCH   1  12
BRANCH   1  14
ATOM     14  C   UNL     1     -34.300  25.953   5.220  0.00  0.00    +0.175 C 
BRANCH  14  15
ATOM     15  O   UNL     1     -33.696  26.565   6.368  0.00  0.00    -0.379 OA
ATOM     16  H   UNL     1     -33.916  26.054   7.162  0.00  0.00    +0.211 HD
ENDBRANCH  14  15
BRANCH  14  17
ATOM     17  C   UNL     1     -34.302  26.991   4.084  0.00  0.00    +0.169 C 
BRANCH  17  18
ATOM     18  O   UNL     1     -34.596  26.310   2.858  0.00  0.00    -0.379 OA
ATOM     19  H   UNL     1     -33.781  26.207   2.341  0.00  0.00    +0.211 HD
ENDBRANCH  17  18
BRANCH  17  20
ATOM     20  C   UNL     1     -32.992  27.756   3.900  0.00  0.00    +0.169 C 
BRANCH  20  21
ATOM     21  O   UNL     1     -32.937  28.898   4.746  0.00  0.00    -0.379 OA
ATOM     22  H   UNL     1     -32.741  29.685   4.215  0.00  0.00    +0.211 HD
ENDBRANCH  20  21
ENDBRANCH  17  20
ENDBRANCH  14  17
ENDBRANCH   1  14
TORSDOF 9
ENDMDL
