MODEL 1
REMARK VINA RESULT:      -5.9      0.000      0.000
REMARK  Name = 58423153
REMARK  4 active torsions:
REMARK  status: ('A' for Active; 'I' for Inactive)
REMARK    1  A    between atoms: C_1  and  N_16
REMARK    2  A    between atoms: C_2  and  C_26
REMARK    3  A    between atoms: C_3  and  C_11
REMARK    4  A    between atoms: C_17  and  N_22
REMARK                            x       y       z     vdW  Elec       q    Type
REMARK                         _______ _______ _______ _____ _____    ______ ____
ROOT
ATOM      1  C   UNL     1     -34.997  23.918   2.923  0.00  0.00    +0.048 C 
ATOM      2  C   UNL     1     -34.704  24.874   3.895  0.00  0.00    +0.013 C 
ATOM      3  C   UNL     1     -35.425  22.646   3.302  0.00  0.00    +0.014 C 
ATOM      4  C   UNL     1     -34.841  24.559   5.247  0.00  0.00    +0.001 C 
ATOM      5  C   UNL     1     -35.561  22.330   4.655  0.00  0.00    +0.001 C 
ATOM      6  C   UNL     1     -35.269  23.287   5.627  0.00  0.00    +0.000 C 
ENDROOT
BRANCH   3  11
ATOM      7  S   UNL     1     -38.425  22.138   2.248  0.00  0.00    -0.025 S 
ATOM      8  O   UNL     1     -36.351  19.550   0.344  0.00  0.00    -0.269 OA
ATOM      9  O   UNL     1     -40.600  21.265   1.035  0.00  0.00    -0.262 OA
ATOM     10  N   UNL     1     -38.562  20.250   0.529  0.00  0.00    -0.243 N 
ATOM     11  C   UNL     1     -35.740  21.617   2.318  0.00  0.00    +0.012 C 
ATOM     12  C   UNL     1     -36.961  21.336   1.824  0.00  0.00    +0.087 C 
ATOM     13  C   UNL     1     -37.211  20.274   0.821  0.00  0.00    +0.258 C 
ATOM     14  C   UNL     1     -39.391  21.144   1.166  0.00  0.00    +0.283 C 
ATOM     15  H   UNL     1     -38.924  19.605  -0.121  0.00  0.00    +0.159 HD
ENDBRANCH   3  11
BRANCH   1  16
ATOM     16  N   UNL     1     -34.860  24.233   1.566  0.00  0.00    -0.310 N 
ATOM     17  C   UNL     1     -35.616  25.487  -0.419  0.00  0.00    -0.046 C 
ATOM     18  C   UNL     1     -36.040  24.657   0.800  0.00  0.00    +0.069 C 
ATOM     19  C   UNL     1     -34.583  24.737  -1.264  0.00  0.00    -0.018 C 
ATOM     20  C   UNL     1     -33.384  24.354  -0.402  0.00  0.00    +0.019 C 
ATOM     21  C   UNL     1     -33.810  23.533   0.812  0.00  0.00    +0.091 C 
BRANCH  17  22
ATOM     22  N   UNL     1     -36.785  25.808  -1.234  0.00  0.00    +0.383 N 
ATOM     23  H   UNL     1     -36.686  26.749  -1.616  0.00  0.00    -0.089 HD
ATOM     24  H   UNL     1     -37.625  25.762  -0.658  0.00  0.00    -0.089 HD
ATOM     25  H   UNL     1     -36.861  25.138  -2.000  0.00  0.00    -0.089 HD
ENDBRANCH  17  22
ENDBRANCH   1  16
BRANCH   2  26
ATOM     26  C   UNL     1     -34.257  26.207   3.535  0.00  0.00    +0.001 C 
ATOM     27  C   UNL     1     -32.895  26.465   3.377  0.00  0.00    +0.000 C 
ATOM     28  C   UNL     1     -35.188  27.228   3.347  0.00  0.00    +0.000 C 
ATOM     29  C   UNL     1     -32.465  27.747   3.031  0.00  0.00    +0.000 C 
ATOM     30  C   UNL     1     -34.757  28.508   3.000  0.00  0.00    +0.000 C 
ATOM     31  C   UNL     1     -33.396  28.768   2.842  0.00  0.00    +0.000 C 
ENDBRANCH   2  26
TORSDOF 4
ENDMDL
MODEL 2
REMARK VINA RESULT:      -5.8      2.823      4.498
REMARK  Name = 58423153
REMARK  4 active torsions:
REMARK  status: ('A' for Active; 'I' for Inactive)
REMARK    1  A    between atoms: C_1  and  N_16
REMARK    2  A    between atoms: C_2  and  C_26
REMARK    3  A    between atoms: C_3  and  C_11
REMARK    4  A    between atoms: C_17  and  N_22
REMARK                            x       y       z     vdW  Elec       q    Type
REMARK                         _______ _______ _______ _____ _____    ______ ____
ROOT
ATOM      1  C   UNL     1     -36.560  22.406   1.422  0.00  0.00    +0.048 C 
ATOM      2  C   UNL     1     -35.674  21.809   2.320  0.00  0.00    +0.013 C 
ATOM      3  C   UNL     1     -36.827  21.797   0.196  0.00  0.00    +0.014 C 
ATOM      4  C   UNL     1     -35.058  20.602   1.993  0.00  0.00    +0.001 C 
ATOM      5  C   UNL     1     -36.210  20.589  -0.132  0.00  0.00    +0.001 C 
ATOM      6  C   UNL     1     -35.325  19.992   0.767  0.00  0.00    +0.000 C 
ENDROOT
BRANCH   3  11
ATOM      7  S   UNL     1     -39.959  21.048   0.119  0.00  0.00    -0.025 S 
ATOM      8  O   UNL     1     -39.569  23.585  -2.716  0.00  0.00    -0.269 OA
ATOM      9  O   UNL     1     -42.531  20.850  -0.433  0.00  0.00    -0.262 OA
ATOM     10  N   UNL     1     -41.228  22.295  -1.717  0.00  0.00    -0.243 N 
ATOM     11  C   UNL     1     -37.745  22.388  -0.770  0.00  0.00    +0.012 C 
ATOM     12  C   UNL     1     -39.063  22.133  -0.875  0.00  0.00    +0.087 C 
ATOM     13  C   UNL     1     -39.941  22.773  -1.883  0.00  0.00    +0.258 C 
ATOM     14  C   UNL     1     -41.468  21.377  -0.722  0.00  0.00    +0.283 C 
ATOM     15  H   UNL     1     -41.957  22.606  -2.300  0.00  0.00    +0.159 HD
ENDBRANCH   3  11
BRANCH   1  16
ATOM     16  N   UNL     1     -37.179  23.618   1.750  0.00  0.00    -0.310 N 
ATOM     17  C   UNL     1     -38.646  24.930   3.238  0.00  0.00    -0.046 C 
ATOM     18  C   UNL     1     -38.448  23.603   2.491  0.00  0.00    +0.069 C 
ATOM     19  C   UNL     1     -38.513  26.122   2.288  0.00  0.00    -0.018 C 
ATOM     20  C   UNL     1     -37.164  26.075   1.578  0.00  0.00    +0.019 C 
ATOM     21  C   UNL     1     -36.969  24.753   0.840  0.00  0.00    +0.091 C 
BRANCH  17  22
ATOM     22  N   UNL     1     -39.959  24.949   3.879  0.00  0.00    +0.383 N 
ATOM     23  H   UNL     1     -39.845  25.076   4.884  0.00  0.00    -0.089 HD
ATOM     24  H   UNL     1     -40.439  24.067   3.700  0.00  0.00    -0.089 HD
ATOM     25  H   UNL     1     -40.512  25.719   3.500  0.00  0.00    -0.089 HD
ENDBRANCH  17  22
ENDBRANCH   1  16
BRANCH   2  26
ATOM     26  C   UNL     1     -35.374  22.416   3.603  0.00  0.00    +0.001 C 
ATOM     27  C   UNL     1     -34.864  23.713   3.658  0.00  0.00    +0.000 C 
ATOM     28  C   UNL     1     -35.597  21.703   4.781  0.00  0.00    +0.000 C 
ATOM     29  C   UNL     1     -34.575  24.297   4.892  0.00  0.00    +0.000 C 
ATOM     30  C   UNL     1     -35.309  22.287   6.014  0.00  0.00    +0.000 C 
ATOM     31  C   UNL     1     -34.798  23.584   6.070  0.00  0.00    +0.000 C 
ENDBRANCH   2  26
TORSDOF 4
ENDMDL
MODEL 3
REMARK VINA RESULT:      -5.8      3.087      4.427
REMARK  Name = 58423153
REMARK  4 active torsions:
REMARK  status: ('A' for Active; 'I' for Inactive)
REMARK    1  A    between atoms: C_1  and  N_16
REMARK    2  A    between atoms: C_2  and  C_26
REMARK    3  A    between atoms: C_3  and  C_11
REMARK    4  A    between atoms: C_17  and  N_22
REMARK                            x       y       z     vdW  Elec       q    Type
REMARK                         _______ _______ _______ _____ _____    ______ ____
ROOT
ATOM      1  C   UNL     1     -33.555  27.459   4.189  0.00  0.00    +0.048 C 
ATOM      2  C   UNL     1     -32.427  28.130   4.665  0.00  0.00    +0.013 C 
ATOM      3  C   UNL     1     -34.263  26.602   5.031  0.00  0.00    +0.014 C 
ATOM      4  C   UNL     1     -32.009  27.945   5.982  0.00  0.00    +0.001 C 
ATOM      5  C   UNL     1     -33.845  26.416   6.350  0.00  0.00    +0.001 C 
ATOM      6  C   UNL     1     -32.718  27.088   6.825  0.00  0.00    +0.000 C 
ENDROOT
BRANCH   3  11
ATOM      7  S   UNL     1     -34.431  23.386   5.055  0.00  0.00    -0.025 S 
ATOM      8  O   UNL     1     -37.825  24.455   3.654  0.00  0.00    -0.269 OA
ATOM      9  O   UNL     1     -35.153  20.858   4.833  0.00  0.00    -0.262 OA
ATOM     10  N   UNL     1     -36.665  22.507   4.178  0.00  0.00    -0.243 N 
ATOM     11  C   UNL     1     -35.445  25.882   4.574  0.00  0.00    +0.012 C 
ATOM     12  C   UNL     1     -35.601  24.544   4.548  0.00  0.00    +0.087 C 
ATOM     13  C   UNL     1     -36.834  23.875   4.071  0.00  0.00    +0.258 C 
ATOM     14  C   UNL     1     -35.476  22.025   4.671  0.00  0.00    +0.283 C 
ATOM     15  H   UNL     1     -37.383  21.890   3.905  0.00  0.00    +0.159 HD
ENDBRANCH   3  11
BRANCH   1  16
ATOM     16  N   UNL     1     -33.974  27.645   2.867  0.00  0.00    -0.310 N 
ATOM     17  C   UNL     1     -35.113  29.018   1.163  0.00  0.00    -0.046 C 
ATOM     18  C   UNL     1     -35.162  28.465   2.595  0.00  0.00    +0.069 C 
ATOM     19  C   UNL     1     -34.907  27.894   0.146  0.00  0.00    -0.018 C 
ATOM     20  C   UNL     1     -33.646  27.107   0.486  0.00  0.00    +0.019 C 
ATOM     21  C   UNL     1     -33.696  26.563   1.911  0.00  0.00    +0.091 C 
BRANCH  17  22
ATOM     22  N   UNL     1     -36.349  29.738   0.865  0.00  0.00    +0.383 N 
ATOM     23  H   UNL     1     -37.106  29.366   1.438  0.00  0.00    -0.089 HD
ATOM     24  H   UNL     1     -36.582  29.622  -0.121  0.00  0.00    -0.089 HD
ATOM     25  H   UNL     1     -36.224  30.729   1.070  0.00  0.00    -0.089 HD
ENDBRANCH  17  22
ENDBRANCH   1  16
BRANCH   2  26
ATOM     26  C   UNL     1     -31.667  29.028   3.816  0.00  0.00    +0.001 C 
ATOM     27  C   UNL     1     -30.602  28.538   3.060  0.00  0.00    +0.000 C 
ATOM     28  C   UNL     1     -32.002  30.381   3.755  0.00  0.00    +0.000 C 
ATOM     29  C   UNL     1     -29.871  29.402   2.243  0.00  0.00    +0.000 C 
ATOM     30  C   UNL     1     -31.272  31.244   2.939  0.00  0.00    +0.000 C 
ATOM     31  C   UNL     1     -30.206  30.755   2.183  0.00  0.00    +0.000 C 
ENDBRANCH   2  26
TORSDOF 4
ENDMDL
MODEL 4
REMARK VINA RESULT:      -5.7      0.800      1.641
REMARK  Name = 58423153
REMARK  4 active torsions:
REMARK  status: ('A' for Active; 'I' for Inactive)
REMARK    1  A    between atoms: C_1  and  N_16
REMARK    2  A    between atoms: C_2  and  C_26
REMARK    3  A    between atoms: C_3  and  C_11
REMARK    4  A    between atoms: C_17  and  N_22
REMARK                            x       y       z     vdW  Elec       q    Type
REMARK                         _______ _______ _______ _____ _____    ______ ____
ROOT
ATOM      1  C   UNL     1     -34.981  23.990   3.039  0.00  0.00    +0.048 C 
ATOM      2  C   UNL     1     -34.676  24.985   3.969  0.00  0.00    +0.013 C 
ATOM      3  C   UNL     1     -35.386  22.729   3.476  0.00  0.00    +0.014 C 
ATOM      4  C   UNL     1     -34.779  24.719   5.334  0.00  0.00    +0.001 C 
ATOM      5  C   UNL     1     -35.487  22.462   4.842  0.00  0.00    +0.001 C 
ATOM      6  C   UNL     1     -35.184  23.458   5.771  0.00  0.00    +0.000 C 
ENDROOT
BRANCH   3  11
ATOM      7  S   UNL     1     -38.346  22.348   2.267  0.00  0.00    -0.025 S 
ATOM      8  O   UNL     1     -36.345  19.514   0.658  0.00  0.00    -0.269 OA
ATOM      9  O   UNL     1     -40.500  21.541   0.973  0.00  0.00    -0.262 OA
ATOM     10  N   UNL     1     -38.510  20.366   0.661  0.00  0.00    -0.243 N 
ATOM     11  C   UNL     1     -35.712  21.661   2.538  0.00  0.00    +0.012 C 
ATOM     12  C   UNL     1     -36.918  21.428   1.985  0.00  0.00    +0.087 C 
ATOM     13  C   UNL     1     -37.180  20.322   1.035  0.00  0.00    +0.258 C 
ATOM     14  C   UNL     1     -39.312  21.351   1.188  0.00  0.00    +0.283 C 
ATOM     15  H   UNL     1     -38.876  19.705   0.029  0.00  0.00    +0.159 HD
ENDBRANCH   3  11
BRANCH   1  16
ATOM     16  N   UNL     1     -34.878  24.256   1.669  0.00  0.00    -0.310 N 
ATOM     17  C   UNL     1     -33.624  24.088  -0.448  0.00  0.00    -0.046 C 
ATOM     18  C   UNL     1     -33.549  24.385   1.056  0.00  0.00    +0.069 C 
ATOM     19  C   UNL     1     -34.690  24.951  -1.127  0.00  0.00    -0.018 C 
ATOM     20  C   UNL     1     -36.040  24.743  -0.448  0.00  0.00    +0.019 C 
ATOM     21  C   UNL     1     -35.960  25.034   1.049  0.00  0.00    +0.091 C 
BRANCH  17  22
ATOM     22  N   UNL     1     -32.323  24.327  -1.068  0.00  0.00    +0.383 N 
ATOM     23  H   UNL     1     -32.202  23.696  -1.860  0.00  0.00    -0.089 HD
ATOM     24  H   UNL     1     -31.584  24.160  -0.385  0.00  0.00    -0.089 HD
ATOM     25  H   UNL     1     -32.273  25.293  -1.394  0.00  0.00    -0.089 HD
ENDBRANCH  17  22
ENDBRANCH   1  16
BRANCH   2  26
ATOM     26  C   UNL     1     -34.252  26.308   3.550  0.00  0.00    +0.001 C 
ATOM     27  C   UNL     1     -35.204  27.287   3.267  0.00  0.00    +0.000 C 
ATOM     28  C   UNL     1     -32.893  26.600   3.430  0.00  0.00    +0.000 C 
ATOM     29  C   UNL     1     -34.796  28.560   2.864  0.00  0.00    +0.000 C 
ATOM     30  C   UNL     1     -32.487  27.871   3.027  0.00  0.00    +0.000 C 
ATOM     31  C   UNL     1     -33.438  28.851   2.744  0.00  0.00    +0.000 C 
ENDBRANCH   2  26
TORSDOF 4
ENDMDL
MODEL 5
REMARK VINA RESULT:      -5.6      3.622      6.159
REMARK  Name = 58423153
REMARK  4 active torsions:
REMARK  status: ('A' for Active; 'I' for Inactive)
REMARK    1  A    between atoms: C_1  and  N_16
REMARK    2  A    between atoms: C_2  and  C_26
REMARK    3  A    between atoms: C_3  and  C_11
REMARK    4  A    between atoms: C_17  and  N_22
REMARK                            x       y       z     vdW  Elec       q    Type
REMARK                         _______ _______ _______ _____ _____    ______ ____
ROOT
ATOM      1  C   UNL     1     -34.528  22.366   0.969  0.00  0.00    +0.048 C 
ATOM      2  C   UNL     1     -34.217  21.008   0.890  0.00  0.00    +0.013 C 
ATOM      3  C   UNL     1     -35.424  22.821   1.936  0.00  0.00    +0.014 C 
ATOM      4  C   UNL     1     -34.801  20.106   1.779  0.00  0.00    +0.001 C 
ATOM      5  C   UNL     1     -36.009  21.919   2.826  0.00  0.00    +0.001 C 
ATOM      6  C   UNL     1     -35.697  20.561   2.747  0.00  0.00    +0.000 C 
ENDROOT
BRANCH   3  11
ATOM      7  S   UNL     1     -34.376  24.662   4.362  0.00  0.00    -0.025 S 
ATOM      8  O   UNL     1     -36.495  27.057   2.265  0.00  0.00    -0.269 OA
ATOM      9  O   UNL     1     -33.858  26.623   6.050  0.00  0.00    -0.262 OA
ATOM     10  N   UNL     1     -35.213  27.072   4.207  0.00  0.00    -0.243 N 
ATOM     11  C   UNL     1     -35.777  24.231   2.051  0.00  0.00    +0.012 C 
ATOM     12  C   UNL     1     -35.386  25.072   3.029  0.00  0.00    +0.087 C 
ATOM     13  C   UNL     1     -35.782  26.499   3.084  0.00  0.00    +0.258 C 
ATOM     14  C   UNL     1     -34.433  26.289   5.025  0.00  0.00    +0.283 C 
ATOM     15  H   UNL     1     -35.364  28.023   4.415  0.00  0.00    +0.159 HD
ENDBRANCH   3  11
BRANCH   1  16
ATOM     16  N   UNL     1     -33.943  23.272   0.076  0.00  0.00    -0.310 N 
ATOM     17  C   UNL     1     -31.981  24.572  -0.663  0.00  0.00    -0.046 C 
ATOM     18  C   UNL     1     -32.832  24.119   0.532  0.00  0.00    +0.069 C 
ATOM     19  C   UNL     1     -32.848  25.235  -1.736  0.00  0.00    -0.018 C 
ATOM     20  C   UNL     1     -33.959  24.284  -2.169  0.00  0.00    +0.019 C 
ATOM     21  C   UNL     1     -34.800  23.832  -0.978  0.00  0.00    +0.091 C 
BRANCH  17  22
ATOM     22  N   UNL     1     -30.948  25.503  -0.214  0.00  0.00    +0.383 N 
ATOM     23  H   UNL     1     -30.899  26.292  -0.857  0.00  0.00    -0.089 HD
ATOM     24  H   UNL     1     -30.047  25.027  -0.191  0.00  0.00    -0.089 HD
ATOM     25  H   UNL     1     -31.178  25.841   0.721  0.00  0.00    -0.089 HD
ENDBRANCH  17  22
ENDBRANCH   1  16
BRANCH   2  26
ATOM     26  C   UNL     1     -33.290  20.501  -0.104  0.00  0.00    +0.001 C 
ATOM     27  C   UNL     1     -31.951  20.298   0.233  0.00  0.00    +0.000 C 
ATOM     28  C   UNL     1     -33.736  20.215  -1.394  0.00  0.00    +0.000 C 
ATOM     29  C   UNL     1     -31.059  19.810  -0.723  0.00  0.00    +0.000 C 
ATOM     30  C   UNL     1     -32.844  19.727  -2.348  0.00  0.00    +0.000 C 
ATOM     31  C   UNL     1     -31.505  19.525  -2.013  0.00  0.00    +0.000 C 
ENDBRANCH   2  26
TORSDOF 4
ENDMDL
MODEL 6
REMARK VINA RESULT:      -5.6      1.332      2.233
REMARK  Name = 58423153
REMARK  4 active torsions:
REMARK  status: ('A' for Active; 'I' for Inactive)
REMARK    1  A    between atoms: C_1  and  N_16
REMARK    2  A    between atoms: C_2  and  C_26
REMARK    3  A    between atoms: C_3  and  C_11
REMARK    4  A    between atoms: C_17  and  N_22
REMARK                            x       y       z     vdW  Elec       q    Type
REMARK                         _______ _______ _______ _____ _____    ______ ____
ROOT
ATOM      1  C   UNL     1     -35.615  24.509   3.142  0.00  0.00    +0.048 C 
ATOM      2  C   UNL     1     -34.490  24.986   3.816  0.00  0.00    +0.013 C 
ATOM      3  C   UNL     1     -36.350  23.450   3.674  0.00  0.00    +0.014 C 
ATOM      4  C   UNL     1     -34.101  24.404   5.023  0.00  0.00    +0.001 C 
ATOM      5  C   UNL     1     -35.961  22.867   4.881  0.00  0.00    +0.001 C 
ATOM      6  C   UNL     1     -34.836  23.345   5.555  0.00  0.00    +0.000 C 
ENDROOT
BRANCH   3  11
ATOM      7  S   UNL     1     -36.214  20.890   1.725  0.00  0.00    -0.025 S 
ATOM      8  O   UNL     1     -39.909  21.875   1.662  0.00  0.00    -0.269 OA
ATOM      9  O   UNL     1     -36.732  18.902   0.069  0.00  0.00    -0.262 OA
ATOM     10  N   UNL     1     -38.492  20.275   0.741  0.00  0.00    -0.243 N 
ATOM     11  C   UNL     1     -37.530  22.921   3.001  0.00  0.00    +0.012 C 
ATOM     12  C   UNL     1     -37.565  21.860   2.172  0.00  0.00    +0.087 C 
ATOM     13  C   UNL     1     -38.804  21.373   1.521  0.00  0.00    +0.258 C 
ATOM     14  C   UNL     1     -37.187  19.845   0.698  0.00  0.00    +0.283 C 
ATOM     15  H   UNL     1     -39.191  19.811   0.226  0.00  0.00    +0.159 HD
ENDBRANCH   3  11
BRANCH   1  16
ATOM     16  N   UNL     1     -36.006  25.093   1.931  0.00  0.00    -0.310 N 
ATOM     17  C   UNL     1     -37.286  26.808   0.705  0.00  0.00    -0.046 C 
ATOM     18  C   UNL     1     -37.301  25.781   1.846  0.00  0.00    +0.069 C 
ATOM     19  C   UNL     1     -36.856  26.161  -0.613  0.00  0.00    -0.018 C 
ATOM     20  C   UNL     1     -35.496  25.490  -0.446  0.00  0.00    +0.019 C 
ATOM     21  C   UNL     1     -35.514  24.473   0.693  0.00  0.00    +0.091 C 
BRANCH  17  22
ATOM     22  N   UNL     1     -38.611  27.406   0.556  0.00  0.00    +0.383 N 
ATOM     23  H   UNL     1     -38.633  28.307   1.033  0.00  0.00    -0.089 HD
ATOM     24  H   UNL     1     -39.311  26.788   0.964  0.00  0.00    -0.089 HD
ATOM     25  H   UNL     1     -38.813  27.542  -0.435  0.00  0.00    -0.089 HD
ENDBRANCH  17  22
ENDBRANCH   1  16
BRANCH   2  26
ATOM     26  C   UNL     1     -33.703  26.086   3.291  0.00  0.00    +0.001 C 
ATOM     27  C   UNL     1     -34.047  27.401   3.607  0.00  0.00    +0.000 C 
ATOM     28  C   UNL     1     -32.604  25.829   2.472  0.00  0.00    +0.000 C 
ATOM     29  C   UNL     1     -33.290  28.459   3.102  0.00  0.00    +0.000 C 
ATOM     30  C   UNL     1     -31.848  26.887   1.968  0.00  0.00    +0.000 C 
ATOM     31  C   UNL     1     -32.191  28.202   2.283  0.00  0.00    +0.000 C 
ENDBRANCH   2  26
TORSDOF 4
ENDMDL
MODEL 7
REMARK VINA RESULT:      -5.6      5.145      7.711
REMARK  Name = 58423153
REMARK  4 active torsions:
REMARK  status: ('A' for Active; 'I' for Inactive)
REMARK    1  A    between atoms: C_1  and  N_16
REMARK    2  A    between atoms: C_2  and  C_26
REMARK    3  A    between atoms: C_3  and  C_11
REMARK    4  A    between atoms: C_17  and  N_22
REMARK                            x       y       z     vdW  Elec       q    Type
REMARK                         _______ _______ _______ _____ _____    ______ ____
ROOT
ATOM      1  C   UNL     1     -32.802  27.245   4.298  0.00  0.00    +0.048 C 
ATOM      2  C   UNL     1     -33.484  26.582   5.319  0.00  0.00    +0.013 C 
ATOM      3  C   UNL     1     -31.847  28.211   4.612  0.00  0.00    +0.014 C 
ATOM      4  C   UNL     1     -33.209  26.883   6.653  0.00  0.00    +0.001 C 
ATOM      5  C   UNL     1     -31.572  28.514   5.946  0.00  0.00    +0.001 C 
ATOM      6  C   UNL     1     -32.253  27.849   6.966  0.00  0.00    +0.000 C 
ENDROOT
BRANCH   3  11
ATOM      7  S   UNL     1     -32.727  31.139   3.598  0.00  0.00    -0.025 S 
ATOM      8  O   UNL     1     -29.628  30.352   1.499  0.00  0.00    -0.269 OA
ATOM      9  O   UNL     1     -32.939  33.470   2.382  0.00  0.00    -0.262 OA
ATOM     10  N   UNL     1     -31.187  32.057   1.775  0.00  0.00    -0.243 N 
ATOM     11  C   UNL     1     -31.113  28.929   3.576  0.00  0.00    +0.012 C 
ATOM     12  C   UNL     1     -31.409  30.151   3.093  0.00  0.00    +0.087 C 
ATOM     13  C   UNL     1     -30.618  30.825   2.037  0.00  0.00    +0.258 C 
ATOM     14  C   UNL     1     -32.308  32.430   2.480  0.00  0.00    +0.283 C 
ATOM     15  H   UNL     1     -30.799  32.655   1.097  0.00  0.00    +0.159 HD
ENDBRANCH   3  11
BRANCH   1  16
ATOM     16  N   UNL     1     -33.078  26.943   2.960  0.00  0.00    -0.310 N 
ATOM     17  C   UNL     1     -32.731  25.511   0.981  0.00  0.00    -0.046 C 
ATOM     18  C   UNL     1     -32.067  26.246   2.154  0.00  0.00    +0.069 C 
ATOM     19  C   UNL     1     -33.610  26.460   0.163  0.00  0.00    -0.018 C 
ATOM     20  C   UNL     1     -34.644  27.123   1.067  0.00  0.00    +0.019 C 
ATOM     21  C   UNL     1     -33.980  27.849   2.234  0.00  0.00    +0.091 C 
BRANCH  17  22
ATOM     22  N   UNL     1     -31.710  24.916   0.123  0.00  0.00    +0.383 N 
ATOM     23  H   UNL     1     -30.918  25.555   0.043  0.00  0.00    -0.089 HD
ATOM     24  H   UNL     1     -32.101  24.743  -0.803  0.00  0.00    -0.089 HD
ATOM     25  H   UNL     1     -31.395  24.035   0.530  0.00  0.00    -0.089 HD
ENDBRANCH  17  22
ENDBRANCH   1  16
BRANCH   2  26
ATOM     26  C   UNL     1     -34.484  25.571   5.029  0.00  0.00    +0.001 C 
ATOM     27  C   UNL     1     -35.819  25.940   4.861  0.00  0.00    +0.000 C 
ATOM     28  C   UNL     1     -34.110  24.232   4.916  0.00  0.00    +0.000 C 
ATOM     29  C   UNL     1     -36.781  24.968   4.582  0.00  0.00    +0.000 C 
ATOM     30  C   UNL     1     -35.072  23.261   4.636  0.00  0.00    +0.000 C 
ATOM     31  C   UNL     1     -36.407  23.629   4.469  0.00  0.00    +0.000 C 
ENDBRANCH   2  26
TORSDOF 4
ENDMDL
MODEL 8
REMARK VINA RESULT:      -5.6      3.467      6.419
REMARK  Name = 58423153
REMARK  4 active torsions:
REMARK  status: ('A' for Active; 'I' for Inactive)
REMARK    1  A    between atoms: C_1  and  N_16
REMARK    2  A    between atoms: C_2  and  C_26
REMARK    3  A    between atoms: C_3  and  C_11
REMARK    4  A    between atoms: C_17  and  N_22
REMARK                            x       y       z     vdW  Elec       q    Type
REMARK                         _______ _______ _______ _____ _____    ______ ____
ROOT
ATOM      1  C   UNL     1     -35.613  23.309   2.683  0.00  0.00    +0.048 C 
ATOM      2  C   UNL     1     -35.546  21.984   3.116  0.00  0.00    +0.013 C 
ATOM      3  C   UNL     1     -35.655  24.346   3.614  0.00  0.00    +0.014 C 
ATOM      4  C   UNL     1     -35.517  21.697   4.480  0.00  0.00    +0.001 C 
ATOM      5  C   UNL     1     -35.627  24.059   4.980  0.00  0.00    +0.001 C 
ATOM      6  C   UNL     1     -35.559  22.734   5.412  0.00  0.00    +0.000 C 
ENDROOT
BRANCH   3  11
ATOM      7  S   UNL     1     -33.337  26.467   4.322  0.00  0.00    -0.025 S 
ATOM      8  O   UNL     1     -35.891  28.540   2.372  0.00  0.00    -0.269 OA
ATOM      9  O   UNL     1     -31.822  28.611   4.587  0.00  0.00    -0.262 OA
ATOM     10  N   UNL     1     -33.835  28.810   3.428  0.00  0.00    -0.243 N 
ATOM     11  C   UNL     1     -35.727  25.743   3.204  0.00  0.00    +0.012 C 
ATOM     12  C   UNL     1     -34.809  26.695   3.456  0.00  0.00    +0.087 C 
ATOM     13  C   UNL     1     -34.945  28.100   3.007  0.00  0.00    +0.258 C 
ATOM     14  C   UNL     1     -32.860  28.149   4.138  0.00  0.00    +0.283 C 
ATOM     15  H   UNL     1     -33.745  29.768   3.223  0.00  0.00    +0.159 HD
ENDBRANCH   3  11
BRANCH   1  16
ATOM     16  N   UNL     1     -35.642  23.597   1.313  0.00  0.00    -0.310 N 
ATOM     17  C   UNL     1     -34.472  23.796  -0.850  0.00  0.00    -0.046 C 
ATOM     18  C   UNL     1     -34.427  24.097   0.655  0.00  0.00    +0.069 C 
ATOM     19  C   UNL     1     -35.763  24.325  -1.478  0.00  0.00    -0.018 C 
ATOM     20  C   UNL     1     -36.973  23.744  -0.754  0.00  0.00    +0.019 C 
ATOM     21  C   UNL     1     -36.922  24.040   0.743  0.00  0.00    +0.091 C 
BRANCH  17  22
ATOM     22  N   UNL     1     -33.315  24.394  -1.512  0.00  0.00    +0.383 N 
ATOM     23  H   UNL     1     -32.475  23.872  -1.265  0.00  0.00    -0.089 HD
ATOM     24  H   UNL     1     -33.213  25.363  -1.211  0.00  0.00    -0.089 HD
ATOM     25  H   UNL     1     -33.449  24.363  -2.523  0.00  0.00    -0.089 HD
ENDBRANCH  17  22
ENDBRANCH   1  16
BRANCH   2  26
ATOM     26  C   UNL     1     -35.501  20.881   2.174  0.00  0.00    +0.001 C 
ATOM     27  C   UNL     1     -36.677  20.428   1.577  0.00  0.00    +0.000 C 
ATOM     28  C   UNL     1     -34.283  20.276   1.865  0.00  0.00    +0.000 C 
ATOM     29  C   UNL     1     -36.634  19.367   0.670  0.00  0.00    +0.000 C 
ATOM     30  C   UNL     1     -34.240  19.217   0.960  0.00  0.00    +0.000 C 
ATOM     31  C   UNL     1     -35.416  18.762   0.362  0.00  0.00    +0.000 C 
ENDBRANCH   2  26
TORSDOF 4
ENDMDL
MODEL 9
REMARK VINA RESULT:      -5.5      2.667      3.855
REMARK  Name = 58423153
REMARK  4 active torsions:
REMARK  status: ('A' for Active; 'I' for Inactive)
REMARK    1  A    between atoms: C_1  and  N_16
REMARK    2  A    between atoms: C_2  and  C_26
REMARK    3  A    between atoms: C_3  and  C_11
REMARK    4  A    between atoms: C_17  and  N_22
REMARK                            x       y       z     vdW  Elec       q    Type
REMARK                         _______ _______ _______ _____ _____    ______ ____
ROOT
ATOM      1  C   UNL     1     -37.179  22.864   2.340  0.00  0.00    +0.048 C 
ATOM      2  C   UNL     1     -35.926  23.017   2.937  0.00  0.00    +0.013 C 
ATOM      3  C   UNL     1     -37.617  21.597   1.954  0.00  0.00    +0.014 C 
ATOM      4  C   UNL     1     -35.114  21.903   3.149  0.00  0.00    +0.001 C 
ATOM      5  C   UNL     1     -36.804  20.483   2.166  0.00  0.00    +0.001 C 
ATOM      6  C   UNL     1     -35.552  20.637   2.763  0.00  0.00    +0.000 C 
ENDROOT
BRANCH   3  11
ATOM      7  S   UNL     1     -37.938  21.097  -1.211  0.00  0.00    -0.025 S 
ATOM      8  O   UNL     1     -41.533  20.987   0.087  0.00  0.00    -0.269 OA
ATOM      9  O   UNL     1     -38.824  20.659  -3.657  0.00  0.00    -0.262 OA
ATOM     10  N   UNL     1     -40.374  20.785  -1.920  0.00  0.00    -0.243 N 
ATOM     11  C   UNL     1     -38.917  21.394   1.327  0.00  0.00    +0.012 C 
ATOM     12  C   UNL     1     -39.144  21.180   0.016  0.00  0.00    +0.087 C 
ATOM     13  C   UNL     1     -40.495  20.979  -0.556  0.00  0.00    +0.258 C 
ATOM     14  C   UNL     1     -39.119  20.808  -2.481  0.00  0.00    +0.283 C 
ATOM     15  H   UNL     1     -41.171  20.635  -2.478  0.00  0.00    +0.159 HD
ENDBRANCH   3  11
BRANCH   1  16
ATOM     16  N   UNL     1     -37.994  23.981   2.128  0.00  0.00    -0.310 N 
ATOM     17  C   UNL     1     -39.546  25.688   3.003  0.00  0.00    -0.046 C 
ATOM     18  C   UNL     1     -39.158  24.202   2.998  0.00  0.00    +0.069 C 
ATOM     19  C   UNL     1     -39.747  26.210   1.579  0.00  0.00    -0.018 C 
ATOM     20  C   UNL     1     -38.490  25.963   0.751  0.00  0.00    +0.019 C 
ATOM     21  C   UNL     1     -38.104  24.486   0.752  0.00  0.00    +0.091 C 
BRANCH  17  22
ATOM     22  N   UNL     1     -40.768  25.880   3.780  0.00  0.00    +0.383 N 
ATOM     23  H   UNL     1     -40.529  26.211   4.714  0.00  0.00    -0.089 HD
ATOM     24  H   UNL     1     -41.269  24.994   3.852  0.00  0.00    -0.089 HD
ATOM     25  H   UNL     1     -41.361  26.569   3.317  0.00  0.00    -0.089 HD
ENDBRANCH  17  22
ENDBRANCH   1  16
BRANCH   2  26
ATOM     26  C   UNL     1     -35.440  24.320   3.350  0.00  0.00    +0.001 C 
ATOM     27  C   UNL     1     -34.683  25.093   2.469  0.00  0.00    +0.000 C 
ATOM     28  C   UNL     1     -35.728  24.799   4.628  0.00  0.00    +0.000 C 
ATOM     29  C   UNL     1     -34.215  26.346   2.867  0.00  0.00    +0.000 C 
ATOM     30  C   UNL     1     -35.261  26.051   5.025  0.00  0.00    +0.000 C 
ATOM     31  C   UNL     1     -34.504  26.825   4.145  0.00  0.00    +0.000 C 
ENDBRANCH   2  26
TORSDOF 4
ENDMDL
