MODEL 1
REMARK VINA RESULT:      -6.5      0.000      0.000
REMARK  Name = 194389
REMARK  8 active torsions:
REMARK  status: ('A' for Active; 'I' for Inactive)
REMARK    1  A    between atoms: N_3  and  C_10
REMARK    2  A    between atoms: C_5  and  C_25
REMARK    3  A    between atoms: C_5  and  C_31
REMARK    4  A    between atoms: C_11  and  O_15
REMARK    5  A    between atoms: C_12  and  O_17
REMARK    6  A    between atoms: C_13  and  O_19
REMARK    7  A    between atoms: C_14  and  C_22
REMARK    8  A    between atoms: C_22  and  O_23
REMARK                            x       y       z     vdW  Elec       q    Type
REMARK                         _______ _______ _______ _____ _____    ______ ____
ROOT
ATOM      1  O   UNL     1     -34.142  23.234   1.301  0.00  0.00    -0.272 OA
ATOM      2  O   UNL     1     -38.108  20.965   1.874  0.00  0.00    -0.252 OA
ATOM      3  N   UNL     1     -36.245  22.379   1.842  0.00  0.00    -0.187 N 
ATOM      4  N   UNL     1     -36.287  20.632   0.458  0.00  0.00    -0.281 N 
ATOM      5  C   UNL     1     -35.017  21.268   0.142  0.00  0.00    +0.147 C 
ATOM      6  C   UNL     1     -35.048  22.422   1.157  0.00  0.00    +0.254 C 
ATOM      7  C   UNL     1     -37.010  21.300   1.447  0.00  0.00    +0.312 C 
ATOM      8  H   UNL     1     -36.604  19.810   0.017  0.00  0.00    +0.152 HD
ENDROOT
BRANCH   3  10
ATOM      9  O   UNL     1     -36.638  24.612   2.278  0.00  0.00    -0.324 OA
ATOM     10  C   UNL     1     -36.630  23.315   2.867  0.00  0.00    +0.232 C 
ATOM     11  C   UNL     1     -35.658  23.263   4.044  0.00  0.00    +0.187 C 
ATOM     12  C   UNL     1     -35.975  24.360   5.061  0.00  0.00    +0.171 C 
ATOM     13  C   UNL     1     -36.140  25.722   4.388  0.00  0.00    +0.178 C 
ATOM     14  C   UNL     1     -37.073  25.619   3.185  0.00  0.00    +0.244 C 
BRANCH  11  15
ATOM     15  O   UNL     1     -35.765  22.003   4.705  0.00  0.00    -0.378 OA
ATOM     16  H   UNL     1     -34.880  21.684   4.936  0.00  0.00    +0.211 HD
ENDBRANCH  11  15
BRANCH  12  17
ATOM     17  O   UNL     1     -34.906  24.450   6.005  0.00  0.00    -0.379 OA
ATOM     18  H   UNL     1     -34.075  24.190   5.577  0.00  0.00    +0.211 HD
ENDBRANCH  12  17
BRANCH  13  19
ATOM     19  O   UNL     1     -36.688  26.625   5.346  0.00  0.00    -0.379 OA
ATOM     20  H   UNL     1     -36.357  27.520   5.173  0.00  0.00    +0.211 HD
ENDBRANCH  13  19
BRANCH  14  22
ATOM     21  O   UNL     1     -37.834  27.164   1.495  0.00  0.00    -0.247 OA
ATOM     22  C   UNL     1     -37.020  26.859   2.353  0.00  0.00    +0.344 C 
BRANCH  22  23
ATOM     23  O   UNL     1     -35.938  27.608   2.679  0.00  0.00    -0.478 OA
ATOM     24  H   UNL     1     -35.075  27.273   2.531  0.00  0.00    +0.295 HD
ENDBRANCH  22  23
ENDBRANCH  14  22
ENDBRANCH   3  10
BRANCH   5  25
ATOM     25  C   UNL     1     -33.850  20.324   0.397  0.00  0.00    +0.002 C 
ATOM     26  C   UNL     1     -32.625  20.543  -0.233  0.00  0.00    -0.002 C 
ATOM     27  C   UNL     1     -34.005  19.239   1.262  0.00  0.00    -0.002 C 
ATOM     28  C   UNL     1     -31.555  19.678   0.000  0.00  0.00    -0.000 C 
ATOM     29  C   UNL     1     -32.936  18.375   1.496  0.00  0.00    -0.000 C 
ATOM     30  C   UNL     1     -31.711  18.594   0.865  0.00  0.00    -0.000 C 
ENDBRANCH   5  25
BRANCH   5  31
ATOM     31  C   UNL     1     -35.104  21.887  -1.259  0.00  0.00    +0.031 C 
ATOM     32  C   UNL     1     -35.822  20.968  -2.233  0.00  0.00    +0.003 C 
ENDBRANCH   5  31
TORSDOF 8
ENDMDL
MODEL 2
REMARK VINA RESULT:      -6.2      1.650      2.686
REMARK  Name = 194389
REMARK  8 active torsions:
REMARK  status: ('A' for Active; 'I' for Inactive)
REMARK    1  A    between atoms: N_3  and  C_10
REMARK    2  A    between atoms: C_5  and  C_25
REMARK    3  A    between atoms: C_5  and  C_31
REMARK    4  A    between atoms: C_11  and  O_15
REMARK    5  A    between atoms: C_12  and  O_17
REMARK    6  A    between atoms: C_13  and  O_19
REMARK    7  A    between atoms: C_14  and  C_22
REMARK    8  A    between atoms: C_22  and  O_23
REMARK                            x       y       z     vdW  Elec       q    Type
REMARK                         _______ _______ _______ _____ _____    ______ ____
ROOT
ATOM      1  O   UNL     1     -34.789  22.033  -0.343  0.00  0.00    -0.272 OA
ATOM      2  O   UNL     1     -35.427  20.816   4.052  0.00  0.00    -0.252 OA
ATOM      3  N   UNL     1     -35.292  21.770   1.920  0.00  0.00    -0.187 N 
ATOM      4  N   UNL     1     -34.562  19.683   2.207  0.00  0.00    -0.281 N 
ATOM      5  C   UNL     1     -34.339  19.914   0.788  0.00  0.00    +0.147 C 
ATOM      6  C   UNL     1     -34.822  21.370   0.686  0.00  0.00    +0.254 C 
ATOM      7  C   UNL     1     -35.137  20.774   2.863  0.00  0.00    +0.312 C 
ATOM      8  H   UNL     1     -34.328  18.841   2.660  0.00  0.00    +0.152 HD
ENDROOT
BRANCH   3  10
ATOM      9  O   UNL     1     -35.122  23.603   3.313  0.00  0.00    -0.324 OA
ATOM     10  C   UNL     1     -35.835  23.074   2.200  0.00  0.00    +0.232 C 
ATOM     11  C   UNL     1     -37.329  22.988   2.507  0.00  0.00    +0.187 C 
ATOM     12  C   UNL     1     -37.873  24.345   2.952  0.00  0.00    +0.171 C 
ATOM     13  C   UNL     1     -37.000  24.973   4.038  0.00  0.00    +0.178 C 
ATOM     14  C   UNL     1     -35.528  24.928   3.641  0.00  0.00    +0.244 C 
BRANCH  11  15
ATOM     15  O   UNL     1     -38.041  22.588   1.337  0.00  0.00    -0.378 OA
ATOM     16  H   UNL     1     -37.822  21.669   1.124  0.00  0.00    +0.211 HD
ENDBRANCH  11  15
BRANCH  12  17
ATOM     17  O   UNL     1     -39.191  24.175   3.475  0.00  0.00    -0.379 OA
ATOM     18  H   UNL     1     -39.328  23.244   3.711  0.00  0.00    +0.211 HD
ENDBRANCH  12  17
BRANCH  13  19
ATOM     19  O   UNL     1     -37.412  26.329   4.207  0.00  0.00    -0.379 OA
ATOM     20  H   UNL     1     -37.242  26.607   5.120  0.00  0.00    +0.211 HD
ENDBRANCH  13  19
BRANCH  14  22
ATOM     21  O   UNL     1     -35.029  25.735   5.859  0.00  0.00    -0.247 OA
ATOM     22  C   UNL     1     -34.646  25.269   4.797  0.00  0.00    +0.344 C 
BRANCH  22  23
ATOM     23  O   UNL     1     -33.351  24.991   4.509  0.00  0.00    -0.478 OA
ATOM     24  H   UNL     1     -33.132  24.555   3.709  0.00  0.00    +0.295 HD
ENDBRANCH  22  23
ENDBRANCH  14  22
ENDBRANCH   3  10
BRANCH   5  25
ATOM     25  C   UNL     1     -32.865  19.783   0.433  0.00  0.00    +0.002 C 
ATOM     26  C   UNL     1     -32.218  20.812  -0.252  0.00  0.00    -0.002 C 
ATOM     27  C   UNL     1     -32.159  18.634   0.793  0.00  0.00    -0.002 C 
ATOM     28  C   UNL     1     -30.866  20.692  -0.577  0.00  0.00    -0.000 C 
ATOM     29  C   UNL     1     -30.808  18.514   0.469  0.00  0.00    -0.000 C 
ATOM     30  C   UNL     1     -30.162  19.543  -0.217  0.00  0.00    -0.000 C 
ENDBRANCH   5  25
BRANCH   5  31
ATOM     31  C   UNL     1     -35.317  19.049  -0.017  0.00  0.00    +0.031 C 
ATOM     32  C   UNL     1     -34.828  18.828  -1.438  0.00  0.00    +0.003 C 
ENDBRANCH   5  31
TORSDOF 8
ENDMDL
MODEL 3
REMARK VINA RESULT:      -6.1      1.796      2.650
REMARK  Name = 194389
REMARK  8 active torsions:
REMARK  status: ('A' for Active; 'I' for Inactive)
REMARK    1  A    between atoms: N_3  and  C_10
REMARK    2  A    between atoms: C_5  and  C_25
REMARK    3  A    between atoms: C_5  and  C_31
REMARK    4  A    between atoms: C_11  and  O_15
REMARK    5  A    between atoms: C_12  and  O_17
REMARK    6  A    between atoms: C_13  and  O_19
REMARK    7  A    between atoms: C_14  and  C_22
REMARK    8  A    between atoms: C_22  and  O_23
REMARK                            x       y       z     vdW  Elec       q    Type
REMARK                         _______ _______ _______ _____ _____    ______ ____
ROOT
ATOM      1  O   UNL     1     -35.130  22.488   0.113  0.00  0.00    -0.272 OA
ATOM      2  O   UNL     1     -35.522  22.100   4.685  0.00  0.00    -0.252 OA
ATOM      3  N   UNL     1     -35.414  22.680   2.422  0.00  0.00    -0.187 N 
ATOM      4  N   UNL     1     -35.169  20.539   2.990  0.00  0.00    -0.281 N 
ATOM      5  C   UNL     1     -35.065  20.505   1.540  0.00  0.00    +0.147 C 
ATOM      6  C   UNL     1     -35.199  22.006   1.237  0.00  0.00    +0.254 C 
ATOM      7  C   UNL     1     -35.390  21.819   3.500  0.00  0.00    +0.312 C 
ATOM      8  H   UNL     1     -35.090  19.736   3.556  0.00  0.00    +0.152 HD
ENDROOT
BRANCH   3  10
ATOM      9  O   UNL     1     -34.306  24.704   2.498  0.00  0.00    -0.324 OA
ATOM     10  C   UNL     1     -35.597  24.105   2.524  0.00  0.00    +0.232 C 
ATOM     11  C   UNL     1     -36.334  24.468   3.812  0.00  0.00    +0.187 C 
ATOM     12  C   UNL     1     -36.395  25.984   3.996  0.00  0.00    +0.171 C 
ATOM     13  C   UNL     1     -35.023  26.630   3.804  0.00  0.00    +0.178 C 
ATOM     14  C   UNL     1     -34.364  26.126   2.524  0.00  0.00    +0.244 C 
BRANCH  11  15
ATOM     15  O   UNL     1     -37.672  23.976   3.759  0.00  0.00    -0.378 OA
ATOM     16  H   UNL     1     -38.283  24.667   4.058  0.00  0.00    +0.211 HD
ENDBRANCH  11  15
BRANCH  12  17
ATOM     17  O   UNL     1     -36.851  26.280   5.318  0.00  0.00    -0.379 OA
ATOM     18  H   UNL     1     -36.300  25.809   5.962  0.00  0.00    +0.211 HD
ENDBRANCH  12  17
BRANCH  13  19
ATOM     19  O   UNL     1     -35.207  28.043   3.728  0.00  0.00    -0.379 OA
ATOM     20  H   UNL     1     -34.571  28.417   3.099  0.00  0.00    +0.211 HD
ENDBRANCH  13  19
BRANCH  14  22
ATOM     21  O   UNL     1     -31.994  25.834   2.867  0.00  0.00    -0.247 OA
ATOM     22  C   UNL     1     -32.924  26.518   2.467  0.00  0.00    +0.344 C 
BRANCH  22  23
ATOM     23  O   UNL     1     -32.784  27.746   1.909  0.00  0.00    -0.478 OA
ATOM     24  H   UNL     1     -31.996  28.234   2.043  0.00  0.00    +0.295 HD
ENDBRANCH  22  23
ENDBRANCH  14  22
ENDBRANCH   3  10
BRANCH   5  25
ATOM     25  C   UNL     1     -33.714  19.959   1.097  0.00  0.00    +0.002 C 
ATOM     26  C   UNL     1     -33.295  18.700   1.526  0.00  0.00    -0.002 C 
ATOM     27  C   UNL     1     -32.895  20.718   0.260  0.00  0.00    -0.002 C 
ATOM     28  C   UNL     1     -32.057  18.200   1.120  0.00  0.00    -0.000 C 
ATOM     29  C   UNL     1     -31.658  20.219  -0.147  0.00  0.00    -0.000 C 
ATOM     30  C   UNL     1     -31.239  18.959   0.284  0.00  0.00    -0.000 C 
ENDBRANCH   5  25
BRANCH   5  31
ATOM     31  C   UNL     1     -36.306  19.808   0.967  0.00  0.00    +0.031 C 
ATOM     32  C   UNL     1     -36.094  19.388  -0.478  0.00  0.00    +0.003 C 
ENDBRANCH   5  31
TORSDOF 8
ENDMDL
MODEL 4
REMARK VINA RESULT:      -6.1      1.677      2.455
REMARK  Name = 194389
REMARK  8 active torsions:
REMARK  status: ('A' for Active; 'I' for Inactive)
REMARK    1  A    between atoms: N_3  and  C_10
REMARK    2  A    between atoms: C_5  and  C_25
REMARK    3  A    between atoms: C_5  and  C_31
REMARK    4  A    between atoms: C_11  and  O_15
REMARK    5  A    between atoms: C_12  and  O_17
REMARK    6  A    between atoms: C_13  and  O_19
REMARK    7  A    between atoms: C_14  and  C_22
REMARK    8  A    between atoms: C_22  and  O_23
REMARK                            x       y       z     vdW  Elec       q    Type
REMARK                         _______ _______ _______ _____ _____    ______ ____
ROOT
ATOM      1  O   UNL     1     -35.339  23.501   0.839  0.00  0.00    -0.272 OA
ATOM      2  O   UNL     1     -35.901  22.325   5.256  0.00  0.00    -0.252 OA
ATOM      3  N   UNL     1     -35.648  23.296   3.144  0.00  0.00    -0.187 N 
ATOM      4  N   UNL     1     -35.749  21.075   3.294  0.00  0.00    -0.281 N 
ATOM      5  C   UNL     1     -35.614  21.299   1.863  0.00  0.00    +0.147 C 
ATOM      6  C   UNL     1     -35.509  22.832   1.852  0.00  0.00    +0.254 C 
ATOM      7  C   UNL     1     -35.784  22.256   4.039  0.00  0.00    +0.312 C 
ATOM      8  H   UNL     1     -35.808  20.179   3.698  0.00  0.00    +0.152 HD
ENDROOT
BRANCH   3  10
ATOM      9  O   UNL     1     -36.141  25.434   2.423  0.00  0.00    -0.324 OA
ATOM     10  C   UNL     1     -35.614  24.688   3.515  0.00  0.00    +0.232 C 
ATOM     11  C   UNL     1     -34.188  25.132   3.833  0.00  0.00    +0.187 C 
ATOM     12  C   UNL     1     -34.128  26.639   4.079  0.00  0.00    +0.171 C 
ATOM     13  C   UNL     1     -34.842  27.418   2.974  0.00  0.00    +0.178 C 
ATOM     14  C   UNL     1     -36.222  26.827   2.703  0.00  0.00    +0.244 C 
BRANCH  11  15
ATOM     15  O   UNL     1     -33.728  24.474   5.013  0.00  0.00    -0.378 OA
ATOM     16  H   UNL     1     -33.508  23.553   4.805  0.00  0.00    +0.211 HD
ENDBRANCH  11  15
BRANCH  12  17
ATOM     17  O   UNL     1     -32.762  27.057   4.114  0.00  0.00    -0.379 OA
ATOM     18  H   UNL     1     -32.393  26.881   4.993  0.00  0.00    +0.211 HD
ENDBRANCH  12  17
BRANCH  13  19
ATOM     19  O   UNL     1     -34.974  28.773   3.403  0.00  0.00    -0.379 OA
ATOM     20  H   UNL     1     -34.526  28.886   4.256  0.00  0.00    +0.211 HD
ENDBRANCH  13  19
BRANCH  14  22
ATOM     21  O   UNL     1     -37.154  28.546   1.289  0.00  0.00    -0.247 OA
ATOM     22  C   UNL     1     -36.811  27.384   1.448  0.00  0.00    +0.344 C 
BRANCH  22  23
ATOM     23  O   UNL     1     -36.918  26.421   0.501  0.00  0.00    -0.478 OA
ATOM     24  H   UNL     1     -37.727  25.962   0.388  0.00  0.00    +0.295 HD
ENDBRANCH  22  23
ENDBRANCH  14  22
ENDBRANCH   3  10
BRANCH   5  25
ATOM     25  C   UNL     1     -34.353  20.643   1.319  0.00  0.00    +0.002 C 
ATOM     26  C   UNL     1     -34.020  19.344   1.703  0.00  0.00    -0.002 C 
ATOM     27  C   UNL     1     -33.529  21.341   0.435  0.00  0.00    -0.002 C 
ATOM     28  C   UNL     1     -32.864  18.743   1.204  0.00  0.00    -0.000 C 
ATOM     29  C   UNL     1     -32.373  20.741  -0.064  0.00  0.00    -0.000 C 
ATOM     30  C   UNL     1     -32.040  19.442   0.321  0.00  0.00    -0.000 C 
ENDBRANCH   5  25
BRANCH   5  31
ATOM     31  C   UNL     1     -36.933  20.924   1.174  0.00  0.00    +0.031 C 
ATOM     32  C   UNL     1     -36.706  20.476  -0.260  0.00  0.00    +0.003 C 
ENDBRANCH   5  31
TORSDOF 8
ENDMDL
MODEL 5
REMARK VINA RESULT:      -6.1      1.555      2.868
REMARK  Name = 194389
REMARK  8 active torsions:
REMARK  status: ('A' for Active; 'I' for Inactive)
REMARK    1  A    between atoms: N_3  and  C_10
REMARK    2  A    between atoms: C_5  and  C_25
REMARK    3  A    between atoms: C_5  and  C_31
REMARK    4  A    between atoms: C_11  and  O_15
REMARK    5  A    between atoms: C_12  and  O_17
REMARK    6  A    between atoms: C_13  and  O_19
REMARK    7  A    between atoms: C_14  and  C_22
REMARK    8  A    between atoms: C_22  and  O_23
REMARK                            x       y       z     vdW  Elec       q    Type
REMARK                         _______ _______ _______ _____ _____    ______ ____
ROOT
ATOM      1  O   UNL     1     -33.932  22.850  -0.264  0.00  0.00    -0.272 OA
ATOM      2  O   UNL     1     -36.012  22.281   3.805  0.00  0.00    -0.252 OA
ATOM      3  N   UNL     1     -34.984  22.959   1.816  0.00  0.00    -0.187 N 
ATOM      4  N   UNL     1     -35.388  20.789   2.125  0.00  0.00    -0.281 N 
ATOM      5  C   UNL     1     -34.778  20.822   0.806  0.00  0.00    +0.147 C 
ATOM      6  C   UNL     1     -34.495  22.328   0.691  0.00  0.00    +0.254 C 
ATOM      7  C   UNL     1     -35.521  22.052   2.707  0.00  0.00    +0.312 C 
ATOM      8  H   UNL     1     -35.679  19.957   2.566  0.00  0.00    +0.152 HD
ENDROOT
BRANCH   3  10
ATOM      9  O   UNL     1     -34.485  24.565   3.398  0.00  0.00    -0.324 OA
ATOM     10  C   UNL     1     -34.906  24.378   2.051  0.00  0.00    +0.232 C 
ATOM     11  C   UNL     1     -36.260  25.044   1.812  0.00  0.00    +0.187 C 
ATOM     12  C   UNL     1     -36.218  26.521   2.207  0.00  0.00    +0.171 C 
ATOM     13  C   UNL     1     -35.612  26.715   3.596  0.00  0.00    +0.178 C 
ATOM     14  C   UNL     1     -34.305  25.938   3.727  0.00  0.00    +0.244 C 
BRANCH  11  15
ATOM     15  O   UNL     1     -36.600  24.967   0.428  0.00  0.00    -0.378 OA
ATOM     16  H   UNL     1     -35.796  25.048  -0.107  0.00  0.00    +0.211 HD
ENDBRANCH  11  15
BRANCH  12  17
ATOM     17  O   UNL     1     -37.548  27.043   2.219  0.00  0.00    -0.379 OA
ATOM     18  H   UNL     1     -37.836  27.171   3.136  0.00  0.00    +0.211 HD
ENDBRANCH  12  17
BRANCH  13  19
ATOM     19  O   UNL     1     -35.364  28.108   3.780  0.00  0.00    -0.379 OA
ATOM     20  H   UNL     1     -34.887  28.455   3.010  0.00  0.00    +0.211 HD
ENDBRANCH  13  19
BRANCH  14  22
ATOM     21  O   UNL     1     -33.102  26.688   5.680  0.00  0.00    -0.247 OA
ATOM     22  C   UNL     1     -33.851  25.881   5.150  0.00  0.00    +0.344 C 
BRANCH  22  23
ATOM     23  O   UNL     1     -34.384  24.806   5.779  0.00  0.00    -0.478 OA
ATOM     24  H   UNL     1     -34.277  24.704   6.705  0.00  0.00    +0.295 HD
ENDBRANCH  22  23
ENDBRANCH  14  22
ENDBRANCH   3  10
BRANCH   5  25
ATOM     25  C   UNL     1     -33.495  20.003   0.771  0.00  0.00    +0.002 C 
ATOM     26  C   UNL     1     -32.387  20.470   0.063  0.00  0.00    -0.002 C 
ATOM     27  C   UNL     1     -33.426  18.785   1.449  0.00  0.00    -0.002 C 
ATOM     28  C   UNL     1     -31.212  19.719   0.032  0.00  0.00    -0.000 C 
ATOM     29  C   UNL     1     -32.251  18.034   1.418  0.00  0.00    -0.000 C 
ATOM     30  C   UNL     1     -31.144  18.501   0.710  0.00  0.00    -0.000 C 
ENDBRANCH   5  25
BRANCH   5  31
ATOM     31  C   UNL     1     -35.841  20.474  -0.244  0.00  0.00    +0.031 C 
ATOM     32  C   UNL     1     -36.885  19.521   0.312  0.00  0.00    +0.003 C 
ENDBRANCH   5  31
TORSDOF 8
ENDMDL
MODEL 6
REMARK VINA RESULT:      -6.0      3.726      6.081
REMARK  Name = 194389
REMARK  8 active torsions:
REMARK  status: ('A' for Active; 'I' for Inactive)
REMARK    1  A    between atoms: N_3  and  C_10
REMARK    2  A    between atoms: C_5  and  C_25
REMARK    3  A    between atoms: C_5  and  C_31
REMARK    4  A    between atoms: C_11  and  O_15
REMARK    5  A    between atoms: C_12  and  O_17
REMARK    6  A    between atoms: C_13  and  O_19
REMARK    7  A    between atoms: C_14  and  C_22
REMARK    8  A    between atoms: C_22  and  O_23
REMARK                            x       y       z     vdW  Elec       q    Type
REMARK                         _______ _______ _______ _____ _____    ______ ____
ROOT
ATOM      1  O   UNL     1     -39.122  24.034   3.477  0.00  0.00    -0.272 OA
ATOM      2  O   UNL     1     -37.468  27.722   1.270  0.00  0.00    -0.252 OA
ATOM      3  N   UNL     1     -38.665  25.985   2.280  0.00  0.00    -0.187 N 
ATOM      4  N   UNL     1     -36.458  26.074   2.574  0.00  0.00    -0.281 N 
ATOM      5  C   UNL     1     -36.842  24.904   3.348  0.00  0.00    +0.147 C 
ATOM      6  C   UNL     1     -38.351  24.890   3.059  0.00  0.00    +0.254 C 
ATOM      7  C   UNL     1     -37.538  26.714   1.962  0.00  0.00    +0.312 C 
ATOM      8  H   UNL     1     -35.527  26.384   2.490  0.00  0.00    +0.152 HD
ENDROOT
BRANCH   3  10
ATOM      9  O   UNL     1     -40.737  26.751   2.952  0.00  0.00    -0.324 OA
ATOM     10  C   UNL     1     -39.993  26.303   1.823  0.00  0.00    +0.232 C 
ATOM     11  C   UNL     1     -40.658  25.083   1.189  0.00  0.00    +0.187 C 
ATOM     12  C   UNL     1     -42.118  25.376   0.842  0.00  0.00    +0.171 C 
ATOM     13  C   UNL     1     -42.860  26.008   2.019  0.00  0.00    +0.178 C 
ATOM     14  C   UNL     1     -42.055  27.163   2.607  0.00  0.00    +0.244 C 
BRANCH  11  15
ATOM     15  O   UNL     1     -39.980  24.733  -0.017  0.00  0.00    -0.378 OA
ATOM     16  H   UNL     1     -39.515  23.892   0.107  0.00  0.00    +0.211 HD
ENDBRANCH  11  15
BRANCH  12  17
ATOM     17  O   UNL     1     -42.775  24.155   0.499  0.00  0.00    -0.379 OA
ATOM     18  H   UNL     1     -43.569  24.051   1.046  0.00  0.00    +0.211 HD
ENDBRANCH  12  17
BRANCH  13  19
ATOM     19  O   UNL     1     -44.116  26.489   1.543  0.00  0.00    -0.379 OA
ATOM     20  H   UNL     1     -44.830  25.943   1.905  0.00  0.00    +0.211 HD
ENDBRANCH  13  19
BRANCH  14  22
ATOM     21  O   UNL     1     -43.634  27.155   4.431  0.00  0.00    -0.247 OA
ATOM     22  C   UNL     1     -42.619  27.602   3.919  0.00  0.00    +0.344 C 
BRANCH  22  23
ATOM     23  O   UNL     1     -41.850  28.572   4.470  0.00  0.00    -0.478 OA
ATOM     24  H   UNL     1     -42.200  29.432   4.599  0.00  0.00    +0.295 HD
ENDBRANCH  22  23
ENDBRANCH  14  22
ENDBRANCH   3  10
BRANCH   5  25
ATOM     25  C   UNL     1     -36.156  23.649   2.826  0.00  0.00    +0.002 C 
ATOM     26  C   UNL     1     -35.551  23.656   1.568  0.00  0.00    -0.002 C 
ATOM     27  C   UNL     1     -36.132  22.491   3.604  0.00  0.00    -0.002 C 
ATOM     28  C   UNL     1     -34.923  22.505   1.090  0.00  0.00    -0.000 C 
ATOM     29  C   UNL     1     -35.503  21.342   3.127  0.00  0.00    -0.000 C 
ATOM     30  C   UNL     1     -34.899  21.348   1.869  0.00  0.00    -0.000 C 
ENDBRANCH   5  25
BRANCH   5  31
ATOM     31  C   UNL     1     -36.663  25.212   4.840  0.00  0.00    +0.031 C 
ATOM     32  C   UNL     1     -35.379  25.981   5.102  0.00  0.00    +0.003 C 
ENDBRANCH   5  31
TORSDOF 8
ENDMDL
MODEL 7
REMARK VINA RESULT:      -6.0      3.066      7.299
REMARK  Name = 194389
REMARK  8 active torsions:
REMARK  status: ('A' for Active; 'I' for Inactive)
REMARK    1  A    between atoms: N_3  and  C_10
REMARK    2  A    between atoms: C_5  and  C_25
REMARK    3  A    between atoms: C_5  and  C_31
REMARK    4  A    between atoms: C_11  and  O_15
REMARK    5  A    between atoms: C_12  and  O_17
REMARK    6  A    between atoms: C_13  and  O_19
REMARK    7  A    between atoms: C_14  and  C_22
REMARK    8  A    between atoms: C_22  and  O_23
REMARK                            x       y       z     vdW  Elec       q    Type
REMARK                         _______ _______ _______ _____ _____    ______ ____
ROOT
ATOM      1  O   UNL     1     -36.078  25.920   1.235  0.00  0.00    -0.272 OA
ATOM      2  O   UNL     1     -36.088  25.940   5.840  0.00  0.00    -0.252 OA
ATOM      3  N   UNL     1     -36.290  25.593   3.536  0.00  0.00    -0.187 N 
ATOM      4  N   UNL     1     -35.050  27.299   4.255  0.00  0.00    -0.281 N 
ATOM      5  C   UNL     1     -34.923  27.391   2.809  0.00  0.00    +0.147 C 
ATOM      6  C   UNL     1     -35.831  26.221   2.397  0.00  0.00    +0.254 C 
ATOM      7  C   UNL     1     -35.843  26.229   4.675  0.00  0.00    +0.312 C 
ATOM      8  H   UNL     1     -34.619  27.930   4.876  0.00  0.00    +0.152 HD
ENDROOT
BRANCH   3  10
ATOM      9  O   UNL     1     -36.440  23.365   2.950  0.00  0.00    -0.324 OA
ATOM     10  C   UNL     1     -37.160  24.444   3.536  0.00  0.00    +0.232 C 
ATOM     11  C   UNL     1     -38.439  24.729   2.751  0.00  0.00    +0.187 C 
ATOM     12  C   UNL     1     -39.291  23.467   2.621  0.00  0.00    +0.171 C 
ATOM     13  C   UNL     1     -38.463  22.275   2.143  0.00  0.00    +0.178 C 
ATOM     14  C   UNL     1     -37.180  22.148   2.958  0.00  0.00    +0.244 C 
BRANCH  11  15
ATOM     15  O   UNL     1     -39.214  25.717   3.429  0.00  0.00    -0.378 OA
ATOM     16  H   UNL     1     -38.817  26.590   3.289  0.00  0.00    +0.211 HD
ENDBRANCH  11  15
BRANCH  12  17
ATOM     17  O   UNL     1     -40.335  23.699   1.674  0.00  0.00    -0.379 OA
ATOM     18  H   UNL     1     -40.447  22.912   1.118  0.00  0.00    +0.211 HD
ENDBRANCH  12  17
BRANCH  13  19
ATOM     19  O   UNL     1     -39.252  21.097   2.301  0.00  0.00    -0.379 OA
ATOM     20  H   UNL     1     -39.251  20.594   1.472  0.00  0.00    +0.211 HD
ENDBRANCH  13  19
BRANCH  14  22
ATOM     21  O   UNL     1     -35.250  21.486   1.669  0.00  0.00    -0.247 OA
ATOM     22  C   UNL     1     -36.232  21.180   2.328  0.00  0.00    +0.344 C 
BRANCH  22  23
ATOM     23  O   UNL     1     -36.612  19.904   2.584  0.00  0.00    -0.478 OA
ATOM     24  H   UNL     1     -37.522  19.681   2.607  0.00  0.00    +0.295 HD
ENDBRANCH  22  23
ENDBRANCH  14  22
ENDBRANCH   3  10
BRANCH   5  25
ATOM     25  C   UNL     1     -35.451  28.723   2.293  0.00  0.00    +0.002 C 
ATOM     26  C   UNL     1     -36.280  28.758   1.172  0.00  0.00    -0.002 C 
ATOM     27  C   UNL     1     -35.105  29.909   2.942  0.00  0.00    -0.002 C 
ATOM     28  C   UNL     1     -36.764  29.979   0.700  0.00  0.00    -0.000 C 
ATOM     29  C   UNL     1     -35.588  31.129   2.471  0.00  0.00    -0.000 C 
ATOM     30  C   UNL     1     -36.417  31.164   1.349  0.00  0.00    -0.000 C 
ENDBRANCH   5  25
BRANCH   5  31
ATOM     31  C   UNL     1     -33.489  27.022   2.409  0.00  0.00    +0.031 C 
ATOM     32  C   UNL     1     -32.487  27.443   3.470  0.00  0.00    +0.003 C 
ENDBRANCH   5  31
TORSDOF 8
ENDMDL
MODEL 8
REMARK VINA RESULT:      -5.9      3.881      7.663
REMARK  Name = 194389
REMARK  8 active torsions:
REMARK  status: ('A' for Active; 'I' for Inactive)
REMARK    1  A    between atoms: N_3  and  C_10
REMARK    2  A    between atoms: C_5  and  C_25
REMARK    3  A    between atoms: C_5  and  C_31
REMARK    4  A    between atoms: C_11  and  O_15
REMARK    5  A    between atoms: C_12  and  O_17
REMARK    6  A    between atoms: C_13  and  O_19
REMARK    7  A    between atoms: C_14  and  C_22
REMARK    8  A    between atoms: C_22  and  O_23
REMARK                            x       y       z     vdW  Elec       q    Type
REMARK                         _______ _______ _______ _____ _____    ______ ____
ROOT
ATOM      1  O   UNL     1     -34.164  26.999   1.777  0.00  0.00    -0.272 OA
ATOM      2  O   UNL     1     -33.379  26.911   6.313  0.00  0.00    -0.252 OA
ATOM      3  N   UNL     1     -33.968  26.612   4.070  0.00  0.00    -0.187 N 
ATOM      4  N   UNL     1     -32.664  28.336   4.612  0.00  0.00    -0.281 N 
ATOM      5  C   UNL     1     -32.792  28.466   3.169  0.00  0.00    +0.147 C 
ATOM      6  C   UNL     1     -33.728  27.280   2.887  0.00  0.00    +0.254 C 
ATOM      7  C   UNL     1     -33.346  27.234   5.133  0.00  0.00    +0.312 C 
ATOM      8  H   UNL     1     -32.149  28.965   5.168  0.00  0.00    +0.152 HD
ENDROOT
BRANCH   3  10
ATOM      9  O   UNL     1     -34.559  24.633   3.038  0.00  0.00    -0.324 OA
ATOM     10  C   UNL     1     -34.795  25.439   4.188  0.00  0.00    +0.232 C 
ATOM     11  C   UNL     1     -36.271  25.820   4.284  0.00  0.00    +0.187 C 
ATOM     12  C   UNL     1     -37.159  24.576   4.256  0.00  0.00    +0.171 C 
ATOM     13  C   UNL     1     -36.783  23.642   3.106  0.00  0.00    +0.178 C 
ATOM     14  C   UNL     1     -35.276  23.404   3.077  0.00  0.00    +0.244 C 
BRANCH  11  15
ATOM     15  O   UNL     1     -36.514  26.508   5.511  0.00  0.00    -0.378 OA
ATOM     16  H   UNL     1     -37.336  26.180   5.907  0.00  0.00    +0.211 HD
ENDBRANCH  11  15
BRANCH  12  17
ATOM     17  O   UNL     1     -38.521  24.974   4.085  0.00  0.00    -0.379 OA
ATOM     18  H   UNL     1     -38.553  25.832   3.634  0.00  0.00    +0.211 HD
ENDBRANCH  12  17
BRANCH  13  19
ATOM     19  O   UNL     1     -37.463  22.404   3.302  0.00  0.00    -0.379 OA
ATOM     20  H   UNL     1     -37.174  22.006   4.138  0.00  0.00    +0.211 HD
ENDBRANCH  13  19
BRANCH  14  22
ATOM     21  O   UNL     1     -35.118  21.581   1.503  0.00  0.00    -0.247 OA
ATOM     22  C   UNL     1     -34.859  22.736   1.806  0.00  0.00    +0.344 C 
BRANCH  22  23
ATOM     23  O   UNL     1     -34.149  23.589   1.029  0.00  0.00    -0.478 OA
ATOM     24  H   UNL     1     -34.444  23.790   0.162  0.00  0.00    +0.295 HD
ENDBRANCH  22  23
ENDBRANCH  14  22
ENDBRANCH   3  10
BRANCH   5  25
ATOM     25  C   UNL     1     -33.433  29.793   2.790  0.00  0.00    +0.002 C 
ATOM     26  C   UNL     1     -32.648  30.827   2.280  0.00  0.00    -0.002 C 
ATOM     27  C   UNL     1     -34.808  29.976   2.951  0.00  0.00    -0.002 C 
ATOM     28  C   UNL     1     -33.236  32.044   1.932  0.00  0.00    -0.000 C 
ATOM     29  C   UNL     1     -35.396  31.192   2.603  0.00  0.00    -0.000 C 
ATOM     30  C   UNL     1     -34.610  32.226   2.094  0.00  0.00    -0.000 C 
ENDBRANCH   5  25
BRANCH   5  31
ATOM     31  C   UNL     1     -31.440  28.148   2.518  0.00  0.00    +0.031 C 
ATOM     32  C   UNL     1     -30.293  28.312   3.502  0.00  0.00    +0.003 C 
ENDBRANCH   5  31
TORSDOF 8
ENDMDL
MODEL 9
REMARK VINA RESULT:      -5.8      3.174      7.176
REMARK  Name = 194389
REMARK  8 active torsions:
REMARK  status: ('A' for Active; 'I' for Inactive)
REMARK    1  A    between atoms: N_3  and  C_10
REMARK    2  A    between atoms: C_5  and  C_25
REMARK    3  A    between atoms: C_5  and  C_31
REMARK    4  A    between atoms: C_11  and  O_15
REMARK    5  A    between atoms: C_12  and  O_17
REMARK    6  A    between atoms: C_13  and  O_19
REMARK    7  A    between atoms: C_14  and  C_22
REMARK    8  A    between atoms: C_22  and  O_23
REMARK                            x       y       z     vdW  Elec       q    Type
REMARK                         _______ _______ _______ _____ _____    ______ ____
ROOT
ATOM      1  O   UNL     1     -35.788  19.995   2.772  0.00  0.00    -0.272 OA
ATOM      2  O   UNL     1     -35.156  22.066  -1.292  0.00  0.00    -0.252 OA
ATOM      3  N   UNL     1     -35.339  20.689   0.589  0.00  0.00    -0.187 N 
ATOM      4  N   UNL     1     -36.100  22.780   0.717  0.00  0.00    -0.281 N 
ATOM      5  C   UNL     1     -36.398  22.244   2.036  0.00  0.00    +0.147 C 
ATOM      6  C   UNL     1     -35.810  20.833   1.878  0.00  0.00    +0.254 C 
ATOM      7  C   UNL     1     -35.492  21.854  -0.133  0.00  0.00    +0.312 C 
ATOM      8  H   UNL     1     -36.306  23.706   0.451  0.00  0.00    +0.152 HD
ENDROOT
BRANCH   3  10
ATOM      9  O   UNL     1     -35.690  18.444   0.182  0.00  0.00    -0.324 OA
ATOM     10  C   UNL     1     -34.729  19.489   0.076  0.00  0.00    +0.232 C 
ATOM     11  C   UNL     1     -33.465  19.143   0.860  0.00  0.00    +0.187 C 
ATOM     12  C   UNL     1     -32.903  17.792   0.417  0.00  0.00    +0.171 C 
ATOM     13  C   UNL     1     -33.986  16.715   0.383  0.00  0.00    +0.178 C 
ATOM     14  C   UNL     1     -35.220  17.215  -0.362  0.00  0.00    +0.244 C 
BRANCH  11  15
ATOM     15  O   UNL     1     -32.465  20.134   0.629  0.00  0.00    -0.378 OA
ATOM     16  H   UNL     1     -32.477  20.779   1.353  0.00  0.00    +0.211 HD
ENDBRANCH  11  15
BRANCH  12  17
ATOM     17  O   UNL     1     -31.888  17.381   1.335  0.00  0.00    -0.379 OA
ATOM     18  H   UNL     1     -31.018  17.634   0.990  0.00  0.00    +0.211 HD
ENDBRANCH  12  17
BRANCH  13  19
ATOM     19  O   UNL     1     -33.452  15.572  -0.283  0.00  0.00    -0.379 OA
ATOM     20  H   UNL     1     -32.515  15.722  -0.481  0.00  0.00    +0.211 HD
ENDBRANCH  13  19
BRANCH  14  22
ATOM     21  O   UNL     1     -36.395  15.109  -0.445  0.00  0.00    -0.247 OA
ATOM     22  C   UNL     1     -36.382  16.297  -0.160  0.00  0.00    +0.344 C 
BRANCH  22  23
ATOM     23  O   UNL     1     -37.430  16.964   0.383  0.00  0.00    -0.478 OA
ATOM     24  H   UNL     1     -37.290  17.783   0.816  0.00  0.00    +0.295 HD
ENDBRANCH  22  23
ENDBRANCH  14  22
ENDBRANCH   3  10
BRANCH   5  25
ATOM     25  C   UNL     1     -35.685  23.033   3.125  0.00  0.00    +0.002 C 
ATOM     26  C   UNL     1     -35.886  22.709   4.467  0.00  0.00    -0.002 C 
ATOM     27  C   UNL     1     -34.829  24.081   2.782  0.00  0.00    -0.002 C 
ATOM     28  C   UNL     1     -35.233  23.433   5.465  0.00  0.00    -0.000 C 
ATOM     29  C   UNL     1     -34.176  24.804   3.780  0.00  0.00    -0.000 C 
ATOM     30  C   UNL     1     -34.378  24.480   5.122  0.00  0.00    -0.000 C 
ENDBRANCH   5  25
BRANCH   5  31
ATOM     31  C   UNL     1     -37.917  22.095   2.181  0.00  0.00    +0.031 C 
ATOM     32  C   UNL     1     -38.625  23.434   2.066  0.00  0.00    +0.003 C 
ENDBRANCH   5  31
TORSDOF 8
ENDMDL
