MODEL 1
REMARK VINA RESULT:      -5.6      0.000      0.000
REMARK  Name = 191313
REMARK  9 active torsions:
REMARK  status: ('A' for Active; 'I' for Inactive)
REMARK    1  A    between atoms: N_2  and  C_14
REMARK    2  A    between atoms: C_3  and  C_5
REMARK    3  A    between atoms: C_6  and  N_13
REMARK    4  A    between atoms: C_14  and  C_16
REMARK    5  A    between atoms: C_14  and  C_21
REMARK    6  A    between atoms: C_16  and  O_17
REMARK    7  A    between atoms: O_17  and  C_18
REMARK    8  A    between atoms: C_21  and  O_22
REMARK    9  A    between atoms: O_22  and  C_23
REMARK                            x       y       z     vdW  Elec       q    Type
REMARK                         _______ _______ _______ _____ _____    ______ ____
ROOT
ATOM      1  O   UNL     1     -35.811  23.190   0.042  0.00  0.00    -0.270 OA
ATOM      2  N   UNL     1     -35.066  23.383   2.229  0.00  0.00    -0.284 N 
ATOM      3  C   UNL     1     -35.064  22.840   0.951  0.00  0.00    +0.248 C 
ATOM      4  H   UNL     1     -34.427  23.036   2.892  0.00  0.00    +0.151 HD
ENDROOT
BRANCH   3   5
ATOM      5  C   UNL     1     -34.092  21.742   0.711  0.00  0.00    +0.076 C 
ATOM      6  C   UNL     1     -34.284  20.467   1.243  0.00  0.00    +0.147 C 
ATOM      7  C   UNL     1     -32.965  22.011  -0.067  0.00  0.00    +0.006 C 
ATOM      8  C   UNL     1     -33.350  19.460   0.997  0.00  0.00    +0.024 C 
ATOM      9  C   UNL     1     -32.032  21.004  -0.314  0.00  0.00    +0.000 C 
ATOM     10  C   UNL     1     -32.224  19.729   0.219  0.00  0.00    +0.002 C 
BRANCH   6  13
ATOM     11  O   UNL     1     -36.461  19.743   1.477  0.00  0.00    -0.126 OA
ATOM     12  O   UNL     1     -35.358  20.336   3.280  0.00  0.00    -0.126 OA
ATOM     13  N   UNL     1     -35.424  20.168   2.040  0.00  0.00    +0.058 N 
ENDBRANCH   6  13
ENDBRANCH   3   5
BRANCH   2  14
ATOM     14  C   UNL     1     -35.965  24.437   2.623  0.00  0.00    +0.271 C 
BRANCH  14  16
ATOM     15  O   UNL     1     -37.863  24.589   4.112  0.00  0.00    -0.248 OA
ATOM     16  C   UNL     1     -36.810  24.032   3.820  0.00  0.00    +0.346 C 
BRANCH  16  17
ATOM     17  O   UNL     1     -36.283  22.963   4.482  0.00  0.00    -0.447 OA
BRANCH  17  18
ATOM     18  C   UNL     1     -35.637  23.256   5.725  0.00  0.00    +0.209 C 
ATOM     19  C   UNL     1     -35.209  21.959   6.376  0.00  0.00    +0.051 C 
ENDBRANCH  17  18
ENDBRANCH  16  17
ENDBRANCH  14  16
BRANCH  14  21
ATOM     20  O   UNL     1     -35.696  26.835   2.478  0.00  0.00    -0.248 OA
ATOM     21  C   UNL     1     -35.228  25.753   2.816  0.00  0.00    +0.346 C 
BRANCH  21  22
ATOM     22  O   UNL     1     -33.987  25.572   3.354  0.00  0.00    -0.447 OA
BRANCH  22  23
ATOM     23  C   UNL     1     -33.517  26.626   4.201  0.00  0.00    +0.209 C 
ATOM     24  C   UNL     1     -33.900  26.315   5.633  0.00  0.00    +0.051 C 
ENDBRANCH  22  23
ENDBRANCH  21  22
ENDBRANCH  14  21
ENDBRANCH   2  14
TORSDOF 9
ENDMDL
MODEL 2
REMARK VINA RESULT:      -5.4      3.200      5.717
REMARK  Name = 191313
REMARK  9 active torsions:
REMARK  status: ('A' for Active; 'I' for Inactive)
REMARK    1  A    between atoms: N_2  and  C_14
REMARK    2  A    between atoms: C_3  and  C_5
REMARK    3  A    between atoms: C_6  and  N_13
REMARK    4  A    between atoms: C_14  and  C_16
REMARK    5  A    between atoms: C_14  and  C_21
REMARK    6  A    between atoms: C_16  and  O_17
REMARK    7  A    between atoms: O_17  and  C_18
REMARK    8  A    between atoms: C_21  and  O_22
REMARK    9  A    between atoms: O_22  and  C_23
REMARK                            x       y       z     vdW  Elec       q    Type
REMARK                         _______ _______ _______ _____ _____    ______ ____
ROOT
ATOM      1  O   UNL     1     -35.666  26.464   5.264  0.00  0.00    -0.270 OA
ATOM      2  N   UNL     1     -33.476  26.092   4.600  0.00  0.00    -0.284 N 
ATOM      3  C   UNL     1     -34.764  25.698   4.939  0.00  0.00    +0.248 C 
ATOM      4  H   UNL     1     -32.819  25.402   4.353  0.00  0.00    +0.151 HD
ENDROOT
BRANCH   3   5
ATOM      5  C   UNL     1     -35.024  24.235   4.921  0.00  0.00    +0.076 C 
ATOM      6  C   UNL     1     -35.255  23.549   3.730  0.00  0.00    +0.147 C 
ATOM      7  C   UNL     1     -35.032  23.548   6.135  0.00  0.00    +0.006 C 
ATOM      8  C   UNL     1     -35.496  22.175   3.751  0.00  0.00    +0.024 C 
ATOM      9  C   UNL     1     -35.272  22.174   6.157  0.00  0.00    +0.000 C 
ATOM     10  C   UNL     1     -35.505  21.488   4.965  0.00  0.00    +0.002 C 
BRANCH   6  13
ATOM     11  O   UNL     1     -34.154  24.460   1.920  0.00  0.00    -0.126 OA
ATOM     12  O   UNL     1     -36.346  24.571   1.973  0.00  0.00    -0.126 OA
ATOM     13  N   UNL     1     -35.252  24.227   2.479  0.00  0.00    +0.058 N 
ENDBRANCH   6  13
ENDBRANCH   3   5
BRANCH   2  14
ATOM     14  C   UNL     1     -33.063  27.472   4.595  0.00  0.00    +0.271 C 
BRANCH  14  16
ATOM     15  O   UNL     1     -31.943  27.041   6.693  0.00  0.00    -0.248 OA
ATOM     16  C   UNL     1     -32.403  27.863   5.908  0.00  0.00    +0.346 C 
BRANCH  16  17
ATOM     17  O   UNL     1     -32.345  29.216   6.070  0.00  0.00    -0.447 OA
BRANCH  17  18
ATOM     18  C   UNL     1     -31.032  29.783   6.114  0.00  0.00    +0.209 C 
ATOM     19  C   UNL     1     -31.015  31.050   5.289  0.00  0.00    +0.051 C 
ENDBRANCH  17  18
ENDBRANCH  16  17
ENDBRANCH  14  16
BRANCH  14  21
ATOM     20  O   UNL     1     -31.302  27.077   2.986  0.00  0.00    -0.248 OA
ATOM     21  C   UNL     1     -32.220  27.794   3.371  0.00  0.00    +0.346 C 
BRANCH  21  22
ATOM     22  O   UNL     1     -32.575  28.981   2.800  0.00  0.00    -0.447 OA
BRANCH  22  23
ATOM     23  C   UNL     1     -33.961  29.325   2.892  0.00  0.00    +0.209 C 
ATOM     24  C   UNL     1     -34.083  30.809   3.167  0.00  0.00    +0.051 C 
ENDBRANCH  22  23
ENDBRANCH  21  22
ENDBRANCH  14  21
ENDBRANCH   2  14
TORSDOF 9
ENDMDL
MODEL 3
REMARK VINA RESULT:      -5.4      3.238      6.915
REMARK  Name = 191313
REMARK  9 active torsions:
REMARK  status: ('A' for Active; 'I' for Inactive)
REMARK    1  A    between atoms: N_2  and  C_14
REMARK    2  A    between atoms: C_3  and  C_5
REMARK    3  A    between atoms: C_6  and  N_13
REMARK    4  A    between atoms: C_14  and  C_16
REMARK    5  A    between atoms: C_14  and  C_21
REMARK    6  A    between atoms: C_16  and  O_17
REMARK    7  A    between atoms: O_17  and  C_18
REMARK    8  A    between atoms: C_21  and  O_22
REMARK    9  A    between atoms: O_22  and  C_23
REMARK                            x       y       z     vdW  Elec       q    Type
REMARK                         _______ _______ _______ _____ _____    ______ ____
ROOT
ATOM      1  O   UNL     1     -32.285  26.600   3.248  0.00  0.00    -0.270 OA
ATOM      2  N   UNL     1     -34.314  27.116   4.244  0.00  0.00    -0.284 N 
ATOM      3  C   UNL     1     -33.028  27.403   3.806  0.00  0.00    +0.248 C 
ATOM      4  H   UNL     1     -34.834  27.828   4.682  0.00  0.00    +0.151 HD
ENDROOT
BRANCH   3   5
ATOM      5  C   UNL     1     -32.540  28.781   4.072  0.00  0.00    +0.076 C 
ATOM      6  C   UNL     1     -31.897  29.110   5.265  0.00  0.00    +0.147 C 
ATOM      7  C   UNL     1     -32.739  29.755   3.094  0.00  0.00    +0.006 C 
ATOM      8  C   UNL     1     -31.453  30.415   5.481  0.00  0.00    +0.024 C 
ATOM      9  C   UNL     1     -32.294  31.060   3.309  0.00  0.00    +0.000 C 
ATOM     10  C   UNL     1     -31.652  31.390   4.503  0.00  0.00    +0.002 C 
BRANCH   6  13
ATOM     11  O   UNL     1     -32.645  27.803   7.012  0.00  0.00    -0.126 OA
ATOM     12  O   UNL     1     -30.541  27.635   6.406  0.00  0.00    -0.126 OA
ATOM     13  N   UNL     1     -31.683  28.135   6.278  0.00  0.00    +0.058 N 
ENDBRANCH   6  13
ENDBRANCH   3   5
BRANCH   2  14
ATOM     14  C   UNL     1     -34.919  25.819   4.081  0.00  0.00    +0.271 C 
BRANCH  14  16
ATOM     15  O   UNL     1     -36.257  26.313   6.032  0.00  0.00    -0.248 OA
ATOM     16  C   UNL     1     -35.820  25.471   5.255  0.00  0.00    +0.346 C 
BRANCH  16  17
ATOM     17  O   UNL     1     -36.113  24.140   5.300  0.00  0.00    -0.447 OA
BRANCH  17  18
ATOM     18  C   UNL     1     -35.006  23.266   5.541  0.00  0.00    +0.209 C 
ATOM     19  C   UNL     1     -35.487  22.068   6.330  0.00  0.00    +0.051 C 
ENDBRANCH  17  18
ENDBRANCH  16  17
ENDBRANCH  14  16
BRANCH  14  21
ATOM     20  O   UNL     1     -36.561  26.386   2.400  0.00  0.00    -0.248 OA
ATOM     21  C   UNL     1     -35.605  25.692   2.730  0.00  0.00    +0.346 C 
BRANCH  21  22
ATOM     22  O   UNL     1     -35.064  24.697   1.970  0.00  0.00    -0.447 OA
BRANCH  22  23
ATOM     23  C   UNL     1     -35.922  23.584   1.700  0.00  0.00    +0.209 C 
ATOM     24  C   UNL     1     -35.168  22.300   1.976  0.00  0.00    +0.051 C 
ENDBRANCH  22  23
ENDBRANCH  21  22
ENDBRANCH  14  21
ENDBRANCH   2  14
TORSDOF 9
ENDMDL
MODEL 4
REMARK VINA RESULT:      -5.3      1.600      3.387
REMARK  Name = 191313
REMARK  9 active torsions:
REMARK  status: ('A' for Active; 'I' for Inactive)
REMARK    1  A    between atoms: N_2  and  C_14
REMARK    2  A    between atoms: C_3  and  C_5
REMARK    3  A    between atoms: C_6  and  N_13
REMARK    4  A    between atoms: C_14  and  C_16
REMARK    5  A    between atoms: C_14  and  C_21
REMARK    6  A    between atoms: C_16  and  O_17
REMARK    7  A    between atoms: O_17  and  C_18
REMARK    8  A    between atoms: C_21  and  O_22
REMARK    9  A    between atoms: O_22  and  C_23
REMARK                            x       y       z     vdW  Elec       q    Type
REMARK                         _______ _______ _______ _____ _____    ______ ____
ROOT
ATOM      1  O   UNL     1     -36.491  20.218   2.185  0.00  0.00    -0.270 OA
ATOM      2  N   UNL     1     -35.280  22.065   2.893  0.00  0.00    -0.284 N 
ATOM      3  C   UNL     1     -35.457  20.880   2.190  0.00  0.00    +0.248 C 
ATOM      4  H   UNL     1     -34.412  22.525   2.834  0.00  0.00    +0.151 HD
ENDROOT
BRANCH   3   5
ATOM      5  C   UNL     1     -34.282  20.397   1.420  0.00  0.00    +0.076 C 
ATOM      6  C   UNL     1     -33.723  21.152   0.389  0.00  0.00    +0.147 C 
ATOM      7  C   UNL     1     -33.736  19.156   1.750  0.00  0.00    +0.006 C 
ATOM      8  C   UNL     1     -32.620  20.667  -0.313  0.00  0.00    +0.024 C 
ATOM      9  C   UNL     1     -32.632  18.671   1.049  0.00  0.00    +0.000 C 
ATOM     10  C   UNL     1     -32.075  19.426   0.017  0.00  0.00    +0.002 C 
BRANCH   6  13
ATOM     11  O   UNL     1     -33.793  23.450   0.575  0.00  0.00    -0.126 OA
ATOM     12  O   UNL     1     -35.185  22.471  -0.812  0.00  0.00    -0.126 OA
ATOM     13  N   UNL     1     -34.261  22.421   0.033  0.00  0.00    +0.058 N 
ENDBRANCH   6  13
ENDBRANCH   3   5
BRANCH   2  14
ATOM     14  C   UNL     1     -36.317  22.648   3.705  0.00  0.00    +0.271 C 
BRANCH  14  16
ATOM     15  O   UNL     1     -35.980  22.686   6.098  0.00  0.00    -0.248 OA
ATOM     16  C   UNL     1     -35.762  23.203   5.007  0.00  0.00    +0.346 C 
BRANCH  16  17
ATOM     17  O   UNL     1     -34.969  24.293   4.803  0.00  0.00    -0.447 OA
BRANCH  17  18
ATOM     18  C   UNL     1     -35.301  25.457   5.568  0.00  0.00    +0.209 C 
ATOM     19  C   UNL     1     -34.026  26.178   5.947  0.00  0.00    +0.051 C 
ENDBRANCH  17  18
ENDBRANCH  16  17
ENDBRANCH  14  16
BRANCH  14  21
ATOM     20  O   UNL     1     -36.856  23.998   1.773  0.00  0.00    -0.248 OA
ATOM     21  C   UNL     1     -37.139  23.655   2.916  0.00  0.00    +0.346 C 
BRANCH  21  22
ATOM     22  O   UNL     1     -38.179  24.153   3.645  0.00  0.00    -0.447 OA
BRANCH  22  23
ATOM     23  C   UNL     1     -38.704  25.409   3.202  0.00  0.00    +0.209 C 
ATOM     24  C   UNL     1     -40.204  25.285   3.036  0.00  0.00    +0.051 C 
ENDBRANCH  22  23
ENDBRANCH  21  22
ENDBRANCH  14  21
ENDBRANCH   2  14
TORSDOF 9
ENDMDL
MODEL 5
REMARK VINA RESULT:      -5.2      1.264      2.275
REMARK  Name = 191313
REMARK  9 active torsions:
REMARK  status: ('A' for Active; 'I' for Inactive)
REMARK    1  A    between atoms: N_2  and  C_14
REMARK    2  A    between atoms: C_3  and  C_5
REMARK    3  A    between atoms: C_6  and  N_13
REMARK    4  A    between atoms: C_14  and  C_16
REMARK    5  A    between atoms: C_14  and  C_21
REMARK    6  A    between atoms: C_16  and  O_17
REMARK    7  A    between atoms: O_17  and  C_18
REMARK    8  A    between atoms: C_21  and  O_22
REMARK    9  A    between atoms: O_22  and  C_23
REMARK                            x       y       z     vdW  Elec       q    Type
REMARK                         _______ _______ _______ _____ _____    ______ ____
ROOT
ATOM      1  O   UNL     1     -35.843  23.733   0.808  0.00  0.00    -0.270 OA
ATOM      2  N   UNL     1     -34.740  23.580   2.842  0.00  0.00    -0.284 N 
ATOM      3  C   UNL     1     -35.011  23.196   1.535  0.00  0.00    +0.248 C 
ATOM      4  H   UNL     1     -34.054  23.087   3.346  0.00  0.00    +0.151 HD
ENDROOT
BRANCH   3   5
ATOM      5  C   UNL     1     -34.240  22.035   1.023  0.00  0.00    +0.076 C 
ATOM      6  C   UNL     1     -34.506  20.735   1.451  0.00  0.00    +0.147 C 
ATOM      7  C   UNL     1     -33.227  22.269   0.092  0.00  0.00    +0.006 C 
ATOM      8  C   UNL     1     -33.761  19.668   0.949  0.00  0.00    +0.024 C 
ATOM      9  C   UNL     1     -32.482  21.202  -0.411  0.00  0.00    +0.000 C 
ATOM     10  C   UNL     1     -32.748  19.902   0.018  0.00  0.00    +0.002 C 
BRANCH   6  13
ATOM     11  O   UNL     1     -35.268  20.570   3.622  0.00  0.00    -0.126 OA
ATOM     12  O   UNL     1     -36.671  20.146   1.986  0.00  0.00    -0.126 OA
ATOM     13  N   UNL     1     -35.533  20.470   2.400  0.00  0.00    +0.058 N 
ENDBRANCH   6  13
ENDBRANCH   3   5
BRANCH   2  14
ATOM     14  C   UNL     1     -35.423  24.672   3.488  0.00  0.00    +0.271 C 
BRANCH  14  16
ATOM     15  O   UNL     1     -36.325  23.303   5.264  0.00  0.00    -0.248 OA
ATOM     16  C   UNL     1     -36.515  24.174   4.421  0.00  0.00    +0.346 C 
BRANCH  16  17
ATOM     17  O   UNL     1     -37.689  24.841   4.239  0.00  0.00    -0.447 OA
BRANCH  17  18
ATOM     18  C   UNL     1     -38.428  24.493   3.063  0.00  0.00    +0.209 C 
ATOM     19  C   UNL     1     -39.867  24.928   3.238  0.00  0.00    +0.051 C 
ENDBRANCH  17  18
ENDBRANCH  16  17
ENDBRANCH  14  16
BRANCH  14  21
ATOM     20  O   UNL     1     -33.343  25.267   4.567  0.00  0.00    -0.248 OA
ATOM     21  C   UNL     1     -34.441  25.624   4.153  0.00  0.00    +0.346 C 
BRANCH  21  22
ATOM     22  O   UNL     1     -34.949  26.884   4.273  0.00  0.00    -0.447 OA
BRANCH  22  23
ATOM     23  C   UNL     1     -35.179  27.581   3.044  0.00  0.00    +0.209 C 
ATOM     24  C   UNL     1     -33.963  28.424   2.720  0.00  0.00    +0.051 C 
ENDBRANCH  22  23
ENDBRANCH  21  22
ENDBRANCH  14  21
ENDBRANCH   2  14
TORSDOF 9
ENDMDL
MODEL 6
REMARK VINA RESULT:      -5.2      1.571      2.885
REMARK  Name = 191313
REMARK  9 active torsions:
REMARK  status: ('A' for Active; 'I' for Inactive)
REMARK    1  A    between atoms: N_2  and  C_14
REMARK    2  A    between atoms: C_3  and  C_5
REMARK    3  A    between atoms: C_6  and  N_13
REMARK    4  A    between atoms: C_14  and  C_16
REMARK    5  A    between atoms: C_14  and  C_21
REMARK    6  A    between atoms: C_16  and  O_17
REMARK    7  A    between atoms: O_17  and  C_18
REMARK    8  A    between atoms: C_21  and  O_22
REMARK    9  A    between atoms: O_22  and  C_23
REMARK                            x       y       z     vdW  Elec       q    Type
REMARK                         _______ _______ _______ _____ _____    ______ ____
ROOT
ATOM      1  O   UNL     1     -35.337  23.594  -0.054  0.00  0.00    -0.270 OA
ATOM      2  N   UNL     1     -35.765  22.855   2.101  0.00  0.00    -0.284 N 
ATOM      3  C   UNL     1     -35.122  22.817   0.871  0.00  0.00    +0.248 C 
ATOM      4  H   UNL     1     -35.523  22.187   2.783  0.00  0.00    +0.151 HD
ENDROOT
BRANCH   3   5
ATOM      5  C   UNL     1     -34.127  21.728   0.689  0.00  0.00    +0.076 C 
ATOM      6  C   UNL     1     -34.295  20.478   1.283  0.00  0.00    +0.147 C 
ATOM      7  C   UNL     1     -33.003  21.981  -0.098  0.00  0.00    +0.006 C 
ATOM      8  C   UNL     1     -33.341  19.479   1.091  0.00  0.00    +0.024 C 
ATOM      9  C   UNL     1     -32.049  20.983  -0.292  0.00  0.00    +0.000 C 
ATOM     10  C   UNL     1     -32.217  19.732   0.304  0.00  0.00    +0.002 C 
BRANCH   6  13
ATOM     11  O   UNL     1     -35.348  20.356   3.332  0.00  0.00    -0.126 OA
ATOM     12  O   UNL     1     -36.483  19.795   1.539  0.00  0.00    -0.126 OA
ATOM     13  N   UNL     1     -35.432  20.195   2.091  0.00  0.00    +0.058 N 
ENDBRANCH   6  13
ENDBRANCH   3   5
BRANCH   2  14
ATOM     14  C   UNL     1     -36.771  23.835   2.421  0.00  0.00    +0.271 C 
BRANCH  14  16
ATOM     15  O   UNL     1     -38.533  22.188   2.254  0.00  0.00    -0.248 OA
ATOM     16  C   UNL     1     -38.165  23.342   2.063  0.00  0.00    +0.346 C 
BRANCH  16  17
ATOM     17  O   UNL     1     -38.948  24.339   1.560  0.00  0.00    -0.447 OA
BRANCH  17  18
ATOM     18  C   UNL     1     -40.165  24.593   2.269  0.00  0.00    +0.209 C 
ATOM     19  C   UNL     1     -40.062  25.934   2.961  0.00  0.00    +0.051 C 
ENDBRANCH  17  18
ENDBRANCH  16  17
ENDBRANCH  14  16
BRANCH  14  21
ATOM     20  O   UNL     1     -36.613  25.496   4.170  0.00  0.00    -0.248 OA
ATOM     21  C   UNL     1     -36.646  24.310   3.860  0.00  0.00    +0.346 C 
BRANCH  21  22
ATOM     22  O   UNL     1     -36.526  23.270   4.736  0.00  0.00    -0.447 OA
BRANCH  22  23
ATOM     23  C   UNL     1     -35.444  23.364   5.668  0.00  0.00    +0.209 C 
ATOM     24  C   UNL     1     -35.347  22.066   6.442  0.00  0.00    +0.051 C 
ENDBRANCH  22  23
ENDBRANCH  21  22
ENDBRANCH  14  21
ENDBRANCH   2  14
TORSDOF 9
ENDMDL
MODEL 7
REMARK VINA RESULT:      -5.1      3.870      6.642
REMARK  Name = 191313
REMARK  9 active torsions:
REMARK  status: ('A' for Active; 'I' for Inactive)
REMARK    1  A    between atoms: N_2  and  C_14
REMARK    2  A    between atoms: C_3  and  C_5
REMARK    3  A    between atoms: C_6  and  N_13
REMARK    4  A    between atoms: C_14  and  C_16
REMARK    5  A    between atoms: C_14  and  C_21
REMARK    6  A    between atoms: C_16  and  O_17
REMARK    7  A    between atoms: O_17  and  C_18
REMARK    8  A    between atoms: C_21  and  O_22
REMARK    9  A    between atoms: O_22  and  C_23
REMARK                            x       y       z     vdW  Elec       q    Type
REMARK                         _______ _______ _______ _____ _____    ______ ____
ROOT
ATOM      1  O   UNL     1     -34.611  26.560   1.782  0.00  0.00    -0.270 OA
ATOM      2  N   UNL     1     -36.061  26.899   3.559  0.00  0.00    -0.284 N 
ATOM      3  C   UNL     1     -35.085  27.287   2.651  0.00  0.00    +0.248 C 
ATOM      4  H   UNL     1     -36.379  27.555   4.221  0.00  0.00    +0.151 HD
ENDROOT
BRANCH   3   5
ATOM      5  C   UNL     1     -34.583  28.679   2.787  0.00  0.00    +0.076 C 
ATOM      6  C   UNL     1     -33.469  28.981   3.569  0.00  0.00    +0.147 C 
ATOM      7  C   UNL     1     -35.257  29.696   2.109  0.00  0.00    +0.006 C 
ATOM      8  C   UNL     1     -33.027  30.300   3.674  0.00  0.00    +0.024 C 
ATOM      9  C   UNL     1     -34.815  31.014   2.213  0.00  0.00    +0.000 C 
ATOM     10  C   UNL     1     -33.700  31.317   2.996  0.00  0.00    +0.002 C 
BRANCH   6  13
ATOM     11  O   UNL     1     -33.256  27.509   5.332  0.00  0.00    -0.126 OA
ATOM     12  O   UNL     1     -31.678  27.548   3.806  0.00  0.00    -0.126 OA
ATOM     13  N   UNL     1     -32.765  27.962   4.270  0.00  0.00    +0.058 N 
ENDBRANCH   6  13
ENDBRANCH   3   5
BRANCH   2  14
ATOM     14  C   UNL     1     -36.628  25.575   3.571  0.00  0.00    +0.271 C 
BRANCH  14  16
ATOM     15  O   UNL     1     -36.004  25.429   5.902  0.00  0.00    -0.248 OA
ATOM     16  C   UNL     1     -36.321  24.847   4.870  0.00  0.00    +0.346 C 
BRANCH  16  17
ATOM     17  O   UNL     1     -36.489  23.499   4.755  0.00  0.00    -0.447 OA
BRANCH  17  18
ATOM     18  C   UNL     1     -35.309  22.707   4.924  0.00  0.00    +0.209 C 
ATOM     19  C   UNL     1     -35.387  21.984   6.250  0.00  0.00    +0.051 C 
ENDBRANCH  17  18
ENDBRANCH  16  17
ENDBRANCH  14  16
BRANCH  14  21
ATOM     20  O   UNL     1     -38.910  24.781   3.657  0.00  0.00    -0.248 OA
ATOM     21  C   UNL     1     -38.109  25.603   3.225  0.00  0.00    +0.346 C 
BRANCH  21  22
ATOM     22  O   UNL     1     -38.414  26.607   2.353  0.00  0.00    -0.447 OA
BRANCH  22  23
ATOM     23  C   UNL     1     -38.418  26.247   0.968  0.00  0.00    +0.209 C 
ATOM     24  C   UNL     1     -39.276  27.235   0.205  0.00  0.00    +0.051 C 
ENDBRANCH  22  23
ENDBRANCH  21  22
ENDBRANCH  14  21
ENDBRANCH   2  14
TORSDOF 9
ENDMDL
MODEL 8
REMARK VINA RESULT:      -5.1      2.304      4.492
REMARK  Name = 191313
REMARK  9 active torsions:
REMARK  status: ('A' for Active; 'I' for Inactive)
REMARK    1  A    between atoms: N_2  and  C_14
REMARK    2  A    between atoms: C_3  and  C_5
REMARK    3  A    between atoms: C_6  and  N_13
REMARK    4  A    between atoms: C_14  and  C_16
REMARK    5  A    between atoms: C_14  and  C_21
REMARK    6  A    between atoms: C_16  and  O_17
REMARK    7  A    between atoms: O_17  and  C_18
REMARK    8  A    between atoms: C_21  and  O_22
REMARK    9  A    between atoms: O_22  and  C_23
REMARK                            x       y       z     vdW  Elec       q    Type
REMARK                         _______ _______ _______ _____ _____    ______ ____
ROOT
ATOM      1  O   UNL     1     -35.460  20.481   3.478  0.00  0.00    -0.270 OA
ATOM      2  N   UNL     1     -36.503  21.479   1.664  0.00  0.00    -0.284 N 
ATOM      3  C   UNL     1     -35.467  20.802   2.293  0.00  0.00    +0.248 C 
ATOM      4  H   UNL     1     -36.417  21.693   0.707  0.00  0.00    +0.151 HD
ENDROOT
BRANCH   3   5
ATOM      5  C   UNL     1     -34.288  20.482   1.446  0.00  0.00    +0.076 C 
ATOM      6  C   UNL     1     -33.778  21.399   0.529  0.00  0.00    +0.147 C 
ATOM      7  C   UNL     1     -33.691  19.229   1.586  0.00  0.00    +0.006 C 
ATOM      8  C   UNL     1     -32.670  21.065  -0.250  0.00  0.00    +0.024 C 
ATOM      9  C   UNL     1     -32.583  18.894   0.809  0.00  0.00    +0.000 C 
ATOM     10  C   UNL     1     -32.073  19.811  -0.110  0.00  0.00    +0.002 C 
BRANCH   6  13
ATOM     11  O   UNL     1     -34.096  23.584   1.197  0.00  0.00    -0.126 OA
ATOM     12  O   UNL     1     -35.142  22.877  -0.600  0.00  0.00    -0.126 OA
ATOM     13  N   UNL     1     -34.369  22.684   0.367  0.00  0.00    +0.058 N 
ENDBRANCH   6  13
ENDBRANCH   3   5
BRANCH   2  14
ATOM     14  C   UNL     1     -37.701  21.880   2.355  0.00  0.00    +0.271 C 
BRANCH  14  16
ATOM     15  O   UNL     1     -37.910  24.273   2.084  0.00  0.00    -0.248 OA
ATOM     16  C   UNL     1     -37.625  23.329   2.812  0.00  0.00    +0.346 C 
BRANCH  16  17
ATOM     17  O   UNL     1     -37.255  23.435   4.120  0.00  0.00    -0.447 OA
BRANCH  17  18
ATOM     18  C   UNL     1     -35.933  23.931   4.356  0.00  0.00    +0.209 C 
ATOM     19  C   UNL     1     -35.376  23.278   5.602  0.00  0.00    +0.051 C 
ENDBRANCH  17  18
ENDBRANCH  16  17
ENDBRANCH  14  16
BRANCH  14  21
ATOM     20  O   UNL     1     -40.051  21.403   2.045  0.00  0.00    -0.248 OA
ATOM     21  C   UNL     1     -38.945  21.565   1.539  0.00  0.00    +0.346 C 
BRANCH  21  22
ATOM     22  O   UNL     1     -38.669  21.440   0.209  0.00  0.00    -0.447 OA
BRANCH  22  23
ATOM     23  C   UNL     1     -39.273  20.321  -0.448  0.00  0.00    +0.209 C 
ATOM     24  C   UNL     1     -38.259  19.200  -0.546  0.00  0.00    +0.051 C 
ENDBRANCH  22  23
ENDBRANCH  21  22
ENDBRANCH  14  21
ENDBRANCH   2  14
TORSDOF 9
ENDMDL
MODEL 9
REMARK VINA RESULT:      -5.0      1.484      2.293
REMARK  Name = 191313
REMARK  9 active torsions:
REMARK  status: ('A' for Active; 'I' for Inactive)
REMARK    1  A    between atoms: N_2  and  C_14
REMARK    2  A    between atoms: C_3  and  C_5
REMARK    3  A    between atoms: C_6  and  N_13
REMARK    4  A    between atoms: C_14  and  C_16
REMARK    5  A    between atoms: C_14  and  C_21
REMARK    6  A    between atoms: C_16  and  O_17
REMARK    7  A    between atoms: O_17  and  C_18
REMARK    8  A    between atoms: C_21  and  O_22
REMARK    9  A    between atoms: O_22  and  C_23
REMARK                            x       y       z     vdW  Elec       q    Type
REMARK                         _______ _______ _______ _____ _____    ______ ____
ROOT
ATOM      1  O   UNL     1     -35.841  22.525  -0.097  0.00  0.00    -0.270 OA
ATOM      2  N   UNL     1     -35.233  22.948   2.100  0.00  0.00    -0.284 N 
ATOM      3  C   UNL     1     -35.143  22.284   0.883  0.00  0.00    +0.248 C 
ATOM      4  H   UNL     1     -34.627  22.682   2.829  0.00  0.00    +0.151 HD
ENDROOT
BRANCH   3   5
ATOM      5  C   UNL     1     -34.136  21.194   0.808  0.00  0.00    +0.076 C 
ATOM      6  C   UNL     1     -32.970  21.328   0.054  0.00  0.00    +0.147 C 
ATOM      7  C   UNL     1     -34.379  20.016   1.515  0.00  0.00    +0.006 C 
ATOM      8  C   UNL     1     -32.047  20.283   0.006  0.00  0.00    +0.024 C 
ATOM      9  C   UNL     1     -33.455  18.972   1.468  0.00  0.00    +0.000 C 
ATOM     10  C   UNL     1     -32.290  19.105   0.713  0.00  0.00    +0.002 C 
BRANCH   6  13
ATOM     11  O   UNL     1     -33.027  22.575  -1.886  0.00  0.00    -0.126 OA
ATOM     12  O   UNL     1     -32.144  23.476  -0.089  0.00  0.00    -0.126 OA
ATOM     13  N   UNL     1     -32.700  22.519  -0.676  0.00  0.00    +0.058 N 
ENDBRANCH   6  13
ENDBRANCH   3   5
BRANCH   2  14
ATOM     14  C   UNL     1     -36.176  24.010   2.337  0.00  0.00    +0.271 C 
BRANCH  14  16
ATOM     15  O   UNL     1     -37.794  24.567   4.044  0.00  0.00    -0.248 OA
ATOM     16  C   UNL     1     -36.852  23.865   3.691  0.00  0.00    +0.346 C 
BRANCH  16  17
ATOM     17  O   UNL     1     -36.321  22.846   4.424  0.00  0.00    -0.447 OA
BRANCH  17  18
ATOM     18  C   UNL     1     -35.579  23.233   5.585  0.00  0.00    +0.209 C 
ATOM     19  C   UNL     1     -35.247  21.998   6.393  0.00  0.00    +0.051 C 
ENDBRANCH  17  18
ENDBRANCH  16  17
ENDBRANCH  14  16
BRANCH  14  21
ATOM     20  O   UNL     1     -35.809  26.086   1.154  0.00  0.00    -0.248 OA
ATOM     21  C   UNL     1     -35.542  25.375   2.117  0.00  0.00    +0.346 C 
BRANCH  21  22
ATOM     22  O   UNL     1     -34.622  25.675   3.079  0.00  0.00    -0.447 OA
BRANCH  22  23
ATOM     23  C   UNL     1     -34.745  26.970   3.674  0.00  0.00    +0.209 C 
ATOM     24  C   UNL     1     -33.365  27.571   3.839  0.00  0.00    +0.051 C 
ENDBRANCH  22  23
ENDBRANCH  21  22
ENDBRANCH  14  21
ENDBRANCH   2  14
TORSDOF 9
ENDMDL
