MODEL 1
REMARK VINA RESULT:      -5.9      0.000      0.000
REMARK  Name = 53462251
REMARK  8 active torsions:
REMARK  status: ('A' for Active; 'I' for Inactive)
REMARK    1  A    between atoms: O_1  and  C_6
REMARK    2  A    between atoms: O_1  and  C_15
REMARK    3  A    between atoms: C_3  and  O_8
REMARK    4  A    between atoms: C_4  and  O_10
REMARK    5  A    between atoms: C_5  and  O_12
REMARK    6  A    between atoms: C_15  and  C_16
REMARK    7  A    between atoms: C_19  and  O_22
REMARK    8  A    between atoms: C_21  and  O_24
REMARK                            x       y       z     vdW  Elec       q    Type
REMARK                         _______ _______ _______ _____ _____    ______ ____
ROOT
ATOM      1  O   UNL     1     -37.135  22.852   3.711  0.00  0.00    -0.419 OA
ENDROOT
BRANCH   1   6
ATOM      2  O   UNL     1     -37.731  24.130   1.812  0.00  0.00    -0.316 OA
ATOM      3  C   UNL     1     -39.529  21.912   2.181  0.00  0.00    +0.173 C 
ATOM      4  C   UNL     1     -38.066  21.722   1.776  0.00  0.00    +0.211 C 
ATOM      5  C   UNL     1     -40.026  23.291   1.745  0.00  0.00    +0.169 C 
ATOM      6  C   UNL     1     -37.212  22.886   2.287  0.00  0.00    +0.321 C 
ATOM      7  C   UNL     1     -39.078  24.385   2.230  0.00  0.00    +0.178 C 
BRANCH   3   8
ATOM      8  O   UNL     1     -40.347  20.913   1.577  0.00  0.00    -0.379 OA
ATOM      9  H   UNL     1     -41.011  20.611   2.215  0.00  0.00    +0.211 HD
ENDBRANCH   3   8
BRANCH   4  10
ATOM     10  O   UNL     1     -37.554  20.504   2.306  0.00  0.00    -0.377 OA
ATOM     11  H   UNL     1     -38.212  19.800   2.190  0.00  0.00    +0.211 HD
ENDBRANCH   4  10
BRANCH   5  12
ATOM     12  O   UNL     1     -40.082  23.341   0.318  0.00  0.00    -0.379 OA
ATOM     13  H   UNL     1     -40.610  24.107   0.042  0.00  0.00    +0.211 HD
ENDBRANCH   5  12
ENDBRANCH   1   6
BRANCH   1  15
ATOM     14  O   UNL     1     -35.379  21.575   4.473  0.00  0.00    -0.245 OA
ATOM     15  C   UNL     1     -35.895  22.654   4.234  0.00  0.00    +0.343 C 
BRANCH  15  16
ATOM     16  C   UNL     1     -35.222  23.954   4.485  0.00  0.00    +0.079 C 
ATOM     17  C   UNL     1     -34.179  24.370   3.659  0.00  0.00    +0.046 C 
ATOM     18  C   UNL     1     -35.632  24.757   5.550  0.00  0.00    +0.010 C 
ATOM     19  C   UNL     1     -33.546  25.591   3.897  0.00  0.00    +0.168 C 
ATOM     20  C   UNL     1     -34.998  25.977   5.787  0.00  0.00    +0.040 C 
ATOM     21  C   UNL     1     -33.955  26.393   4.960  0.00  0.00    +0.167 C 
BRANCH  19  22
ATOM     22  O   UNL     1     -32.528  25.987   3.081  0.00  0.00    -0.503 OA
ATOM     23  H   UNL     1     -31.706  26.245   3.449  0.00  0.00    +0.292 HD
ENDBRANCH  19  22
BRANCH  21  24
ATOM     24  O   UNL     1     -33.346  27.588   5.202  0.00  0.00    -0.503 OA
ATOM     25  H   UNL     1     -33.391  28.274   4.565  0.00  0.00    +0.292 HD
ENDBRANCH  21  24
ENDBRANCH  15  16
ENDBRANCH   1  15
TORSDOF 8
ENDMDL
MODEL 2
REMARK VINA RESULT:      -5.8      2.177      4.069
REMARK  Name = 53462251
REMARK  8 active torsions:
REMARK  status: ('A' for Active; 'I' for Inactive)
REMARK    1  A    between atoms: O_1  and  C_6
REMARK    2  A    between atoms: O_1  and  C_15
REMARK    3  A    between atoms: C_3  and  O_8
REMARK    4  A    between atoms: C_4  and  O_10
REMARK    5  A    between atoms: C_5  and  O_12
REMARK    6  A    between atoms: C_15  and  C_16
REMARK    7  A    between atoms: C_19  and  O_22
REMARK    8  A    between atoms: C_21  and  O_24
REMARK                            x       y       z     vdW  Elec       q    Type
REMARK                         _______ _______ _______ _____ _____    ______ ____
ROOT
ATOM      1  O   UNL     1     -37.350  25.252   2.420  0.00  0.00    -0.419 OA
ENDROOT
BRANCH   1   6
ATOM      2  O   UNL     1     -39.404  24.469   3.293  0.00  0.00    -0.316 OA
ATOM      3  C   UNL     1     -39.680  25.273   0.542  0.00  0.00    +0.173 C 
ATOM      4  C   UNL     1     -39.416  26.277   1.667  0.00  0.00    +0.211 C 
ATOM      5  C   UNL     1     -40.376  24.028   1.095  0.00  0.00    +0.169 C 
ATOM      6  C   UNL     1     -38.672  25.604   2.824  0.00  0.00    +0.321 C 
ATOM      7  C   UNL     1     -39.611  23.467   2.290  0.00  0.00    +0.178 C 
BRANCH   3   8
ATOM      8  O   UNL     1     -40.504  25.857  -0.463  0.00  0.00    -0.379 OA
ATOM      9  H   UNL     1     -40.156  26.730  -0.699  0.00  0.00    +0.211 HD
ENDBRANCH   3   8
BRANCH   4  10
ATOM     10  O   UNL     1     -38.640  27.371   1.190  0.00  0.00    -0.377 OA
ATOM     11  H   UNL     1     -38.884  28.175   1.675  0.00  0.00    +0.211 HD
ENDBRANCH   4  10
BRANCH   5  12
ATOM     12  O   UNL     1     -41.694  24.377   1.524  0.00  0.00    -0.379 OA
ATOM     13  H   UNL     1     -41.765  25.342   1.598  0.00  0.00    +0.211 HD
ENDBRANCH   5  12
ENDBRANCH   1   6
BRANCH   1  15
ATOM     14  O   UNL     1     -35.835  26.492   3.632  0.00  0.00    -0.245 OA
ATOM     15  C   UNL     1     -36.377  25.434   3.353  0.00  0.00    +0.343 C 
BRANCH  15  16
ATOM     16  C   UNL     1     -36.042  24.148   4.014  0.00  0.00    +0.079 C 
ATOM     17  C   UNL     1     -36.069  22.960   3.284  0.00  0.00    +0.046 C 
ATOM     18  C   UNL     1     -35.701  24.127   5.368  0.00  0.00    +0.010 C 
ATOM     19  C   UNL     1     -35.754  21.751   3.906  0.00  0.00    +0.168 C 
ATOM     20  C   UNL     1     -35.387  22.918   5.989  0.00  0.00    +0.040 C 
ATOM     21  C   UNL     1     -35.414  21.730   5.258  0.00  0.00    +0.167 C 
BRANCH  19  22
ATOM     22  O   UNL     1     -35.783  20.597   3.181  0.00  0.00    -0.503 OA
ATOM     23  H   UNL     1     -35.006  20.081   3.093  0.00  0.00    +0.292 HD
ENDBRANCH  19  22
BRANCH  21  24
ATOM     24  O   UNL     1     -35.104  20.557   5.877  0.00  0.00    -0.503 OA
ATOM     25  H   UNL     1     -34.226  20.231   5.852  0.00  0.00    +0.292 HD
ENDBRANCH  21  24
ENDBRANCH  15  16
ENDBRANCH   1  15
TORSDOF 8
ENDMDL
MODEL 3
REMARK VINA RESULT:      -5.7      2.604      5.893
REMARK  Name = 53462251
REMARK  8 active torsions:
REMARK  status: ('A' for Active; 'I' for Inactive)
REMARK    1  A    between atoms: O_1  and  C_6
REMARK    2  A    between atoms: O_1  and  C_15
REMARK    3  A    between atoms: C_3  and  O_8
REMARK    4  A    between atoms: C_4  and  O_10
REMARK    5  A    between atoms: C_5  and  O_12
REMARK    6  A    between atoms: C_15  and  C_16
REMARK    7  A    between atoms: C_19  and  O_22
REMARK    8  A    between atoms: C_21  and  O_24
REMARK                            x       y       z     vdW  Elec       q    Type
REMARK                         _______ _______ _______ _____ _____    ______ ____
ROOT
ATOM      1  O   UNL     1     -35.599  22.749   3.495  0.00  0.00    -0.419 OA
ENDROOT
BRANCH   1   6
ATOM      2  O   UNL     1     -37.825  23.544   3.406  0.00  0.00    -0.316 OA
ATOM      3  C   UNL     1     -35.957  25.711   3.728  0.00  0.00    +0.173 C 
ATOM      4  C   UNL     1     -36.214  24.680   4.829  0.00  0.00    +0.211 C 
ATOM      5  C   UNL     1     -37.177  25.824   2.812  0.00  0.00    +0.169 C 
ATOM      6  C   UNL     1     -36.668  23.349   4.223  0.00  0.00    +0.321 C 
ATOM      7  C   UNL     1     -37.609  24.447   2.315  0.00  0.00    +0.178 C 
BRANCH   3   8
ATOM      8  O   UNL     1     -35.684  26.989   4.296  0.00  0.00    -0.379 OA
ATOM      9  H   UNL     1     -36.460  27.295   4.789  0.00  0.00    +0.211 HD
ENDBRANCH   3   8
BRANCH   4  10
ATOM     10  O   UNL     1     -35.034  24.461   5.595  0.00  0.00    -0.377 OA
ATOM     11  H   UNL     1     -35.114  23.624   6.079  0.00  0.00    +0.211 HD
ENDBRANCH   4  10
BRANCH   5  12
ATOM     12  O   UNL     1     -38.261  26.402   3.543  0.00  0.00    -0.379 OA
ATOM     13  H   UNL     1     -39.006  25.780   3.563  0.00  0.00    +0.211 HD
ENDBRANCH   5  12
ENDBRANCH   1   6
BRANCH   1  15
ATOM     14  O   UNL     1     -35.088  20.961   4.851  0.00  0.00    -0.245 OA
ATOM     15  C   UNL     1     -35.363  21.436   3.761  0.00  0.00    +0.343 C 
BRANCH  15  16
ATOM     16  C   UNL     1     -35.485  20.623   2.525  0.00  0.00    +0.079 C 
ATOM     17  C   UNL     1     -36.732  20.452   1.923  0.00  0.00    +0.046 C 
ATOM     18  C   UNL     1     -34.354  20.027   1.966  0.00  0.00    +0.010 C 
ATOM     19  C   UNL     1     -36.847  19.687   0.762  0.00  0.00    +0.168 C 
ATOM     20  C   UNL     1     -34.470  19.262   0.806  0.00  0.00    +0.040 C 
ATOM     21  C   UNL     1     -35.716  19.092   0.204  0.00  0.00    +0.167 C 
BRANCH  19  22
ATOM     22  O   UNL     1     -38.070  19.529   0.182  0.00  0.00    -0.503 OA
ATOM     23  H   UNL     1     -38.373  20.153  -0.448  0.00  0.00    +0.292 HD
ENDBRANCH  19  22
BRANCH  21  24
ATOM     24  O   UNL     1     -35.815  18.343  -0.930  0.00  0.00    -0.503 OA
ATOM     25  H   UNL     1     -35.074  17.861  -1.240  0.00  0.00    +0.292 HD
ENDBRANCH  21  24
ENDBRANCH  15  16
ENDBRANCH   1  15
TORSDOF 8
ENDMDL
MODEL 4
REMARK VINA RESULT:      -5.7      2.928      7.234
REMARK  Name = 53462251
REMARK  8 active torsions:
REMARK  status: ('A' for Active; 'I' for Inactive)
REMARK    1  A    between atoms: O_1  and  C_6
REMARK    2  A    between atoms: O_1  and  C_15
REMARK    3  A    between atoms: C_3  and  O_8
REMARK    4  A    between atoms: C_4  and  O_10
REMARK    5  A    between atoms: C_5  and  O_12
REMARK    6  A    between atoms: C_15  and  C_16
REMARK    7  A    between atoms: C_19  and  O_22
REMARK    8  A    between atoms: C_21  and  O_24
REMARK                            x       y       z     vdW  Elec       q    Type
REMARK                         _______ _______ _______ _____ _____    ______ ____
ROOT
ATOM      1  O   UNL     1     -33.233  26.005   4.363  0.00  0.00    -0.419 OA
ENDROOT
BRANCH   1   6
ATOM      2  O   UNL     1     -33.248  27.119   2.276  0.00  0.00    -0.316 OA
ATOM      3  C   UNL     1     -31.029  27.976   3.898  0.00  0.00    +0.173 C 
ATOM      4  C   UNL     1     -32.480  28.309   4.252  0.00  0.00    +0.211 C 
ATOM      5  C   UNL     1     -30.890  27.748   2.392  0.00  0.00    +0.169 C 
ATOM      6  C   UNL     1     -33.428  27.247   3.688  0.00  0.00    +0.321 C 
ATOM      7  C   UNL     1     -31.920  26.734   1.901  0.00  0.00    +0.178 C 
BRANCH   3   8
ATOM      8  O   UNL     1     -30.164  29.039   4.287  0.00  0.00    -0.379 OA
ATOM      9  H   UNL     1     -29.243  28.742   4.234  0.00  0.00    +0.211 HD
ENDBRANCH   3   8
BRANCH   4  10
ATOM     10  O   UNL     1     -32.647  28.378   5.664  0.00  0.00    -0.377 OA
ATOM     11  H   UNL     1     -32.603  29.304   5.949  0.00  0.00    +0.211 HD
ENDBRANCH   4  10
BRANCH   5  12
ATOM     12  O   UNL     1     -31.108  28.983   1.706  0.00  0.00    -0.379 OA
ATOM     13  H   UNL     1     -30.302  29.521   1.745  0.00  0.00    +0.211 HD
ENDBRANCH   5  12
ENDBRANCH   1   6
BRANCH   1  15
ATOM     14  O   UNL     1     -34.819  26.148   6.025  0.00  0.00    -0.245 OA
ATOM     15  C   UNL     1     -34.286  25.558   5.099  0.00  0.00    +0.343 C 
BRANCH  15  16
ATOM     16  C   UNL     1     -34.725  24.222   4.623  0.00  0.00    +0.079 C 
ATOM     17  C   UNL     1     -34.894  23.179   5.534  0.00  0.00    +0.046 C 
ATOM     18  C   UNL     1     -34.966  24.009   3.265  0.00  0.00    +0.010 C 
ATOM     19  C   UNL     1     -35.306  21.923   5.086  0.00  0.00    +0.168 C 
ATOM     20  C   UNL     1     -35.377  22.753   2.819  0.00  0.00    +0.040 C 
ATOM     21  C   UNL     1     -35.547  21.710   3.730  0.00  0.00    +0.167 C 
BRANCH  19  22
ATOM     22  O   UNL     1     -35.470  20.912   5.986  0.00  0.00    -0.503 OA
ATOM     23  H   UNL     1     -36.329  20.681   6.278  0.00  0.00    +0.292 HD
ENDBRANCH  19  22
BRANCH  21  24
ATOM     24  O   UNL     1     -35.951  20.489   3.281  0.00  0.00    -0.503 OA
ATOM     25  H   UNL     1     -35.352  19.768   3.279  0.00  0.00    +0.292 HD
ENDBRANCH  21  24
ENDBRANCH  15  16
ENDBRANCH   1  15
TORSDOF 8
ENDMDL
MODEL 5
REMARK VINA RESULT:      -5.6      4.207      5.902
REMARK  Name = 53462251
REMARK  8 active torsions:
REMARK  status: ('A' for Active; 'I' for Inactive)
REMARK    1  A    between atoms: O_1  and  C_6
REMARK    2  A    between atoms: O_1  and  C_15
REMARK    3  A    between atoms: C_3  and  O_8
REMARK    4  A    between atoms: C_4  and  O_10
REMARK    5  A    between atoms: C_5  and  O_12
REMARK    6  A    between atoms: C_15  and  C_16
REMARK    7  A    between atoms: C_19  and  O_22
REMARK    8  A    between atoms: C_21  and  O_24
REMARK                            x       y       z     vdW  Elec       q    Type
REMARK                         _______ _______ _______ _____ _____    ______ ____
ROOT
ATOM      1  O   UNL     1     -34.759  22.299   1.735  0.00  0.00    -0.419 OA
ENDROOT
BRANCH   1   6
ATOM      2  O   UNL     1     -36.555  23.836   1.830  0.00  0.00    -0.316 OA
ATOM      3  C   UNL     1     -35.651  23.124   4.470  0.00  0.00    +0.173 C 
ATOM      4  C   UNL     1     -36.360  22.128   3.550  0.00  0.00    +0.211 C 
ATOM      5  C   UNL     1     -36.053  24.556   4.111  0.00  0.00    +0.169 C 
ATOM      6  C   UNL     1     -36.129  22.494   2.081  0.00  0.00    +0.321 C 
ATOM      7  C   UNL     1     -35.863  24.812   2.618  0.00  0.00    +0.178 C 
BRANCH   3   8
ATOM      8  O   UNL     1     -35.992  22.876   5.831  0.00  0.00    -0.379 OA
ATOM      9  H   UNL     1     -35.680  21.994   6.086  0.00  0.00    +0.211 HD
ENDBRANCH   3   8
BRANCH   4  10
ATOM     10  O   UNL     1     -35.882  20.807   3.780  0.00  0.00    -0.377 OA
ATOM     11  H   UNL     1     -34.952  20.749   3.509  0.00  0.00    +0.211 HD
ENDBRANCH   4  10
BRANCH   5  12
ATOM     12  O   UNL     1     -37.432  24.753   4.432  0.00  0.00    -0.379 OA
ATOM     13  H   UNL     1     -37.943  23.978   4.149  0.00  0.00    +0.211 HD
ENDBRANCH   5  12
ENDBRANCH   1   6
BRANCH   1  15
ATOM     14  O   UNL     1     -35.022  22.063  -0.540  0.00  0.00    -0.245 OA
ATOM     15  C   UNL     1     -34.530  21.723   0.524  0.00  0.00    +0.343 C 
BRANCH  15  16
ATOM     16  C   UNL     1     -33.575  20.594   0.656  0.00  0.00    +0.079 C 
ATOM     17  C   UNL     1     -32.311  20.678   0.072  0.00  0.00    +0.046 C 
ATOM     18  C   UNL     1     -33.943  19.447   1.362  0.00  0.00    +0.010 C 
ATOM     19  C   UNL     1     -31.415  19.616   0.195  0.00  0.00    +0.168 C 
ATOM     20  C   UNL     1     -33.046  18.387   1.484  0.00  0.00    +0.040 C 
ATOM     21  C   UNL     1     -31.782  18.471   0.900  0.00  0.00    +0.167 C 
BRANCH  19  22
ATOM     22  O   UNL     1     -30.181  19.710  -0.378  0.00  0.00    -0.503 OA
ATOM     23  H   UNL     1     -29.659  18.941  -0.493  0.00  0.00    +0.292 HD
ENDBRANCH  19  22
BRANCH  21  24
ATOM     24  O   UNL     1     -30.915  17.428   1.029  0.00  0.00    -0.503 OA
ATOM     25  H   UNL     1     -30.556  17.217   1.868  0.00  0.00    +0.292 HD
ENDBRANCH  21  24
ENDBRANCH  15  16
ENDBRANCH   1  15
TORSDOF 8
ENDMDL
MODEL 6
REMARK VINA RESULT:      -5.6      2.918      6.618
REMARK  Name = 53462251
REMARK  8 active torsions:
REMARK  status: ('A' for Active; 'I' for Inactive)
REMARK    1  A    between atoms: O_1  and  C_6
REMARK    2  A    between atoms: O_1  and  C_15
REMARK    3  A    between atoms: C_3  and  O_8
REMARK    4  A    between atoms: C_4  and  O_10
REMARK    5  A    between atoms: C_5  and  O_12
REMARK    6  A    between atoms: C_15  and  C_16
REMARK    7  A    between atoms: C_19  and  O_22
REMARK    8  A    between atoms: C_21  and  O_24
REMARK                            x       y       z     vdW  Elec       q    Type
REMARK                         _______ _______ _______ _____ _____    ______ ____
ROOT
ATOM      1  O   UNL     1     -33.265  26.040   4.199  0.00  0.00    -0.419 OA
ENDROOT
BRANCH   1   6
ATOM      2  O   UNL     1     -34.475  28.021   3.740  0.00  0.00    -0.316 OA
ATOM      3  C   UNL     1     -32.329  27.650   1.856  0.00  0.00    +0.173 C 
ATOM      4  C   UNL     1     -32.078  27.970   3.331  0.00  0.00    +0.211 C 
ATOM      5  C   UNL     1     -33.702  28.169   1.427  0.00  0.00    +0.169 C 
ATOM      6  C   UNL     1     -33.238  27.466   4.195  0.00  0.00    +0.321 C 
ATOM      7  C   UNL     1     -34.788  27.683   2.383  0.00  0.00    +0.178 C 
BRANCH   3   8
ATOM      8  O   UNL     1     -31.330  28.252   1.038  0.00  0.00    -0.379 OA
ATOM      9  H   UNL     1     -31.713  28.484   0.179  0.00  0.00    +0.211 HD
ENDBRANCH   3   8
BRANCH   4  10
ATOM     10  O   UNL     1     -30.870  27.364   3.777  0.00  0.00    -0.377 OA
ATOM     11  H   UNL     1     -30.226  28.054   4.000  0.00  0.00    +0.211 HD
ENDBRANCH   4  10
BRANCH   5  12
ATOM     12  O   UNL     1     -33.691  29.599   1.444  0.00  0.00    -0.379 OA
ATOM     13  H   UNL     1     -34.157  29.916   2.233  0.00  0.00    +0.211 HD
ENDBRANCH   5  12
ENDBRANCH   1   6
BRANCH   1  15
ATOM     14  O   UNL     1     -34.341  25.926   6.231  0.00  0.00    -0.245 OA
ATOM     15  C   UNL     1     -34.067  25.465   5.134  0.00  0.00    +0.343 C 
BRANCH  15  16
ATOM     16  C   UNL     1     -34.590  24.164   4.645  0.00  0.00    +0.079 C 
ATOM     17  C   UNL     1     -34.791  23.112   5.539  0.00  0.00    +0.046 C 
ATOM     18  C   UNL     1     -34.877  23.993   3.289  0.00  0.00    +0.010 C 
ATOM     19  C   UNL     1     -35.281  21.890   5.077  0.00  0.00    +0.168 C 
ATOM     20  C   UNL     1     -35.366  22.770   2.830  0.00  0.00    +0.040 C 
ATOM     21  C   UNL     1     -35.568  21.719   3.724  0.00  0.00    +0.167 C 
BRANCH  19  22
ATOM     22  O   UNL     1     -35.476  20.870   5.961  0.00  0.00    -0.503 OA
ATOM     23  H   UNL     1     -35.457  19.982   5.663  0.00  0.00    +0.292 HD
ENDBRANCH  19  22
BRANCH  21  24
ATOM     24  O   UNL     1     -36.049  20.531   3.262  0.00  0.00    -0.503 OA
ATOM     25  H   UNL     1     -35.558  20.039   2.633  0.00  0.00    +0.292 HD
ENDBRANCH  21  24
ENDBRANCH  15  16
ENDBRANCH   1  15
TORSDOF 8
ENDMDL
MODEL 7
REMARK VINA RESULT:      -5.6      2.633      4.798
REMARK  Name = 53462251
REMARK  8 active torsions:
REMARK  status: ('A' for Active; 'I' for Inactive)
REMARK    1  A    between atoms: O_1  and  C_6
REMARK    2  A    between atoms: O_1  and  C_15
REMARK    3  A    between atoms: C_3  and  O_8
REMARK    4  A    between atoms: C_4  and  O_10
REMARK    5  A    between atoms: C_5  and  O_12
REMARK    6  A    between atoms: C_15  and  C_16
REMARK    7  A    between atoms: C_19  and  O_22
REMARK    8  A    between atoms: C_21  and  O_24
REMARK                            x       y       z     vdW  Elec       q    Type
REMARK                         _______ _______ _______ _____ _____    ______ ____
ROOT
ATOM      1  O   UNL     1     -34.444  26.292   3.729  0.00  0.00    -0.419 OA
ENDROOT
BRANCH   1   6
ATOM      2  O   UNL     1     -34.438  23.963   4.141  0.00  0.00    -0.316 OA
ATOM      3  C   UNL     1     -37.117  24.948   3.768  0.00  0.00    +0.173 C 
ATOM      4  C   UNL     1     -36.272  25.315   4.990  0.00  0.00    +0.211 C 
ATOM      5  C   UNL     1     -36.660  23.607   3.190  0.00  0.00    +0.169 C 
ATOM      6  C   UNL     1     -34.780  25.255   4.648  0.00  0.00    +0.321 C 
ATOM      7  C   UNL     1     -35.153  23.607   2.952  0.00  0.00    +0.178 C 
BRANCH   3   8
ATOM      8  O   UNL     1     -38.494  24.853   4.125  0.00  0.00    -0.379 OA
ATOM      9  H   UNL     1     -38.894  24.097   3.670  0.00  0.00    +0.211 HD
ENDBRANCH   3   8
BRANCH   4  10
ATOM     10  O   UNL     1     -36.591  26.625   5.444  0.00  0.00    -0.377 OA
ATOM     11  H   UNL     1     -36.925  26.579   6.354  0.00  0.00    +0.211 HD
ENDBRANCH   4  10
BRANCH   5  12
ATOM     12  O   UNL     1     -36.972  22.564   4.117  0.00  0.00    -0.379 OA
ATOM     13  H   UNL     1     -36.727  22.844   5.013  0.00  0.00    +0.211 HD
ENDBRANCH   5  12
ENDBRANCH   1   6
BRANCH   1  15
ATOM     14  O   UNL     1     -32.310  25.830   3.000  0.00  0.00    -0.245 OA
ATOM     15  C   UNL     1     -33.116  26.543   3.577  0.00  0.00    +0.343 C 
BRANCH  15  16
ATOM     16  C   UNL     1     -32.751  27.831   4.218  0.00  0.00    +0.079 C 
ATOM     17  C   UNL     1     -32.226  27.843   5.510  0.00  0.00    +0.046 C 
ATOM     18  C   UNL     1     -32.935  29.031   3.528  0.00  0.00    +0.010 C 
ATOM     19  C   UNL     1     -31.884  29.055   6.112  0.00  0.00    +0.168 C 
ATOM     20  C   UNL     1     -32.593  30.241   4.131  0.00  0.00    +0.040 C 
ATOM     21  C   UNL     1     -32.068  30.253   5.423  0.00  0.00    +0.167 C 
BRANCH  19  22
ATOM     22  O   UNL     1     -31.370  29.054   7.374  0.00  0.00    -0.503 OA
ATOM     23  H   UNL     1     -31.914  29.283   8.102  0.00  0.00    +0.292 HD
ENDBRANCH  19  22
BRANCH  21  24
ATOM     24  O   UNL     1     -31.736  31.442   6.000  0.00  0.00    -0.503 OA
ATOM     25  H   UNL     1     -31.665  32.214   5.474  0.00  0.00    +0.292 HD
ENDBRANCH  21  24
ENDBRANCH  15  16
ENDBRANCH   1  15
TORSDOF 8
ENDMDL
MODEL 8
REMARK VINA RESULT:      -5.5      2.408      2.844
REMARK  Name = 53462251
REMARK  8 active torsions:
REMARK  status: ('A' for Active; 'I' for Inactive)
REMARK    1  A    between atoms: O_1  and  C_6
REMARK    2  A    between atoms: O_1  and  C_15
REMARK    3  A    between atoms: C_3  and  O_8
REMARK    4  A    between atoms: C_4  and  O_10
REMARK    5  A    between atoms: C_5  and  O_12
REMARK    6  A    between atoms: C_15  and  C_16
REMARK    7  A    between atoms: C_19  and  O_22
REMARK    8  A    between atoms: C_21  and  O_24
REMARK                            x       y       z     vdW  Elec       q    Type
REMARK                         _______ _______ _______ _____ _____    ______ ____
ROOT
ATOM      1  O   UNL     1     -36.985  21.413   2.201  0.00  0.00    -0.419 OA
ENDROOT
BRANCH   1   6
ATOM      2  O   UNL     1     -36.667  22.317   0.038  0.00  0.00    -0.316 OA
ATOM      3  C   UNL     1     -38.674  20.253   0.021  0.00  0.00    +0.173 C 
ATOM      4  C   UNL     1     -37.195  19.955   0.274  0.00  0.00    +0.211 C 
ATOM      5  C   UNL     1     -38.824  21.535  -0.801  0.00  0.00    +0.169 C 
ATOM      6  C   UNL     1     -36.498  21.175   0.882  0.00  0.00    +0.321 C 
ATOM      7  C   UNL     1     -38.038  22.678  -0.167  0.00  0.00    +0.178 C 
BRANCH   3   8
ATOM      8  O   UNL     1     -39.286  19.177  -0.684  0.00  0.00    -0.379 OA
ATOM      9  H   UNL     1     -38.611  18.527  -0.930  0.00  0.00    +0.211 HD
ENDBRANCH   3   8
BRANCH   4  10
ATOM     10  O   UNL     1     -37.052  18.850   1.159  0.00  0.00    -0.377 OA
ATOM     11  H   UNL     1     -37.223  18.025   0.676  0.00  0.00    +0.211 HD
ENDBRANCH   4  10
BRANCH   5  12
ATOM     12  O   UNL     1     -38.315  21.311  -2.118  0.00  0.00    -0.379 OA
ATOM     13  H   UNL     1     -37.698  20.563  -2.104  0.00  0.00    +0.211 HD
ENDBRANCH   5  12
ENDBRANCH   1   6
BRANCH   1  15
ATOM     14  O   UNL     1     -35.215  20.691   3.484  0.00  0.00    -0.245 OA
ATOM     15  C   UNL     1     -36.038  21.536   3.170  0.00  0.00    +0.343 C 
BRANCH  15  16
ATOM     16  C   UNL     1     -36.127  22.867   3.821  0.00  0.00    +0.079 C 
ATOM     17  C   UNL     1     -37.083  23.789   3.396  0.00  0.00    +0.046 C 
ATOM     18  C   UNL     1     -35.253  23.197   4.858  0.00  0.00    +0.010 C 
ATOM     19  C   UNL     1     -37.166  25.041   4.008  0.00  0.00    +0.168 C 
ATOM     20  C   UNL     1     -35.337  24.447   5.469  0.00  0.00    +0.040 C 
ATOM     21  C   UNL     1     -36.293  25.369   5.044  0.00  0.00    +0.167 C 
BRANCH  19  22
ATOM     22  O   UNL     1     -38.105  25.933   3.585  0.00  0.00    -0.503 OA
ATOM     23  H   UNL     1     -38.996  25.842   3.862  0.00  0.00    +0.292 HD
ENDBRANCH  19  22
BRANCH  21  24
ATOM     24  O   UNL     1     -36.364  26.587   5.650  0.00  0.00    -0.503 OA
ATOM     25  H   UNL     1     -35.607  27.138   5.687  0.00  0.00    +0.292 HD
ENDBRANCH  21  24
ENDBRANCH  15  16
ENDBRANCH   1  15
TORSDOF 8
ENDMDL
MODEL 9
REMARK VINA RESULT:      -5.5      1.932      3.124
REMARK  Name = 53462251
REMARK  8 active torsions:
REMARK  status: ('A' for Active; 'I' for Inactive)
REMARK    1  A    between atoms: O_1  and  C_6
REMARK    2  A    between atoms: O_1  and  C_15
REMARK    3  A    between atoms: C_3  and  O_8
REMARK    4  A    between atoms: C_4  and  O_10
REMARK    5  A    between atoms: C_5  and  O_12
REMARK    6  A    between atoms: C_15  and  C_16
REMARK    7  A    between atoms: C_19  and  O_22
REMARK    8  A    between atoms: C_21  and  O_24
REMARK                            x       y       z     vdW  Elec       q    Type
REMARK                         _______ _______ _______ _____ _____    ______ ____
ROOT
ATOM      1  O   UNL     1     -38.254  24.275   2.361  0.00  0.00    -0.419 OA
ENDROOT
BRANCH   1   6
ATOM      2  O   UNL     1     -40.300  23.109   2.131  0.00  0.00    -0.316 OA
ATOM      3  C   UNL     1     -40.573  25.861   1.331  0.00  0.00    +0.173 C 
ATOM      4  C   UNL     1     -40.334  25.450   2.785  0.00  0.00    +0.211 C 
ATOM      5  C   UNL     1     -41.250  24.724   0.563  0.00  0.00    +0.169 C 
ATOM      6  C   UNL     1     -39.585  24.116   2.850  0.00  0.00    +0.321 C 
ATOM      7  C   UNL     1     -40.482  23.418   0.744  0.00  0.00    +0.178 C 
BRANCH   3   8
ATOM      8  O   UNL     1     -41.401  27.019   1.270  0.00  0.00    -0.379 OA
ATOM      9  H   UNL     1     -40.848  27.806   1.154  0.00  0.00    +0.211 HD
ENDBRANCH   3   8
BRANCH   4  10
ATOM     10  O   UNL     1     -39.574  26.442   3.467  0.00  0.00    -0.377 OA
ATOM     11  H   UNL     1     -40.119  26.845   4.162  0.00  0.00    +0.211 HD
ENDBRANCH   4  10
BRANCH   5  12
ATOM     12  O   UNL     1     -42.576  24.543   1.064  0.00  0.00    -0.379 OA
ATOM     13  H   UNL     1     -42.694  25.074   1.868  0.00  0.00    +0.211 HD
ENDBRANCH   5  12
ENDBRANCH   1   6
BRANCH   1  15
ATOM     14  O   UNL     1     -37.194  22.292   2.853  0.00  0.00    -0.245 OA
ATOM     15  C   UNL     1     -37.307  23.502   2.958  0.00  0.00    +0.343 C 
BRANCH  15  16
ATOM     16  C   UNL     1     -36.394  24.337   3.780  0.00  0.00    +0.079 C 
ATOM     17  C   UNL     1     -36.204  25.682   3.463  0.00  0.00    +0.046 C 
ATOM     18  C   UNL     1     -35.725  23.775   4.868  0.00  0.00    +0.010 C 
ATOM     19  C   UNL     1     -35.346  26.465   4.235  0.00  0.00    +0.168 C 
ATOM     20  C   UNL     1     -34.868  24.560   5.639  0.00  0.00    +0.040 C 
ATOM     21  C   UNL     1     -34.678  25.905   5.322  0.00  0.00    +0.167 C 
BRANCH  19  22
ATOM     22  O   UNL     1     -35.170  27.779   3.916  0.00  0.00    -0.503 OA
ATOM     23  H   UNL     1     -35.252  28.060   3.026  0.00  0.00    +0.292 HD
ENDBRANCH  19  22
BRANCH  21  24
ATOM     24  O   UNL     1     -33.838  26.660   6.085  0.00  0.00    -0.503 OA
ATOM     25  H   UNL     1     -33.336  27.345   5.690  0.00  0.00    +0.292 HD
ENDBRANCH  21  24
ENDBRANCH  15  16
ENDBRANCH   1  15
TORSDOF 8
ENDMDL
