MODEL 1
REMARK VINA RESULT:      -7.0      0.000      0.000
REMARK  Name = 5463984
REMARK  10 active torsions:
REMARK  status: ('A' for Active; 'I' for Inactive)
REMARK    1  A    between atoms: N_2  and  C_29
REMARK    2  A    between atoms: C_3  and  N_13
REMARK    3  A    between atoms: N_13  and  CA_16
REMARK    4  A    between atoms: CA_16  and  C_18
REMARK    5  A    between atoms: CA_16  and  C_21
REMARK    6  A    between atoms: C_18  and  O_19
REMARK    7  A    between atoms: C_21  and  C_22
REMARK    8  A    between atoms: C_22  and  C_23
REMARK    9  A    between atoms: C_29  and  C_31
REMARK   10  A    between atoms: C_31  and  O_32
REMARK                            x       y       z     vdW  Elec       q    Type
REMARK                         _______ _______ _______ _____ _____    ______ ____
ROOT
ATOM      1  O   UNL     1     -36.074  23.423   1.104  0.00  0.00    -0.277 OA
ATOM      2  N   UNL     1     -34.302  22.078   0.418  0.00  0.00    -0.250 N 
ATOM      3  C   UNL     1     -35.454  21.618   2.572  0.00  0.00    +0.018 C 
ATOM      4  C   UNL     1     -36.187  20.302   2.334  0.00  0.00    -0.008 C 
ATOM      5  C   UNL     1     -35.742  19.578   1.069  0.00  0.00    +0.026 C 
ATOM      6  C   UNL     1     -35.340  22.450   1.296  0.00  0.00    +0.210 C 
ATOM      7  C   UNL     1     -34.252  19.627   0.850  0.00  0.00    -0.009 C 
ATOM      8  C   UNL     1     -33.599  20.826   0.483  0.00  0.00    +0.050 C 
ATOM      9  C   UNL     1     -33.519  18.430   0.925  0.00  0.00    -0.003 C 
ATOM     10  C   UNL     1     -32.235  20.770   0.143  0.00  0.00    +0.015 C 
ATOM     11  C   UNL     1     -32.161  18.404   0.617  0.00  0.00    -0.000 C 
ATOM     12  C   UNL     1     -31.522  19.571   0.218  0.00  0.00    +0.001 C 
ENDROOT
BRANCH   3  13
ATOM     13  N   UNL     1     -36.159  22.404   3.586  0.00  0.00    +0.399 N 
ATOM     14  H1  UNL     1     -36.903  21.836   3.993  0.00  0.00    -0.083 HD
ATOM     15  H2  UNL     1     -36.551  23.235   3.142  0.00  0.00    -0.083 HD
BRANCH  13  16
ATOM     16  CA  UNL     1     -35.247  22.822   4.638  0.00  0.00    +0.041 C 
BRANCH  16  18
ATOM     17  OXT UNL     1     -36.128  22.155   6.807  0.00  0.00    -0.253 OA
ATOM     18  C   UNL     1     -35.467  21.885   5.812  0.00  0.00    +0.293 C 
BRANCH  18  19
ATOM     19  O   UNL     1     -34.864  20.681   5.636  0.00  0.00    -0.482 OA
ATOM     20  H   UNL     1     -34.515  20.220   6.374  0.00  0.00    +0.295 HD
ENDBRANCH  18  19
ENDBRANCH  16  18
BRANCH  16  21
ATOM     21  C   UNL     1     -35.552  24.276   5.024  0.00  0.00    -0.006 C 
BRANCH  21  22
ATOM     22  C   UNL     1     -34.902  25.327   4.111  0.00  0.00    +0.025 C 
BRANCH  22  23
ATOM     23  C   UNL     1     -33.950  26.263   4.813  0.00  0.00    -0.022 C 
ATOM     24  C   UNL     1     -33.796  26.174   6.187  0.00  0.00    -0.004 C 
ATOM     25  C   UNL     1     -33.243  27.197   4.070  0.00  0.00    -0.004 C 
ATOM     26  C   UNL     1     -32.916  27.039   6.836  0.00  0.00    -0.000 C 
ATOM     27  C   UNL     1     -32.362  28.062   4.719  0.00  0.00    -0.000 C 
ATOM     28  C   UNL     1     -32.198  27.983   6.102  0.00  0.00    -0.000 C 
ENDBRANCH  22  23
ENDBRANCH  21  22
ENDBRANCH  16  21
ENDBRANCH  13  16
ENDBRANCH   3  13
BRANCH   2  29
ATOM     29  C   UNL     1     -33.892  23.030  -0.614  0.00  0.00    +0.208 C 
BRANCH  29  31
ATOM     30  O   UNL     1     -31.848  24.152  -0.017  0.00  0.00    -0.248 OA
ATOM     31  C   UNL     1     -33.072  24.170  -0.068  0.00  0.00    +0.335 C 
BRANCH  31  32
ATOM     32  O   UNL     1     -33.816  25.216   0.362  0.00  0.00    -0.479 OA
ATOM     33  H   UNL     1     -34.739  25.113   0.484  0.00  0.00    +0.295 HD
ENDBRANCH  31  32
ENDBRANCH  29  31
ENDBRANCH   2  29
TORSDOF 10
ENDMDL
MODEL 2
REMARK VINA RESULT:      -6.8      2.835      6.782
REMARK  Name = 5463984
REMARK  10 active torsions:
REMARK  status: ('A' for Active; 'I' for Inactive)
REMARK    1  A    between atoms: N_2  and  C_29
REMARK    2  A    between atoms: C_3  and  N_13
REMARK    3  A    between atoms: N_13  and  CA_16
REMARK    4  A    between atoms: CA_16  and  C_18
REMARK    5  A    between atoms: CA_16  and  C_21
REMARK    6  A    between atoms: C_18  and  O_19
REMARK    7  A    between atoms: C_21  and  C_22
REMARK    8  A    between atoms: C_22  and  C_23
REMARK    9  A    between atoms: C_29  and  C_31
REMARK   10  A    between atoms: C_31  and  O_32
REMARK                            x       y       z     vdW  Elec       q    Type
REMARK                         _______ _______ _______ _____ _____    ______ ____
ROOT
ATOM      1  O   UNL     1     -36.333  22.973   4.720  0.00  0.00    -0.277 OA
ATOM      2  N   UNL     1     -35.505  24.804   3.545  0.00  0.00    -0.250 N 
ATOM      3  C   UNL     1     -37.399  23.486   2.622  0.00  0.00    +0.018 C 
ATOM      4  C   UNL     1     -38.594  24.429   2.710  0.00  0.00    -0.008 C 
ATOM      5  C   UNL     1     -38.207  25.875   2.998  0.00  0.00    +0.026 C 
ATOM      6  C   UNL     1     -36.392  23.728   3.745  0.00  0.00    +0.210 C 
ATOM      7  C   UNL     1     -36.984  26.324   2.241  0.00  0.00    -0.009 C 
ATOM      8  C   UNL     1     -35.697  25.837   2.563  0.00  0.00    +0.050 C 
ATOM      9  C   UNL     1     -37.127  27.317   1.256  0.00  0.00    -0.003 C 
ATOM     10  C   UNL     1     -34.583  26.412   1.924  0.00  0.00    +0.015 C 
ATOM     11  C   UNL     1     -36.012  27.848   0.611  0.00  0.00    -0.000 C 
ATOM     12  C   UNL     1     -34.741  27.401   0.951  0.00  0.00    +0.001 C 
ENDROOT
BRANCH   3  13
ATOM     13  N   UNL     1     -37.855  22.096   2.690  0.00  0.00    +0.399 N 
ATOM     14  H1  UNL     1     -38.800  22.073   3.076  0.00  0.00    -0.083 HD
ATOM     15  H2  UNL     1     -37.217  21.570   3.288  0.00  0.00    -0.083 HD
BRANCH  13  16
ATOM     16  CA  UNL     1     -37.862  21.492   1.369  0.00  0.00    +0.041 C 
BRANCH  16  18
ATOM     17  OXT UNL     1     -39.755  21.082  -0.107  0.00  0.00    -0.253 OA
ATOM     18  C   UNL     1     -39.311  21.188   1.029  0.00  0.00    +0.293 C 
BRANCH  18  19
ATOM     19  O   UNL     1     -40.079  21.015   2.135  0.00  0.00    -0.482 OA
ATOM     20  H   UNL     1     -40.850  20.485   2.092  0.00  0.00    +0.295 HD
ENDBRANCH  18  19
ENDBRANCH  16  18
BRANCH  16  21
ATOM     21  C   UNL     1     -37.018  20.210   1.393  0.00  0.00    -0.006 C 
BRANCH  21  22
ATOM     22  C   UNL     1     -35.750  20.300   2.256  0.00  0.00    +0.025 C 
BRANCH  22  23
ATOM     23  C   UNL     1     -34.458  20.267   1.476  0.00  0.00    -0.022 C 
ATOM     24  C   UNL     1     -34.110  21.354   0.691  0.00  0.00    -0.004 C 
ATOM     25  C   UNL     1     -33.642  19.150   1.560  0.00  0.00    -0.004 C 
ATOM     26  C   UNL     1     -32.916  21.325  -0.030  0.00  0.00    -0.000 C 
ATOM     27  C   UNL     1     -32.448  19.121   0.841  0.00  0.00    -0.000 C 
ATOM     28  C   UNL     1     -32.084  20.208   0.045  0.00  0.00    -0.000 C 
ENDBRANCH  22  23
ENDBRANCH  21  22
ENDBRANCH  16  21
ENDBRANCH  13  16
ENDBRANCH   3  13
BRANCH   2  29
ATOM     29  C   UNL     1     -34.297  24.870   4.368  0.00  0.00    +0.208 C 
BRANCH  29  31
ATOM     30  O   UNL     1     -35.436  26.265   5.965  0.00  0.00    -0.248 OA
ATOM     31  C   UNL     1     -34.380  25.915   5.449  0.00  0.00    +0.335 C 
BRANCH  31  32
ATOM     32  O   UNL     1     -33.179  26.433   5.797  0.00  0.00    -0.479 OA
ATOM     33  H   UNL     1     -32.941  26.496   6.701  0.00  0.00    +0.295 HD
ENDBRANCH  31  32
ENDBRANCH  29  31
ENDBRANCH   2  29
TORSDOF 10
ENDMDL
MODEL 3
REMARK VINA RESULT:      -6.8      3.444      5.620
REMARK  Name = 5463984
REMARK  10 active torsions:
REMARK  status: ('A' for Active; 'I' for Inactive)
REMARK    1  A    between atoms: N_2  and  C_29
REMARK    2  A    between atoms: C_3  and  N_13
REMARK    3  A    between atoms: N_13  and  CA_16
REMARK    4  A    between atoms: CA_16  and  C_18
REMARK    5  A    between atoms: CA_16  and  C_21
REMARK    6  A    between atoms: C_18  and  O_19
REMARK    7  A    between atoms: C_21  and  C_22
REMARK    8  A    between atoms: C_22  and  C_23
REMARK    9  A    between atoms: C_29  and  C_31
REMARK   10  A    between atoms: C_31  and  O_32
REMARK                            x       y       z     vdW  Elec       q    Type
REMARK                         _______ _______ _______ _____ _____    ______ ____
ROOT
ATOM      1  O   UNL     1     -37.025  25.335   0.970  0.00  0.00    -0.277 OA
ATOM      2  N   UNL     1     -36.580  23.592   2.447  0.00  0.00    -0.250 N 
ATOM      3  C   UNL     1     -35.275  25.702   2.583  0.00  0.00    +0.018 C 
ATOM      4  C   UNL     1     -35.720  26.337   3.896  0.00  0.00    -0.008 C 
ATOM      5  C   UNL     1     -36.506  25.389   4.795  0.00  0.00    +0.026 C 
ATOM      6  C   UNL     1     -36.392  24.889   1.931  0.00  0.00    +0.210 C 
ATOM      7  C   UNL     1     -35.942  23.992   4.821  0.00  0.00    -0.009 C 
ATOM      8  C   UNL     1     -36.043  23.135   3.701  0.00  0.00    +0.050 C 
ATOM      9  C   UNL     1     -35.387  23.510   6.018  0.00  0.00    -0.003 C 
ATOM     10  C   UNL     1     -35.637  21.795   3.843  0.00  0.00    +0.015 C 
ATOM     11  C   UNL     1     -34.960  22.189   6.126  0.00  0.00    -0.000 C 
ATOM     12  C   UNL     1     -35.092  21.330   5.041  0.00  0.00    +0.001 C 
ENDROOT
BRANCH   3  13
ATOM     13  N   UNL     1     -34.842  26.742   1.648  0.00  0.00    +0.399 N 
ATOM     14  H1  UNL     1     -35.343  26.628   0.766  0.00  0.00    -0.083 HD
ATOM     15  H2  UNL     1     -33.838  26.651   1.498  0.00  0.00    -0.083 HD
BRANCH  13  16
ATOM     16  CA  UNL     1     -35.117  28.064   2.186  0.00  0.00    +0.041 C 
BRANCH  16  18
ATOM     17  OXT UNL     1     -36.722  29.763   1.503  0.00  0.00    -0.253 OA
ATOM     18  C   UNL     1     -36.140  28.712   1.268  0.00  0.00    +0.293 C 
BRANCH  18  19
ATOM     19  O   UNL     1     -36.331  28.007   0.124  0.00  0.00    -0.482 OA
ATOM     20  H   UNL     1     -37.153  27.587  -0.036  0.00  0.00    +0.295 HD
ENDBRANCH  18  19
ENDBRANCH  16  18
BRANCH  16  21
ATOM     21  C   UNL     1     -33.815  28.876   2.225  0.00  0.00    -0.006 C 
BRANCH  21  22
ATOM     22  C   UNL     1     -32.655  28.183   2.957  0.00  0.00    +0.025 C 
BRANCH  22  23
ATOM     23  C   UNL     1     -32.341  28.758   4.317  0.00  0.00    -0.022 C 
ATOM     24  C   UNL     1     -32.227  27.908   5.405  0.00  0.00    -0.004 C 
ATOM     25  C   UNL     1     -32.171  30.127   4.453  0.00  0.00    -0.004 C 
ATOM     26  C   UNL     1     -31.936  28.439   6.662  0.00  0.00    -0.000 C 
ATOM     27  C   UNL     1     -31.879  30.658   5.709  0.00  0.00    -0.000 C 
ATOM     28  C   UNL     1     -31.762  29.814   6.814  0.00  0.00    -0.000 C 
ENDBRANCH  22  23
ENDBRANCH  21  22
ENDBRANCH  16  21
ENDBRANCH  13  16
ENDBRANCH   3  13
BRANCH   2  29
ATOM     29  C   UNL     1     -37.350  22.634   1.653  0.00  0.00    +0.208 C 
BRANCH  29  31
ATOM     30  O   UNL     1     -39.494  23.334   2.491  0.00  0.00    -0.248 OA
ATOM     31  C   UNL     1     -38.743  22.417   2.184  0.00  0.00    +0.335 C 
BRANCH  31  32
ATOM     32  O   UNL     1     -39.084  21.112   2.291  0.00  0.00    -0.479 OA
ATOM     33  H   UNL     1     -38.558  20.456   1.878  0.00  0.00    +0.295 HD
ENDBRANCH  31  32
ENDBRANCH  29  31
ENDBRANCH   2  29
TORSDOF 10
ENDMDL
MODEL 4
REMARK VINA RESULT:      -6.8      2.499      6.860
REMARK  Name = 5463984
REMARK  10 active torsions:
REMARK  status: ('A' for Active; 'I' for Inactive)
REMARK    1  A    between atoms: N_2  and  C_29
REMARK    2  A    between atoms: C_3  and  N_13
REMARK    3  A    between atoms: N_13  and  CA_16
REMARK    4  A    between atoms: CA_16  and  C_18
REMARK    5  A    between atoms: CA_16  and  C_21
REMARK    6  A    between atoms: C_18  and  O_19
REMARK    7  A    between atoms: C_21  and  C_22
REMARK    8  A    between atoms: C_22  and  C_23
REMARK    9  A    between atoms: C_29  and  C_31
REMARK   10  A    between atoms: C_31  and  O_32
REMARK                            x       y       z     vdW  Elec       q    Type
REMARK                         _______ _______ _______ _____ _____    ______ ____
ROOT
ATOM      1  O   UNL     1     -36.354  23.757   0.097  0.00  0.00    -0.277 OA
ATOM      2  N   UNL     1     -36.239  22.674   2.154  0.00  0.00    -0.250 N 
ATOM      3  C   UNL     1     -34.551  24.398   1.559  0.00  0.00    +0.018 C 
ATOM      4  C   UNL     1     -34.853  25.561   2.497  0.00  0.00    -0.008 C 
ATOM      5  C   UNL     1     -35.798  25.195   3.636  0.00  0.00    +0.026 C 
ATOM      6  C   UNL     1     -35.810  23.612   1.195  0.00  0.00    +0.210 C 
ATOM      7  C   UNL     1     -35.514  23.840   4.231  0.00  0.00    -0.009 C 
ATOM      8  C   UNL     1     -35.788  22.650   3.520  0.00  0.00    +0.050 C 
ATOM      9  C   UNL     1     -35.051  23.769   5.556  0.00  0.00    -0.003 C 
ATOM     10  C   UNL     1     -35.647  21.420   4.189  0.00  0.00    +0.015 C 
ATOM     11  C   UNL     1     -34.885  22.539   6.188  0.00  0.00    -0.000 C 
ATOM     12  C   UNL     1     -35.190  21.367   5.508  0.00  0.00    +0.001 C 
ENDROOT
BRANCH   3  13
ATOM     13  N   UNL     1     -33.935  24.897   0.328  0.00  0.00    +0.399 N 
ATOM     14  H1  UNL     1     -33.759  25.898   0.425  0.00  0.00    -0.083 HD
ATOM     15  H2  UNL     1     -34.571  24.724  -0.450  0.00  0.00    -0.083 HD
BRANCH  13  16
ATOM     16  CA  UNL     1     -32.679  24.213   0.068  0.00  0.00    +0.041 C 
BRANCH  16  18
ATOM     17  OXT UNL     1     -31.941  25.687  -1.724  0.00  0.00    -0.253 OA
ATOM     18  C   UNL     1     -31.761  25.216  -0.608  0.00  0.00    +0.293 C 
BRANCH  18  19
ATOM     19  O   UNL     1     -30.709  25.568   0.175  0.00  0.00    -0.482 OA
ATOM     20  H   UNL     1     -30.848  26.086   0.943  0.00  0.00    +0.295 HD
ENDBRANCH  18  19
ENDBRANCH  16  18
BRANCH  16  21
ATOM     21  C   UNL     1     -32.940  23.003  -0.839  0.00  0.00    -0.006 C 
BRANCH  21  22
ATOM     22  C   UNL     1     -31.880  21.896  -0.743  0.00  0.00    +0.025 C 
BRANCH  22  23
ATOM     23  C   UNL     1     -32.309  20.683   0.046  0.00  0.00    -0.022 C 
ATOM     24  C   UNL     1     -33.567  20.659   0.626  0.00  0.00    -0.004 C 
ATOM     25  C   UNL     1     -31.437  19.613   0.176  0.00  0.00    -0.004 C 
ATOM     26  C   UNL     1     -33.965  19.539   1.355  0.00  0.00    -0.000 C 
ATOM     27  C   UNL     1     -31.835  18.492   0.905  0.00  0.00    -0.000 C 
ATOM     28  C   UNL     1     -33.098  18.455   1.494  0.00  0.00    -0.000 C 
ENDBRANCH  22  23
ENDBRANCH  21  22
ENDBRANCH  16  21
ENDBRANCH  13  16
ENDBRANCH   3  13
BRANCH   2  29
ATOM     29  C   UNL     1     -37.186  21.639   1.737  0.00  0.00    +0.208 C 
BRANCH  29  31
ATOM     30  O   UNL     1     -39.005  23.097   2.336  0.00  0.00    -0.248 OA
ATOM     31  C   UNL     1     -38.609  21.959   2.115  0.00  0.00    +0.335 C 
BRANCH  31  32
ATOM     32  O   UNL     1     -39.408  20.869   2.190  0.00  0.00    -0.479 OA
ATOM     33  H   UNL     1     -39.787  20.514   1.410  0.00  0.00    +0.295 HD
ENDBRANCH  31  32
ENDBRANCH  29  31
ENDBRANCH   2  29
TORSDOF 10
ENDMDL
MODEL 5
REMARK VINA RESULT:      -6.8      3.759      6.221
REMARK  Name = 5463984
REMARK  10 active torsions:
REMARK  status: ('A' for Active; 'I' for Inactive)
REMARK    1  A    between atoms: N_2  and  C_29
REMARK    2  A    between atoms: C_3  and  N_13
REMARK    3  A    between atoms: N_13  and  CA_16
REMARK    4  A    between atoms: CA_16  and  C_18
REMARK    5  A    between atoms: CA_16  and  C_21
REMARK    6  A    between atoms: C_18  and  O_19
REMARK    7  A    between atoms: C_21  and  C_22
REMARK    8  A    between atoms: C_22  and  C_23
REMARK    9  A    between atoms: C_29  and  C_31
REMARK   10  A    between atoms: C_31  and  O_32
REMARK                            x       y       z     vdW  Elec       q    Type
REMARK                         _______ _______ _______ _____ _____    ______ ____
ROOT
ATOM      1  O   UNL     1     -36.034  27.155   2.400  0.00  0.00    -0.277 OA
ATOM      2  N   UNL     1     -36.275  24.953   3.115  0.00  0.00    -0.250 N 
ATOM      3  C   UNL     1     -34.144  26.166   3.518  0.00  0.00    +0.018 C 
ATOM      4  C   UNL     1     -34.102  26.364   5.029  0.00  0.00    -0.008 C 
ATOM      5  C   UNL     1     -35.129  25.527   5.781  0.00  0.00    +0.026 C 
ATOM      6  C   UNL     1     -35.573  26.167   2.978  0.00  0.00    +0.210 C 
ATOM      7  C   UNL     1     -35.268  24.128   5.238  0.00  0.00    -0.009 C 
ATOM      8  C   UNL     1     -35.872  23.880   3.984  0.00  0.00    +0.050 C 
ATOM      9  C   UNL     1     -34.866  23.048   6.043  0.00  0.00    -0.003 C 
ATOM     10  C   UNL     1     -36.110  22.546   3.606  0.00  0.00    +0.015 C 
ATOM     11  C   UNL     1     -35.081  21.734   5.633  0.00  0.00    -0.000 C 
ATOM     12  C   UNL     1     -35.709  21.484   4.420  0.00  0.00    +0.001 C 
ENDROOT
BRANCH   3  13
ATOM     13  N   UNL     1     -33.390  27.231   2.854  0.00  0.00    +0.399 N 
ATOM     14  H1  UNL     1     -33.915  27.557   2.042  0.00  0.00    -0.083 HD
ATOM     15  H2  UNL     1     -32.485  26.860   2.563  0.00  0.00    -0.083 HD
BRANCH  13  16
ATOM     16  CA  UNL     1     -33.169  28.346   3.760  0.00  0.00    +0.041 C 
BRANCH  16  18
ATOM     17  OXT UNL     1     -33.199  30.351   2.378  0.00  0.00    -0.253 OA
ATOM     18  C   UNL     1     -33.792  29.572   3.113  0.00  0.00    +0.293 C 
BRANCH  18  19
ATOM     19  O   UNL     1     -35.108  29.708   3.418  0.00  0.00    -0.482 OA
ATOM     20  H   UNL     1     -35.363  30.027   4.261  0.00  0.00    +0.295 HD
ENDBRANCH  18  19
ENDBRANCH  16  18
BRANCH  16  21
ATOM     21  C   UNL     1     -31.661  28.537   3.970  0.00  0.00    -0.006 C 
BRANCH  21  22
ATOM     22  C   UNL     1     -31.289  29.300   5.250  0.00  0.00    +0.025 C 
BRANCH  22  23
ATOM     23  C   UNL     1     -29.950  28.926   5.836  0.00  0.00    -0.022 C 
ATOM     24  C   UNL     1     -29.147  28.012   5.171  0.00  0.00    -0.004 C 
ATOM     25  C   UNL     1     -29.544  29.504   7.030  0.00  0.00    -0.004 C 
ATOM     26  C   UNL     1     -27.910  27.666   5.713  0.00  0.00    -0.000 C 
ATOM     27  C   UNL     1     -28.306  29.158   7.570  0.00  0.00    -0.000 C 
ATOM     28  C   UNL     1     -27.488  28.239   6.912  0.00  0.00    -0.000 C 
ENDBRANCH  22  23
ENDBRANCH  21  22
ENDBRANCH  16  21
ENDBRANCH  13  16
ENDBRANCH   3  13
BRANCH   2  29
ATOM     29  C   UNL     1     -37.480  24.753   2.310  0.00  0.00    +0.208 C 
BRANCH  29  31
ATOM     30  O   UNL     1     -39.555  24.200   3.396  0.00  0.00    -0.248 OA
ATOM     31  C   UNL     1     -38.748  25.060   3.063  0.00  0.00    +0.335 C 
BRANCH  31  32
ATOM     32  O   UNL     1     -38.912  26.375   3.336  0.00  0.00    -0.479 OA
ATOM     33  H   UNL     1     -39.207  26.642   4.184  0.00  0.00    +0.295 HD
ENDBRANCH  31  32
ENDBRANCH  29  31
ENDBRANCH   2  29
TORSDOF 10
ENDMDL
MODEL 6
REMARK VINA RESULT:      -6.7      3.324      5.510
REMARK  Name = 5463984
REMARK  10 active torsions:
REMARK  status: ('A' for Active; 'I' for Inactive)
REMARK    1  A    between atoms: N_2  and  C_29
REMARK    2  A    between atoms: C_3  and  N_13
REMARK    3  A    between atoms: N_13  and  CA_16
REMARK    4  A    between atoms: CA_16  and  C_18
REMARK    5  A    between atoms: CA_16  and  C_21
REMARK    6  A    between atoms: C_18  and  O_19
REMARK    7  A    between atoms: C_21  and  C_22
REMARK    8  A    between atoms: C_22  and  C_23
REMARK    9  A    between atoms: C_29  and  C_31
REMARK   10  A    between atoms: C_31  and  O_32
REMARK                            x       y       z     vdW  Elec       q    Type
REMARK                         _______ _______ _______ _____ _____    ______ ____
ROOT
ATOM      1  O   UNL     1     -36.913  21.064   2.342  0.00  0.00    -0.277 OA
ATOM      2  N   UNL     1     -38.541  22.690   1.989  0.00  0.00    -0.250 N 
ATOM      3  C   UNL     1     -36.215  23.359   2.552  0.00  0.00    +0.018 C 
ATOM      4  C   UNL     1     -35.687  24.001   1.273  0.00  0.00    -0.008 C 
ATOM      5  C   UNL     1     -36.776  24.306   0.251  0.00  0.00    +0.026 C 
ATOM      6  C   UNL     1     -37.230  22.254   2.263  0.00  0.00    +0.210 C 
ATOM      7  C   UNL     1     -38.034  24.857   0.871  0.00  0.00    -0.009 C 
ATOM      8  C   UNL     1     -38.889  24.044   1.651  0.00  0.00    +0.050 C 
ATOM      9  C   UNL     1     -38.402  26.183   0.587  0.00  0.00    -0.003 C 
ATOM     10  C   UNL     1     -40.122  24.576   2.069  0.00  0.00    +0.015 C 
ATOM     11  C   UNL     1     -39.613  26.700   1.041  0.00  0.00    -0.000 C 
ATOM     12  C   UNL     1     -40.476  25.895   1.774  0.00  0.00    +0.001 C 
ENDROOT
BRANCH   3  13
ATOM     13  N   UNL     1     -35.105  22.790   3.319  0.00  0.00    +0.399 N 
ATOM     14  H1  UNL     1     -34.223  23.086   2.900  0.00  0.00    -0.083 HD
ATOM     15  H2  UNL     1     -35.182  21.773   3.301  0.00  0.00    -0.083 HD
BRANCH  13  16
ATOM     16  CA  UNL     1     -35.152  23.239   4.701  0.00  0.00    +0.041 C 
BRANCH  16  18
ATOM     17  OXT UNL     1     -35.968  22.079   6.680  0.00  0.00    -0.253 OA
ATOM     18  C   UNL     1     -35.504  22.028   5.548  0.00  0.00    +0.293 C 
BRANCH  18  19
ATOM     19  O   UNL     1     -35.271  20.857   4.902  0.00  0.00    -0.482 OA
ATOM     20  H   UNL     1     -34.619  20.266   5.223  0.00  0.00    +0.295 HD
ENDBRANCH  18  19
ENDBRANCH  16  18
BRANCH  16  21
ATOM     21  C   UNL     1     -36.213  24.340   4.840  0.00  0.00    -0.006 C 
BRANCH  21  22
ATOM     22  C   UNL     1     -35.665  25.695   5.312  0.00  0.00    +0.025 C 
BRANCH  22  23
ATOM     23  C   UNL     1     -34.988  26.507   4.235  0.00  0.00    -0.022 C 
ATOM     24  C   UNL     1     -35.738  26.987   3.172  0.00  0.00    -0.004 C 
ATOM     25  C   UNL     1     -33.628  26.760   4.327  0.00  0.00    -0.004 C 
ATOM     26  C   UNL     1     -35.114  27.737   2.177  0.00  0.00    -0.000 C 
ATOM     27  C   UNL     1     -33.004  27.512   3.332  0.00  0.00    -0.000 C 
ATOM     28  C   UNL     1     -33.746  28.001   2.256  0.00  0.00    -0.000 C 
ENDBRANCH  22  23
ENDBRANCH  21  22
ENDBRANCH  16  21
ENDBRANCH  13  16
ENDBRANCH   3  13
BRANCH   2  29
ATOM     29  C   UNL     1     -39.628  21.715   2.074  0.00  0.00    +0.208 C 
BRANCH  29  31
ATOM     30  O   UNL     1     -40.978  21.524   0.090  0.00  0.00    -0.248 OA
ATOM     31  C   UNL     1     -40.008  21.141   0.734  0.00  0.00    +0.335 C 
BRANCH  31  32
ATOM     32  O   UNL     1     -39.178  20.160   0.310  0.00  0.00    -0.479 OA
ATOM     33  H   UNL     1     -38.506  20.355  -0.314  0.00  0.00    +0.295 HD
ENDBRANCH  31  32
ENDBRANCH  29  31
ENDBRANCH   2  29
TORSDOF 10
ENDMDL
MODEL 7
REMARK VINA RESULT:      -6.7      2.483      6.738
REMARK  Name = 5463984
REMARK  10 active torsions:
REMARK  status: ('A' for Active; 'I' for Inactive)
REMARK    1  A    between atoms: N_2  and  C_29
REMARK    2  A    between atoms: C_3  and  N_13
REMARK    3  A    between atoms: N_13  and  CA_16
REMARK    4  A    between atoms: CA_16  and  C_18
REMARK    5  A    between atoms: CA_16  and  C_21
REMARK    6  A    between atoms: C_18  and  O_19
REMARK    7  A    between atoms: C_21  and  C_22
REMARK    8  A    between atoms: C_22  and  C_23
REMARK    9  A    between atoms: C_29  and  C_31
REMARK   10  A    between atoms: C_31  and  O_32
REMARK                            x       y       z     vdW  Elec       q    Type
REMARK                         _______ _______ _______ _____ _____    ______ ____
ROOT
ATOM      1  O   UNL     1     -37.674  23.479   0.099  0.00  0.00    -0.277 OA
ATOM      2  N   UNL     1     -37.110  24.166   2.251  0.00  0.00    -0.250 N 
ATOM      3  C   UNL     1     -35.545  22.741   0.948  0.00  0.00    +0.018 C 
ATOM      4  C   UNL     1     -34.366  23.658   0.641  0.00  0.00    -0.008 C 
ATOM      5  C   UNL     1     -34.371  24.947   1.453  0.00  0.00    +0.026 C 
ATOM      6  C   UNL     1     -36.864  23.508   1.029  0.00  0.00    +0.210 C 
ATOM      7  C   UNL     1     -34.774  24.742   2.891  0.00  0.00    -0.009 C 
ATOM      8  C   UNL     1     -36.105  24.424   3.246  0.00  0.00    +0.050 C 
ATOM      9  C   UNL     1     -33.818  24.962   3.898  0.00  0.00    -0.003 C 
ATOM     10  C   UNL     1     -36.447  24.400   4.611  0.00  0.00    +0.015 C 
ATOM     11  C   UNL     1     -34.172  24.898   5.243  0.00  0.00    -0.000 C 
ATOM     12  C   UNL     1     -35.487  24.625   5.599  0.00  0.00    +0.001 C 
ENDROOT
BRANCH   3  13
ATOM     13  N   UNL     1     -35.661  21.714  -0.090  0.00  0.00    +0.399 N 
ATOM     14  H1  UNL     1     -34.895  21.823  -0.755  0.00  0.00    -0.083 HD
ATOM     15  H2  UNL     1     -36.558  21.826  -0.563  0.00  0.00    -0.083 HD
BRANCH  13  16
ATOM     16  CA  UNL     1     -35.602  20.384   0.494  0.00  0.00    +0.041 C 
BRANCH  16  18
ATOM     17  OXT UNL     1     -38.027  20.211   0.626  0.00  0.00    -0.253 OA
ATOM     18  C   UNL     1     -36.936  20.141   1.177  0.00  0.00    +0.293 C 
BRANCH  18  19
ATOM     19  O   UNL     1     -36.796  19.805   2.486  0.00  0.00    -0.482 OA
ATOM     20  H   UNL     1     -36.887  18.912   2.752  0.00  0.00    +0.295 HD
ENDBRANCH  18  19
ENDBRANCH  16  18
BRANCH  16  21
ATOM     21  C   UNL     1     -34.445  20.324   1.500  0.00  0.00    -0.006 C 
BRANCH  21  22
ATOM     22  C   UNL     1     -33.590  19.051   1.411  0.00  0.00    +0.025 C 
BRANCH  22  23
ATOM     23  C   UNL     1     -32.244  19.245   0.757  0.00  0.00    -0.022 C 
ATOM     24  C   UNL     1     -32.007  20.390   0.012  0.00  0.00    -0.004 C 
ATOM     25  C   UNL     1     -31.266  18.275   0.913  0.00  0.00    -0.004 C 
ATOM     26  C   UNL     1     -30.764  20.570  -0.592  0.00  0.00    -0.000 C 
ATOM     27  C   UNL     1     -30.021  18.455   0.309  0.00  0.00    -0.000 C 
ATOM     28  C   UNL     1     -29.770  19.603  -0.443  0.00  0.00    -0.000 C 
ENDBRANCH  22  23
ENDBRANCH  21  22
ENDBRANCH  16  21
ENDBRANCH  13  16
ENDBRANCH   3  13
BRANCH   2  29
ATOM     29  C   UNL     1     -38.477  24.595   2.544  0.00  0.00    +0.208 C 
BRANCH  29  31
ATOM     30  O   UNL     1     -38.040  26.825   1.753  0.00  0.00    -0.248 OA
ATOM     31  C   UNL     1     -38.637  26.093   2.533  0.00  0.00    +0.335 C 
BRANCH  31  32
ATOM     32  O   UNL     1     -39.502  26.553   3.467  0.00  0.00    -0.479 OA
ATOM     33  H   UNL     1     -40.230  26.025   3.729  0.00  0.00    +0.295 HD
ENDBRANCH  31  32
ENDBRANCH  29  31
ENDBRANCH   2  29
TORSDOF 10
ENDMDL
MODEL 8
REMARK VINA RESULT:      -6.7      2.781      7.028
REMARK  Name = 5463984
REMARK  10 active torsions:
REMARK  status: ('A' for Active; 'I' for Inactive)
REMARK    1  A    between atoms: N_2  and  C_29
REMARK    2  A    between atoms: C_3  and  N_13
REMARK    3  A    between atoms: N_13  and  CA_16
REMARK    4  A    between atoms: CA_16  and  C_18
REMARK    5  A    between atoms: CA_16  and  C_21
REMARK    6  A    between atoms: C_18  and  O_19
REMARK    7  A    between atoms: C_21  and  C_22
REMARK    8  A    between atoms: C_22  and  C_23
REMARK    9  A    between atoms: C_29  and  C_31
REMARK   10  A    between atoms: C_31  and  O_32
REMARK                            x       y       z     vdW  Elec       q    Type
REMARK                         _______ _______ _______ _____ _____    ______ ____
ROOT
ATOM      1  O   UNL     1     -38.340  22.291   1.592  0.00  0.00    -0.277 OA
ATOM      2  N   UNL     1     -37.437  23.820   3.098  0.00  0.00    -0.250 N 
ATOM      3  C   UNL     1     -36.093  21.869   2.347  0.00  0.00    +0.018 C 
ATOM      4  C   UNL     1     -34.990  22.479   1.488  0.00  0.00    -0.008 C 
ATOM      5  C   UNL     1     -34.875  23.992   1.630  0.00  0.00    +0.026 C 
ATOM      6  C   UNL     1     -37.388  22.676   2.277  0.00  0.00    +0.210 C 
ATOM      7  C   UNL     1     -35.033  24.469   3.051  0.00  0.00    -0.009 C 
ATOM      8  C   UNL     1     -36.284  24.427   3.708  0.00  0.00    +0.050 C 
ATOM      9  C   UNL     1     -33.928  25.050   3.695  0.00  0.00    -0.003 C 
ATOM     10  C   UNL     1     -36.398  25.029   4.974  0.00  0.00    +0.015 C 
ATOM     11  C   UNL     1     -34.055  25.609   4.964  0.00  0.00    -0.000 C 
ATOM     12  C   UNL     1     -35.290  25.606   5.599  0.00  0.00    +0.001 C 
ENDROOT
BRANCH   3  13
ATOM     13  N   UNL     1     -36.367  20.500   1.907  0.00  0.00    +0.399 N 
ATOM     14  H1  UNL     1     -37.377  20.352   1.882  0.00  0.00    -0.083 HD
ATOM     15  H2  UNL     1     -35.932  19.851   2.564  0.00  0.00    -0.083 HD
BRANCH  13  16
ATOM     16  CA  UNL     1     -35.816  20.265   0.583  0.00  0.00    +0.041 C 
BRANCH  16  18
ATOM     17  OXT UNL     1     -36.972  20.241  -1.559  0.00  0.00    -0.253 OA
ATOM     18  C   UNL     1     -36.991  20.039  -0.352  0.00  0.00    +0.293 C 
BRANCH  18  19
ATOM     19  O   UNL     1     -38.084  19.557   0.294  0.00  0.00    -0.482 OA
ATOM     20  H   UNL     1     -37.980  19.014   1.050  0.00  0.00    +0.295 HD
ENDBRANCH  18  19
ENDBRANCH  16  18
BRANCH  16  21
ATOM     21  C   UNL     1     -34.899  19.034   0.627  0.00  0.00    -0.006 C 
BRANCH  21  22
ATOM     22  C   UNL     1     -33.705  19.164   1.585  0.00  0.00    +0.025 C 
BRANCH  22  23
ATOM     23  C   UNL     1     -32.357  19.182   0.906  0.00  0.00    -0.022 C 
ATOM     24  C   UNL     1     -32.000  20.273   0.130  0.00  0.00    -0.004 C 
ATOM     25  C   UNL     1     -31.499  18.106   1.072  0.00  0.00    -0.004 C 
ATOM     26  C   UNL     1     -30.754  20.289  -0.497  0.00  0.00    -0.000 C 
ATOM     27  C   UNL     1     -30.253  18.122   0.446  0.00  0.00    -0.000 C 
ATOM     28  C   UNL     1     -29.880  19.214  -0.339  0.00  0.00    -0.000 C 
ENDBRANCH  22  23
ENDBRANCH  21  22
ENDBRANCH  16  21
ENDBRANCH  13  16
ENDBRANCH   3  13
BRANCH   2  29
ATOM     29  C   UNL     1     -38.742  24.421   3.373  0.00  0.00    +0.208 C 
BRANCH  29  31
ATOM     30  O   UNL     1     -38.565  25.921   1.499  0.00  0.00    -0.248 OA
ATOM     31  C   UNL     1     -38.954  25.722   2.644  0.00  0.00    +0.335 C 
BRANCH  31  32
ATOM     32  O   UNL     1     -39.614  26.651   3.374  0.00  0.00    -0.479 OA
ATOM     33  H   UNL     1     -40.317  27.135   2.988  0.00  0.00    +0.295 HD
ENDBRANCH  31  32
ENDBRANCH  29  31
ENDBRANCH   2  29
TORSDOF 10
ENDMDL
MODEL 9
REMARK VINA RESULT:      -6.7      2.745      7.055
REMARK  Name = 5463984
REMARK  10 active torsions:
REMARK  status: ('A' for Active; 'I' for Inactive)
REMARK    1  A    between atoms: N_2  and  C_29
REMARK    2  A    between atoms: C_3  and  N_13
REMARK    3  A    between atoms: N_13  and  CA_16
REMARK    4  A    between atoms: CA_16  and  C_18
REMARK    5  A    between atoms: CA_16  and  C_21
REMARK    6  A    between atoms: C_18  and  O_19
REMARK    7  A    between atoms: C_21  and  C_22
REMARK    8  A    between atoms: C_22  and  C_23
REMARK    9  A    between atoms: C_29  and  C_31
REMARK   10  A    between atoms: C_31  and  O_32
REMARK                            x       y       z     vdW  Elec       q    Type
REMARK                         _______ _______ _______ _____ _____    ______ ____
ROOT
ATOM      1  O   UNL     1     -36.400  23.286   5.294  0.00  0.00    -0.277 OA
ATOM      2  N   UNL     1     -36.164  25.351   4.245  0.00  0.00    -0.250 N 
ATOM      3  C   UNL     1     -36.868  23.362   2.933  0.00  0.00    +0.018 C 
ATOM      4  C   UNL     1     -38.320  23.647   2.563  0.00  0.00    -0.008 C 
ATOM      5  C   UNL     1     -38.737  25.093   2.808  0.00  0.00    +0.026 C 
ATOM      6  C   UNL     1     -36.485  23.980   4.276  0.00  0.00    +0.210 C 
ATOM      7  C   UNL     1     -37.679  26.091   2.412  0.00  0.00    -0.009 C 
ATOM      8  C   UNL     1     -36.483  26.231   3.153  0.00  0.00    +0.050 C 
ATOM      9  C   UNL     1     -37.937  26.957   1.336  0.00  0.00    -0.003 C 
ATOM     10  C   UNL     1     -35.610  27.284   2.824  0.00  0.00    +0.015 C 
ATOM     11  C   UNL     1     -37.042  27.972   1.006  0.00  0.00    -0.000 C 
ATOM     12  C   UNL     1     -35.883  28.140   1.754  0.00  0.00    +0.001 C 
ENDROOT
BRANCH   3  13
ATOM     13  N   UNL     1     -36.646  21.916   2.999  0.00  0.00    +0.399 N 
ATOM     14  H1  UNL     1     -37.520  21.455   3.258  0.00  0.00    -0.083 HD
ATOM     15  H2  UNL     1     -35.927  21.726   3.697  0.00  0.00    -0.083 HD
BRANCH  13  16
ATOM     16  CA  UNL     1     -36.198  21.405   1.715  0.00  0.00    +0.041 C 
BRANCH  16  18
ATOM     17  OXT UNL     1     -38.281  20.661   0.697  0.00  0.00    -0.253 OA
ATOM     18  C   UNL     1     -37.229  20.387   1.259  0.00  0.00    +0.293 C 
BRANCH  18  19
ATOM     19  O   UNL     1     -36.849  19.109   1.521  0.00  0.00    -0.482 OA
ATOM     20  H   UNL     1     -37.465  18.501   1.877  0.00  0.00    +0.295 HD
ENDBRANCH  18  19
ENDBRANCH  16  18
BRANCH  16  21
ATOM     21  C   UNL     1     -34.816  20.758   1.881  0.00  0.00    -0.006 C 
BRANCH  21  22
ATOM     22  C   UNL     1     -33.921  20.841   0.636  0.00  0.00    +0.025 C 
BRANCH  22  23
ATOM     23  C   UNL     1     -32.762  19.875   0.632  0.00  0.00    -0.022 C 
ATOM     24  C   UNL     1     -32.874  18.674   1.316  0.00  0.00    -0.004 C 
ATOM     25  C   UNL     1     -31.604  20.205  -0.055  0.00  0.00    -0.004 C 
ATOM     26  C   UNL     1     -31.803  17.781   1.313  0.00  0.00    -0.000 C 
ATOM     27  C   UNL     1     -30.533  19.311  -0.059  0.00  0.00    -0.000 C 
ATOM     28  C   UNL     1     -30.632  18.100   0.625  0.00  0.00    -0.000 C 
ENDBRANCH  22  23
ENDBRANCH  21  22
ENDBRANCH  16  21
ENDBRANCH  13  16
ENDBRANCH   3  13
BRANCH   2  29
ATOM     29  C   UNL     1     -35.440  25.920   5.381  0.00  0.00    +0.208 C 
BRANCH  29  31
ATOM     30  O   UNL     1     -33.381  25.010   4.529  0.00  0.00    -0.248 OA
ATOM     31  C   UNL     1     -33.944  25.854   5.217  0.00  0.00    +0.335 C 
BRANCH  31  32
ATOM     32  O   UNL     1     -33.281  26.814   5.902  0.00  0.00    -0.479 OA
ATOM     33  H   UNL     1     -32.441  27.104   5.604  0.00  0.00    +0.295 HD
ENDBRANCH  31  32
ENDBRANCH  29  31
ENDBRANCH   2  29
TORSDOF 10
ENDMDL
