MODEL 1
REMARK VINA RESULT:      -6.3      0.000      0.000
REMARK  Name = 197093
REMARK  10 active torsions:
REMARK  status: ('A' for Active; 'I' for Inactive)
REMARK    1  A    between atoms: C_3  and  O_21
REMARK    2  A    between atoms: C_4  and  C_27
REMARK    3  A    between atoms: C_19  and  O_23
REMARK    4  A    between atoms: C_20  and  O_25
REMARK    5  A    between atoms: C_27  and  C_29
REMARK    6  A    between atoms: C_29  and  O_30
REMARK    7  A    between atoms: C_29  and  C_32
REMARK    8  A    between atoms: C_32  and  C_33
REMARK    9  A    between atoms: C_33  and  C_34
REMARK   10  A    between atoms: C_34  and  O_37
REMARK                            x       y       z     vdW  Elec       q    Type
REMARK                         _______ _______ _______ _____ _____    ______ ____
ROOT
ATOM      1  O   UNL     1     -36.551  18.811  -3.546  0.00  0.00    -0.291 OA
ATOM      2  C   UNL     1     -35.552  21.186   1.801  0.00  0.00    +0.026 C 
ATOM      3  C   UNL     1     -36.586  20.299   1.059  0.00  0.00    +0.103 C 
ATOM      4  C   UNL     1     -36.441  21.793   2.916  0.00  0.00    +0.005 C 
ATOM      5  C   UNL     1     -34.698  18.789   0.200  0.00  0.00    +0.021 C 
ATOM      6  C   UNL     1     -33.955  18.247  -1.084  0.00  0.00    +0.013 C 
ATOM      7  C   UNL     1     -35.966  19.592  -0.127  0.00  0.00    -0.018 C 
ATOM      8  C   UNL     1     -34.421  20.286   2.326  0.00  0.00    +0.003 C 
ATOM      9  C   UNL     1     -37.781  21.253   0.903  0.00  0.00    +0.031 C 
ATOM     10  C   UNL     1     -33.734  19.536   1.174  0.00  0.00    +0.004 C 
ATOM     11  C   UNL     1     -37.779  22.089   2.201  0.00  0.00    +0.003 C 
ATOM     12  C   UNL     1     -34.988  17.692  -2.103  0.00  0.00    +0.065 C 
ATOM     13  C   UNL     1     -34.957  22.304   0.901  0.00  0.00    +0.003 C 
ATOM     14  C   UNL     1     -32.954  17.110  -0.728  0.00  0.00    +0.032 C 
ATOM     15  C   UNL     1     -36.548  19.597  -1.336  0.00  0.00    +0.031 C 
ATOM     16  C   UNL     1     -35.666  16.388  -1.644  0.00  0.00    +0.039 C 
ATOM     17  C   UNL     1     -33.139  19.365  -1.786  0.00  0.00    +0.001 C 
ATOM     18  C   UNL     1     -36.050  18.727  -2.426  0.00  0.00    +0.172 C 
ATOM     19  C   UNL     1     -33.633  15.813  -0.275  0.00  0.00    +0.137 C 
ATOM     20  C   UNL     1     -34.641  15.308  -1.307  0.00  0.00    +0.138 C 
ENDROOT
BRANCH   3  21
ATOM     21  O   UNL     1     -37.041  19.250   1.944  0.00  0.00    -0.383 OA
ATOM     22  H   UNL     1     -37.936  18.979   1.691  0.00  0.00    +0.211 HD
ENDBRANCH   3  21
BRANCH  19  23
ATOM     23  O   UNL     1     -32.645  14.806  -0.059  0.00  0.00    -0.382 OA
ATOM     24  H   UNL     1     -32.849  14.031  -0.604  0.00  0.00    +0.210 HD
ENDBRANCH  19  23
BRANCH  20  25
ATOM     25  O   UNL     1     -33.947  14.931  -2.498  0.00  0.00    -0.382 OA
ATOM     26  H   UNL     1     -33.516  14.072  -2.363  0.00  0.00    +0.210 HD
ENDBRANCH  20  25
BRANCH   4  27
ATOM     27  C   UNL     1     -35.882  23.006   3.648  0.00  0.00    +0.027 C 
ATOM     28  C   UNL     1     -35.701  22.670   5.136  0.00  0.00    +0.002 C 
BRANCH  27  29
ATOM     29  C   UNL     1     -36.751  24.280   3.480  0.00  0.00    +0.111 C 
BRANCH  29  30
ATOM     30  O   UNL     1     -37.124  24.796   4.760  0.00  0.00    -0.384 OA
ATOM     31  H   UNL     1     -36.344  25.171   5.197  0.00  0.00    +0.210 HD
ENDBRANCH  29  30
BRANCH  29  32
ATOM     32  C   UNL     1     -36.077  25.435   2.720  0.00  0.00    +0.032 C 
BRANCH  32  33
ATOM     33  C   UNL     1     -34.597  25.618   3.064  0.00  0.00    +0.029 C 
BRANCH  33  34
ATOM     34  C   UNL     1     -34.294  26.656   4.165  0.00  0.00    +0.089 C 
ATOM     35  C   UNL     1     -33.174  27.616   3.759  0.00  0.00    +0.029 C 
ATOM     36  C   UNL     1     -33.979  26.000   5.511  0.00  0.00    +0.029 C 
BRANCH  34  37
ATOM     37  O   UNL     1     -35.491  27.426   4.329  0.00  0.00    -0.387 OA
ATOM     38  H   UNL     1     -36.088  26.970   4.943  0.00  0.00    +0.210 HD
ENDBRANCH  34  37
ENDBRANCH  33  34
ENDBRANCH  32  33
ENDBRANCH  29  32
ENDBRANCH  27  29
ENDBRANCH   4  27
TORSDOF 10
ENDMDL
MODEL 2
REMARK VINA RESULT:      -6.2      1.460      1.744
REMARK  Name = 197093
REMARK  10 active torsions:
REMARK  status: ('A' for Active; 'I' for Inactive)
REMARK    1  A    between atoms: C_3  and  O_21
REMARK    2  A    between atoms: C_4  and  C_27
REMARK    3  A    between atoms: C_19  and  O_23
REMARK    4  A    between atoms: C_20  and  O_25
REMARK    5  A    between atoms: C_27  and  C_29
REMARK    6  A    between atoms: C_29  and  O_30
REMARK    7  A    between atoms: C_29  and  C_32
REMARK    8  A    between atoms: C_32  and  C_33
REMARK    9  A    between atoms: C_33  and  C_34
REMARK   10  A    between atoms: C_34  and  O_37
REMARK                            x       y       z     vdW  Elec       q    Type
REMARK                         _______ _______ _______ _____ _____    ______ ____
ROOT
ATOM      1  O   UNL     1     -37.575  20.178  -3.225  0.00  0.00    -0.291 OA
ATOM      2  C   UNL     1     -36.133  22.033   2.226  0.00  0.00    +0.026 C 
ATOM      3  C   UNL     1     -37.359  21.535   1.416  0.00  0.00    +0.103 C 
ATOM      4  C   UNL     1     -36.836  22.878   3.319  0.00  0.00    +0.005 C 
ATOM      5  C   UNL     1     -36.013  19.511   0.594  0.00  0.00    +0.021 C 
ATOM      6  C   UNL     1     -35.420  18.777  -0.673  0.00  0.00    +0.013 C 
ATOM      7  C   UNL     1     -36.940  20.683   0.237  0.00  0.00    -0.018 C 
ATOM      8  C   UNL     1     -35.378  20.810   2.771  0.00  0.00    +0.003 C 
ATOM      9  C   UNL     1     -38.177  22.824   1.237  0.00  0.00    +0.031 C 
ATOM     10  C   UNL     1     -34.910  19.896   1.629  0.00  0.00    +0.004 C 
ATOM     11  C   UNL     1     -37.972  23.597   2.558  0.00  0.00    +0.003 C 
ATOM     12  C   UNL     1     -36.525  18.597  -1.750  0.00  0.00    +0.065 C 
ATOM     13  C   UNL     1     -35.169  22.913   1.384  0.00  0.00    +0.003 C 
ATOM     14  C   UNL     1     -34.855  17.374  -0.308  0.00  0.00    +0.032 C 
ATOM     15  C   UNL     1     -37.429  20.891  -0.995  0.00  0.00    +0.031 C 
ATOM     16  C   UNL     1     -37.606  17.574  -1.358  0.00  0.00    +0.039 C 
ATOM     17  C   UNL     1     -34.255  19.584  -1.307  0.00  0.00    +0.001 C 
ATOM     18  C   UNL     1     -37.182  19.922  -2.087  0.00  0.00    +0.172 C 
ATOM     19  C   UNL     1     -35.934  16.357   0.079  0.00  0.00    +0.137 C 
ATOM     20  C   UNL     1     -36.998  16.216  -1.009  0.00  0.00    +0.138 C 
ENDROOT
BRANCH   3  21
ATOM     21  O   UNL     1     -38.169  20.675   2.249  0.00  0.00    -0.383 OA
ATOM     22  H   UNL     1     -38.990  21.133   2.485  0.00  0.00    +0.211 HD
ENDBRANCH   3  21
BRANCH  19  23
ATOM     23  O   UNL     1     -35.332  15.084   0.307  0.00  0.00    -0.382 OA
ATOM     24  H   UNL     1     -34.529  15.005  -0.231  0.00  0.00    +0.210 HD
ENDBRANCH  19  23
BRANCH  20  25
ATOM     25  O   UNL     1     -36.404  15.653  -2.180  0.00  0.00    -0.382 OA
ATOM     26  H   UNL     1     -37.079  15.555  -2.870  0.00  0.00    +0.210 HD
ENDBRANCH  20  25
BRANCH   4  27
ATOM     27  C   UNL     1     -35.955  23.838   4.109  0.00  0.00    +0.027 C 
ATOM     28  C   UNL     1     -35.744  23.291   5.529  0.00  0.00    +0.002 C 
BRANCH  27  29
ATOM     29  C   UNL     1     -36.513  25.284   4.161  0.00  0.00    +0.111 C 
BRANCH  29  30
ATOM     30  O   UNL     1     -36.368  25.822   5.477  0.00  0.00    -0.384 OA
ATOM     31  H   UNL     1     -35.808  26.613   5.442  0.00  0.00    +0.210 HD
ENDBRANCH  29  30
BRANCH  29  32
ATOM     32  C   UNL     1     -35.838  26.279   3.201  0.00  0.00    +0.032 C 
BRANCH  32  33
ATOM     33  C   UNL     1     -34.848  27.222   3.888  0.00  0.00    +0.029 C 
BRANCH  33  34
ATOM     34  C   UNL     1     -33.389  26.726   3.949  0.00  0.00    +0.089 C 
ATOM     35  C   UNL     1     -32.390  27.882   4.036  0.00  0.00    +0.029 C 
ATOM     36  C   UNL     1     -33.041  25.800   2.781  0.00  0.00    +0.029 C 
BRANCH  34  37
ATOM     37  O   UNL     1     -33.276  25.960   5.156  0.00  0.00    -0.387 OA
ATOM     38  H   UNL     1     -32.629  26.378   5.745  0.00  0.00    +0.210 HD
ENDBRANCH  34  37
ENDBRANCH  33  34
ENDBRANCH  32  33
ENDBRANCH  29  32
ENDBRANCH  27  29
ENDBRANCH   4  27
TORSDOF 10
ENDMDL
MODEL 3
REMARK VINA RESULT:      -5.9      1.999      3.113
REMARK  Name = 197093
REMARK  10 active torsions:
REMARK  status: ('A' for Active; 'I' for Inactive)
REMARK    1  A    between atoms: C_3  and  O_21
REMARK    2  A    between atoms: C_4  and  C_27
REMARK    3  A    between atoms: C_19  and  O_23
REMARK    4  A    between atoms: C_20  and  O_25
REMARK    5  A    between atoms: C_27  and  C_29
REMARK    6  A    between atoms: C_29  and  O_30
REMARK    7  A    between atoms: C_29  and  C_32
REMARK    8  A    between atoms: C_32  and  C_33
REMARK    9  A    between atoms: C_33  and  C_34
REMARK   10  A    between atoms: C_34  and  O_37
REMARK                            x       y       z     vdW  Elec       q    Type
REMARK                         _______ _______ _______ _____ _____    ______ ____
ROOT
ATOM      1  O   UNL     1     -30.619  20.616  -0.488  0.00  0.00    -0.291 OA
ATOM      2  C   UNL     1     -35.919  22.217   1.652  0.00  0.00    +0.026 C 
ATOM      3  C   UNL     1     -34.992  22.473   0.434  0.00  0.00    +0.103 C 
ATOM      4  C   UNL     1     -36.749  23.527   1.662  0.00  0.00    +0.005 C 
ATOM      5  C   UNL     1     -34.702  19.945   0.104  0.00  0.00    +0.021 C 
ATOM      6  C   UNL     1     -33.669  18.750   0.092  0.00  0.00    +0.013 C 
ATOM      7  C   UNL     1     -34.032  21.324   0.212  0.00  0.00    -0.018 C 
ATOM      8  C   UNL     1     -36.751  20.953   1.376  0.00  0.00    +0.003 C 
ATOM      9  C   UNL     1     -34.498  23.905   0.696  0.00  0.00    +0.031 C 
ATOM     10  C   UNL     1     -35.843  19.735   1.147  0.00  0.00    +0.004 C 
ATOM     11  C   UNL     1     -35.713  24.623   1.324  0.00  0.00    +0.003 C 
ATOM     12  C   UNL     1     -32.457  19.102  -0.814  0.00  0.00    +0.065 C 
ATOM     13  C   UNL     1     -35.136  22.050   2.983  0.00  0.00    +0.003 C 
ATOM     14  C   UNL     1     -34.318  17.439  -0.439  0.00  0.00    +0.032 C 
ATOM     15  C   UNL     1     -32.719  21.525   0.027  0.00  0.00    +0.031 C 
ATOM     16  C   UNL     1     -32.801  19.142  -2.314  0.00  0.00    +0.039 C 
ATOM     17  C   UNL     1     -33.133  18.445   1.517  0.00  0.00    +0.001 C 
ATOM     18  C   UNL     1     -31.831  20.422  -0.404  0.00  0.00    +0.172 C 
ATOM     19  C   UNL     1     -34.656  17.482  -1.933  0.00  0.00    +0.137 C 
ATOM     20  C   UNL     1     -33.435  17.834  -2.783  0.00  0.00    +0.138 C 
ENDROOT
BRANCH   3  21
ATOM     21  O   UNL     1     -35.790  22.552  -0.769  0.00  0.00    -0.383 OA
ATOM     22  H   UNL     1     -36.598  23.057  -0.588  0.00  0.00    +0.211 HD
ENDBRANCH   3  21
BRANCH  19  23
ATOM     23  O   UNL     1     -35.160  16.213  -2.346  0.00  0.00    -0.382 OA
ATOM     24  H   UNL     1     -36.128  16.217  -2.293  0.00  0.00    +0.210 HD
ENDBRANCH  19  23
BRANCH  20  25
ATOM     25  O   UNL     1     -32.472  16.783  -2.682  0.00  0.00    -0.382 OA
ATOM     26  H   UNL     1     -32.603  16.303  -1.849  0.00  0.00    +0.210 HD
ENDBRANCH  20  25
BRANCH   4  27
ATOM     27  C   UNL     1     -37.532  23.826   2.933  0.00  0.00    +0.027 C 
ATOM     28  C   UNL     1     -39.025  23.961   2.596  0.00  0.00    +0.002 C 
BRANCH  27  29
ATOM     29  C   UNL     1     -37.028  25.086   3.684  0.00  0.00    +0.111 C 
BRANCH  29  30
ATOM     30  O   UNL     1     -38.122  25.960   3.974  0.00  0.00    -0.384 OA
ATOM     31  H   UNL     1     -38.917  25.644   3.516  0.00  0.00    +0.210 HD
ENDBRANCH  29  30
BRANCH  29  32
ATOM     32  C   UNL     1     -36.319  24.809   5.021  0.00  0.00    +0.032 C 
BRANCH  32  33
ATOM     33  C   UNL     1     -35.596  26.028   5.598  0.00  0.00    +0.029 C 
BRANCH  33  34
ATOM     34  C   UNL     1     -34.113  26.173   5.197  0.00  0.00    +0.089 C 
ATOM     35  C   UNL     1     -33.253  26.696   6.350  0.00  0.00    +0.029 C 
ATOM     36  C   UNL     1     -33.930  27.042   3.951  0.00  0.00    +0.029 C 
BRANCH  34  37
ATOM     37  O   UNL     1     -33.655  24.853   4.875  0.00  0.00    -0.387 OA
ATOM     38  H   UNL     1     -33.788  24.686   3.929  0.00  0.00    +0.210 HD
ENDBRANCH  34  37
ENDBRANCH  33  34
ENDBRANCH  32  33
ENDBRANCH  29  32
ENDBRANCH  27  29
ENDBRANCH   4  27
TORSDOF 10
ENDMDL
MODEL 4
REMARK VINA RESULT:      -5.8      3.404      7.121
REMARK  Name = 197093
REMARK  10 active torsions:
REMARK  status: ('A' for Active; 'I' for Inactive)
REMARK    1  A    between atoms: C_3  and  O_21
REMARK    2  A    between atoms: C_4  and  C_27
REMARK    3  A    between atoms: C_19  and  O_23
REMARK    4  A    between atoms: C_20  and  O_25
REMARK    5  A    between atoms: C_27  and  C_29
REMARK    6  A    between atoms: C_29  and  O_30
REMARK    7  A    between atoms: C_29  and  C_32
REMARK    8  A    between atoms: C_32  and  C_33
REMARK    9  A    between atoms: C_33  and  C_34
REMARK   10  A    between atoms: C_34  and  O_37
REMARK                            x       y       z     vdW  Elec       q    Type
REMARK                         _______ _______ _______ _____ _____    ______ ____
ROOT
ATOM      1  O   UNL     1     -35.949  22.843   5.989  0.00  0.00    -0.291 OA
ATOM      2  C   UNL     1     -34.688  26.975   1.919  0.00  0.00    +0.026 C 
ATOM      3  C   UNL     1     -33.988  25.893   2.784  0.00  0.00    +0.103 C 
ATOM      4  C   UNL     1     -33.511  27.955   1.678  0.00  0.00    +0.005 C 
ATOM      5  C   UNL     1     -35.713  24.151   2.026  0.00  0.00    +0.021 C 
ATOM      6  C   UNL     1     -36.860  23.172   2.498  0.00  0.00    +0.013 C 
ATOM      7  C   UNL     1     -34.950  24.798   3.193  0.00  0.00    -0.018 C 
ATOM      8  C   UNL     1     -35.219  26.310   0.638  0.00  0.00    +0.003 C 
ATOM      9  C   UNL     1     -33.235  26.742   3.820  0.00  0.00    +0.031 C 
ATOM     10  C   UNL     1     -36.212  25.186   0.971  0.00  0.00    +0.004 C 
ATOM     11  C   UNL     1     -32.775  27.990   3.036  0.00  0.00    +0.003 C 
ATOM     12  C   UNL     1     -36.361  22.300   3.684  0.00  0.00    +0.065 C 
ATOM     13  C   UNL     1     -35.852  27.684   2.663  0.00  0.00    +0.003 C 
ATOM     14  C   UNL     1     -37.314  22.227   1.349  0.00  0.00    +0.032 C 
ATOM     15  C   UNL     1     -35.040  24.374   4.462  0.00  0.00    +0.031 C 
ATOM     16  C   UNL     1     -35.302  21.259   3.280  0.00  0.00    +0.039 C 
ATOM     17  C   UNL     1     -38.117  23.951   2.969  0.00  0.00    +0.001 C 
ATOM     18  C   UNL     1     -35.818  23.163   4.808  0.00  0.00    +0.172 C 
ATOM     19  C   UNL     1     -36.259  21.190   0.951  0.00  0.00    +0.137 C 
ATOM     20  C   UNL     1     -35.798  20.360   2.149  0.00  0.00    +0.138 C 
ENDROOT
BRANCH   3  21
ATOM     21  O   UNL     1     -32.964  25.240   2.000  0.00  0.00    -0.383 OA
ATOM     22  H   UNL     1     -32.092  25.559   2.277  0.00  0.00    +0.211 HD
ENDBRANCH   3  21
BRANCH  19  23
ATOM     23  O   UNL     1     -36.796  20.317  -0.041  0.00  0.00    -0.382 OA
ATOM     24  H   UNL     1     -37.137  20.841  -0.781  0.00  0.00    +0.210 HD
ENDBRANCH  19  23
BRANCH  20  25
ATOM     25  O   UNL     1     -36.890  19.570   2.623  0.00  0.00    -0.382 OA
ATOM     26  H   UNL     1     -37.715  20.072   2.532  0.00  0.00    +0.210 HD
ENDBRANCH  20  25
BRANCH   4  27
ATOM     27  C   UNL     1     -33.875  29.343   1.168  0.00  0.00    +0.027 C 
ATOM     28  C   UNL     1     -33.432  29.485  -0.297  0.00  0.00    +0.002 C 
BRANCH  27  29
ATOM     29  C   UNL     1     -33.283  30.490   2.028  0.00  0.00    +0.111 C 
BRANCH  29  30
ATOM     30  O   UNL     1     -32.171  31.088   1.358  0.00  0.00    -0.384 OA
ATOM     31  H   UNL     1     -31.402  31.091   1.948  0.00  0.00    +0.210 HD
ENDBRANCH  29  30
BRANCH  29  32
ATOM     32  C   UNL     1     -34.262  31.629   2.360  0.00  0.00    +0.032 C 
BRANCH  32  33
ATOM     33  C   UNL     1     -35.714  31.169   2.513  0.00  0.00    +0.029 C 
BRANCH  33  34
ATOM     34  C   UNL     1     -36.677  31.626   1.399  0.00  0.00    +0.089 C 
ATOM     35  C   UNL     1     -35.937  32.270   0.224  0.00  0.00    +0.029 C 
ATOM     36  C   UNL     1     -37.770  32.560   1.923  0.00  0.00    +0.029 C 
BRANCH  34  37
ATOM     37  O   UNL     1     -37.319  30.440   0.912  0.00  0.00    -0.387 OA
ATOM     38  H   UNL     1     -37.509  30.540  -0.034  0.00  0.00    +0.210 HD
ENDBRANCH  34  37
ENDBRANCH  33  34
ENDBRANCH  32  33
ENDBRANCH  29  32
ENDBRANCH  27  29
ENDBRANCH   4  27
TORSDOF 10
ENDMDL
MODEL 5
REMARK VINA RESULT:      -5.8      2.036      3.021
REMARK  Name = 197093
REMARK  10 active torsions:
REMARK  status: ('A' for Active; 'I' for Inactive)
REMARK    1  A    between atoms: C_3  and  O_21
REMARK    2  A    between atoms: C_4  and  C_27
REMARK    3  A    between atoms: C_19  and  O_23
REMARK    4  A    between atoms: C_20  and  O_25
REMARK    5  A    between atoms: C_27  and  C_29
REMARK    6  A    between atoms: C_29  and  O_30
REMARK    7  A    between atoms: C_29  and  C_32
REMARK    8  A    between atoms: C_32  and  C_33
REMARK    9  A    between atoms: C_33  and  C_34
REMARK   10  A    between atoms: C_34  and  O_37
REMARK                            x       y       z     vdW  Elec       q    Type
REMARK                         _______ _______ _______ _____ _____    ______ ____
ROOT
ATOM      1  O   UNL     1     -32.503  17.173  -4.349  0.00  0.00    -0.291 OA
ATOM      2  C   UNL     1     -34.094  19.604   0.826  0.00  0.00    +0.026 C 
ATOM      3  C   UNL     1     -34.643  18.651  -0.268  0.00  0.00    +0.103 C 
ATOM      4  C   UNL     1     -35.417  20.150   1.422  0.00  0.00    +0.005 C 
ATOM      5  C   UNL     1     -32.483  17.270  -0.171  0.00  0.00    +0.021 C 
ATOM      6  C   UNL     1     -31.221  16.779  -0.984  0.00  0.00    +0.013 C 
ATOM      7  C   UNL     1     -33.524  17.988  -1.043  0.00  0.00    -0.018 C 
ATOM      8  C   UNL     1     -33.256  18.779   1.818  0.00  0.00    +0.003 C 
ATOM      9  C   UNL     1     -35.702  19.525  -0.958  0.00  0.00    +0.031 C 
ATOM     10  C   UNL     1     -32.090  18.078   1.105  0.00  0.00    +0.004 C 
ATOM     11  C   UNL     1     -36.320  20.358   0.185  0.00  0.00    +0.003 C 
ATOM     12  C   UNL     1     -31.667  16.158  -2.337  0.00  0.00    +0.065 C 
ATOM     13  C   UNL     1     -33.232  20.759   0.246  0.00  0.00    +0.003 C 
ATOM     14  C   UNL     1     -30.412  15.710  -0.195  0.00  0.00    +0.032 C 
ATOM     15  C   UNL     1     -33.516  17.956  -2.384  0.00  0.00    +0.031 C 
ATOM     16  C   UNL     1     -32.399  14.812  -2.185  0.00  0.00    +0.039 C 
ATOM     17  C   UNL     1     -30.248  17.949  -1.289  0.00  0.00    +0.001 C 
ATOM     18  C   UNL     1     -32.539  17.122  -3.121  0.00  0.00    +0.172 C 
ATOM     19  C   UNL     1     -31.142  14.371  -0.048  0.00  0.00    +0.137 C 
ATOM     20  C   UNL     1     -31.563  13.801  -1.403  0.00  0.00    +0.138 C 
ENDROOT
BRANCH   3  21
ATOM     21  O   UNL     1     -35.376  17.573   0.357  0.00  0.00    -0.383 OA
ATOM     22  H   UNL     1     -36.327  17.713   0.230  0.00  0.00    +0.211 HD
ENDBRANCH   3  21
BRANCH  19  23
ATOM     23  O   UNL     1     -30.291  13.431   0.607  0.00  0.00    -0.382 OA
ATOM     24  H   UNL     1     -29.365  13.675   0.457  0.00  0.00    +0.210 HD
ENDBRANCH  19  23
BRANCH  20  25
ATOM     25  O   UNL     1     -30.396  13.472  -2.159  0.00  0.00    -0.382 OA
ATOM     26  H   UNL     1     -30.046  14.274  -2.578  0.00  0.00    +0.210 HD
ENDBRANCH  20  25
BRANCH   4  27
ATOM     27  C   UNL     1     -35.309  21.397   2.290  0.00  0.00    +0.027 C 
ATOM     28  C   UNL     1     -35.196  20.987   3.766  0.00  0.00    +0.002 C 
BRANCH  27  29
ATOM     29  C   UNL     1     -36.483  22.390   2.090  0.00  0.00    +0.111 C 
BRANCH  29  30
ATOM     30  O   UNL     1     -37.515  22.134   3.045  0.00  0.00    -0.384 OA
ATOM     31  H   UNL     1     -38.306  21.811   2.587  0.00  0.00    +0.210 HD
ENDBRANCH  29  30
BRANCH  29  32
ATOM     32  C   UNL     1     -36.112  23.876   2.230  0.00  0.00    +0.032 C 
BRANCH  32  33
ATOM     33  C   UNL     1     -36.724  24.550   3.460  0.00  0.00    +0.029 C 
BRANCH  33  34
ATOM     34  C   UNL     1     -35.804  24.644   4.694  0.00  0.00    +0.089 C 
ATOM     35  C   UNL     1     -36.035  25.931   5.489  0.00  0.00    +0.029 C 
ATOM     36  C   UNL     1     -34.326  24.494   4.329  0.00  0.00    +0.029 C 
BRANCH  34  37
ATOM     37  O   UNL     1     -36.155  23.540   5.540  0.00  0.00    -0.387 OA
ATOM     38  H   UNL     1     -36.906  23.063   5.153  0.00  0.00    +0.210 HD
ENDBRANCH  34  37
ENDBRANCH  33  34
ENDBRANCH  32  33
ENDBRANCH  29  32
ENDBRANCH  27  29
ENDBRANCH   4  27
TORSDOF 10
ENDMDL
MODEL 6
REMARK VINA RESULT:      -5.7      2.835      9.787
REMARK  Name = 197093
REMARK  10 active torsions:
REMARK  status: ('A' for Active; 'I' for Inactive)
REMARK    1  A    between atoms: C_3  and  O_21
REMARK    2  A    between atoms: C_4  and  C_27
REMARK    3  A    between atoms: C_19  and  O_23
REMARK    4  A    between atoms: C_20  and  O_25
REMARK    5  A    between atoms: C_27  and  C_29
REMARK    6  A    between atoms: C_29  and  O_30
REMARK    7  A    between atoms: C_29  and  C_32
REMARK    8  A    between atoms: C_32  and  C_33
REMARK    9  A    between atoms: C_33  and  C_34
REMARK   10  A    between atoms: C_34  and  O_37
REMARK                            x       y       z     vdW  Elec       q    Type
REMARK                         _______ _______ _______ _____ _____    ______ ____
ROOT
ATOM      1  O   UNL     1     -32.349  29.109   3.732  0.00  0.00    -0.291 OA
ATOM      2  C   UNL     1     -36.031  24.747   2.106  0.00  0.00    +0.026 C 
ATOM      3  C   UNL     1     -35.756  25.699   3.300  0.00  0.00    +0.103 C 
ATOM      4  C   UNL     1     -36.723  23.566   2.834  0.00  0.00    +0.005 C 
ATOM      5  C   UNL     1     -35.728  27.711   1.707  0.00  0.00    +0.021 C 
ATOM      6  C   UNL     1     -34.852  28.889   1.123  0.00  0.00    +0.013 C 
ATOM      7  C   UNL     1     -35.040  26.957   2.856  0.00  0.00    -0.018 C 
ATOM      8  C   UNL     1     -36.935  25.474   1.097  0.00  0.00    +0.003 C 
ATOM      9  C   UNL     1     -35.153  24.746   4.344  0.00  0.00    +0.031 C 
ATOM     10  C   UNL     1     -36.271  26.765   0.592  0.00  0.00    +0.004 C 
ATOM     11  C   UNL     1     -35.923  23.422   4.148  0.00  0.00    +0.003 C 
ATOM     12  C   UNL     1     -34.178  29.677   2.280  0.00  0.00    +0.065 C 
ATOM     13  C   UNL     1     -34.732  24.273   1.399  0.00  0.00    +0.003 C 
ATOM     14  C   UNL     1     -35.712  29.880   0.288  0.00  0.00    +0.032 C 
ATOM     15  C   UNL     1     -33.951  27.413   3.494  0.00  0.00    +0.031 C 
ATOM     16  C   UNL     1     -35.168  30.502   3.122  0.00  0.00    +0.039 C 
ATOM     17  C   UNL     1     -33.733  28.358   0.186  0.00  0.00    +0.001 C 
ATOM     18  C   UNL     1     -33.393  28.750   3.190  0.00  0.00    +0.172 C 
ATOM     19  C   UNL     1     -36.694  30.702   1.128  0.00  0.00    +0.137 C 
ATOM     20  C   UNL     1     -35.987  31.457   2.254  0.00  0.00    +0.138 C 
ENDROOT
BRANCH   3  21
ATOM     21  O   UNL     1     -37.013  26.143   3.859  0.00  0.00    -0.383 OA
ATOM     22  H   UNL     1     -37.623  25.393   3.918  0.00  0.00    +0.211 HD
ENDBRANCH   3  21
BRANCH  19  23
ATOM     23  O   UNL     1     -37.370  31.641   0.293  0.00  0.00    -0.382 OA
ATOM     24  H   UNL     1     -37.776  31.175  -0.454  0.00  0.00    +0.210 HD
ENDBRANCH  19  23
BRANCH  20  25
ATOM     25  O   UNL     1     -35.117  32.439   1.688  0.00  0.00    -0.382 OA
ATOM     26  H   UNL     1     -34.800  32.132   0.825  0.00  0.00    +0.210 HD
ENDBRANCH  20  25
BRANCH   4  27
ATOM     27  C   UNL     1     -36.829  22.258   2.061  0.00  0.00    +0.027 C 
ATOM     28  C   UNL     1     -38.299  21.814   2.002  0.00  0.00    +0.002 C 
BRANCH  27  29
ATOM     29  C   UNL     1     -35.942  21.126   2.643  0.00  0.00    +0.111 C 
BRANCH  29  30
ATOM     30  O   UNL     1     -36.671  19.897   2.681  0.00  0.00    -0.384 OA
ATOM     31  H   UNL     1     -36.717  19.577   3.595  0.00  0.00    +0.210 HD
ENDBRANCH  29  30
BRANCH  29  32
ATOM     32  C   UNL     1     -34.647  20.846   1.862  0.00  0.00    +0.032 C 
BRANCH  32  33
ATOM     33  C   UNL     1     -34.479  19.381   1.452  0.00  0.00    +0.029 C 
BRANCH  33  34
ATOM     34  C   UNL     1     -33.208  19.059   0.639  0.00  0.00    +0.089 C 
ATOM     35  C   UNL     1     -32.293  18.073   1.368  0.00  0.00    +0.029 C 
ATOM     36  C   UNL     1     -32.436  20.320   0.244  0.00  0.00    +0.029 C 
BRANCH  34  37
ATOM     37  O   UNL     1     -33.655  18.429  -0.569  0.00  0.00    -0.387 OA
ATOM     38  H   UNL     1     -33.871  17.501  -0.389  0.00  0.00    +0.210 HD
ENDBRANCH  34  37
ENDBRANCH  33  34
ENDBRANCH  32  33
ENDBRANCH  29  32
ENDBRANCH  27  29
ENDBRANCH   4  27
TORSDOF 10
ENDMDL
MODEL 7
REMARK VINA RESULT:      -5.6      2.110      2.747
REMARK  Name = 197093
REMARK  10 active torsions:
REMARK  status: ('A' for Active; 'I' for Inactive)
REMARK    1  A    between atoms: C_3  and  O_21
REMARK    2  A    between atoms: C_4  and  C_27
REMARK    3  A    between atoms: C_19  and  O_23
REMARK    4  A    between atoms: C_20  and  O_25
REMARK    5  A    between atoms: C_27  and  C_29
REMARK    6  A    between atoms: C_29  and  O_30
REMARK    7  A    between atoms: C_29  and  C_32
REMARK    8  A    between atoms: C_32  and  C_33
REMARK    9  A    between atoms: C_33  and  C_34
REMARK   10  A    between atoms: C_34  and  O_37
REMARK                            x       y       z     vdW  Elec       q    Type
REMARK                         _______ _______ _______ _____ _____    ______ ____
ROOT
ATOM      1  O   UNL     1     -36.279  17.905  -2.542  0.00  0.00    -0.291 OA
ATOM      2  C   UNL     1     -36.543  22.178   1.569  0.00  0.00    +0.026 C 
ATOM      3  C   UNL     1     -37.028  20.726   1.318  0.00  0.00    +0.103 C 
ATOM      4  C   UNL     1     -37.617  22.670   2.573  0.00  0.00    +0.005 C 
ATOM      5  C   UNL     1     -34.646  20.027   0.668  0.00  0.00    +0.021 C 
ATOM      6  C   UNL     1     -33.732  19.463  -0.491  0.00  0.00    +0.013 C 
ATOM      7  C   UNL     1     -36.144  20.006   0.323  0.00  0.00    -0.018 C 
ATOM      8  C   UNL     1     -35.121  22.126   2.151  0.00  0.00    +0.003 C 
ATOM      9  C   UNL     1     -38.533  20.923   1.075  0.00  0.00    +0.031 C 
ATOM     10  C   UNL     1     -34.157  21.413   1.190  0.00  0.00    +0.004 C 
ATOM     11  C   UNL     1     -38.932  22.065   2.033  0.00  0.00    +0.003 C 
ATOM     12  C   UNL     1     -34.374  18.188  -1.104  0.00  0.00    +0.065 C 
ATOM     13  C   UNL     1     -36.551  23.049   0.283  0.00  0.00    +0.003 C 
ATOM     14  C   UNL     1     -32.312  19.099   0.028  0.00  0.00    +0.032 C 
ATOM     15  C   UNL     1     -36.655  19.327  -0.716  0.00  0.00    +0.031 C 
ATOM     16  C   UNL     1     -34.350  16.972  -0.160  0.00  0.00    +0.039 C 
ATOM     17  C   UNL     1     -33.546  20.503  -1.628  0.00  0.00    +0.001 C 
ATOM     18  C   UNL     1     -35.800  18.453  -1.550  0.00  0.00    +0.172 C 
ATOM     19  C   UNL     1     -32.290  17.886   0.965  0.00  0.00    +0.137 C 
ATOM     20  C   UNL     1     -32.934  16.659   0.320  0.00  0.00    +0.138 C 
ENDROOT
BRANCH   3  21
ATOM     21  O   UNL     1     -36.929  19.968   2.546  0.00  0.00    -0.383 OA
ATOM     22  H   UNL     1     -37.531  20.343   3.207  0.00  0.00    +0.211 HD
ENDBRANCH   3  21
BRANCH  19  23
ATOM     23  O   UNL     1     -30.943  17.575   1.314  0.00  0.00    -0.382 OA
ATOM     24  H   UNL     1     -30.819  16.614   1.297  0.00  0.00    +0.210 HD
ENDBRANCH  19  23
BRANCH  20  25
ATOM     25  O   UNL     1     -32.142  16.242  -0.794  0.00  0.00    -0.382 OA
ATOM     26  H   UNL     1     -31.267  16.657  -0.742  0.00  0.00    +0.210 HD
ENDBRANCH  20  25
BRANCH   4  27
ATOM     27  C   UNL     1     -37.705  24.175   2.792  0.00  0.00    +0.027 C 
ATOM     28  C   UNL     1     -37.053  24.538   4.135  0.00  0.00    +0.002 C 
BRANCH  27  29
ATOM     29  C   UNL     1     -39.154  24.722   2.726  0.00  0.00    +0.111 C 
BRANCH  29  30
ATOM     30  O   UNL     1     -39.698  24.843   4.043  0.00  0.00    -0.384 OA
ATOM     31  H   UNL     1     -38.982  25.017   4.673  0.00  0.00    +0.210 HD
ENDBRANCH  29  30
BRANCH  29  32
ATOM     32  C   UNL     1     -39.301  26.102   2.061  0.00  0.00    +0.032 C 
BRANCH  32  33
ATOM     33  C   UNL     1     -38.721  26.169   0.647  0.00  0.00    +0.029 C 
BRANCH  33  34
ATOM     34  C   UNL     1     -37.727  27.320   0.389  0.00  0.00    +0.089 C 
ATOM     35  C   UNL     1     -36.954  27.133  -0.919  0.00  0.00    +0.029 C 
ATOM     36  C   UNL     1     -36.763  27.528   1.559  0.00  0.00    +0.029 C 
BRANCH  34  37
ATOM     37  O   UNL     1     -38.517  28.510   0.262  0.00  0.00    -0.387 OA
ATOM     38  H   UNL     1     -37.950  29.246  -0.016  0.00  0.00    +0.210 HD
ENDBRANCH  34  37
ENDBRANCH  33  34
ENDBRANCH  32  33
ENDBRANCH  29  32
ENDBRANCH  27  29
ENDBRANCH   4  27
TORSDOF 10
ENDMDL
MODEL 8
REMARK VINA RESULT:      -5.5      5.342     10.141
REMARK  Name = 197093
REMARK  10 active torsions:
REMARK  status: ('A' for Active; 'I' for Inactive)
REMARK    1  A    between atoms: C_3  and  O_21
REMARK    2  A    between atoms: C_4  and  C_27
REMARK    3  A    between atoms: C_19  and  O_23
REMARK    4  A    between atoms: C_20  and  O_25
REMARK    5  A    between atoms: C_27  and  C_29
REMARK    6  A    between atoms: C_29  and  O_30
REMARK    7  A    between atoms: C_29  and  C_32
REMARK    8  A    between atoms: C_32  and  C_33
REMARK    9  A    between atoms: C_33  and  C_34
REMARK   10  A    between atoms: C_34  and  O_37
REMARK                            x       y       z     vdW  Elec       q    Type
REMARK                         _______ _______ _______ _____ _____    ______ ____
ROOT
ATOM      1  O   UNL     1     -32.052  30.747   0.607  0.00  0.00    -0.291 OA
ATOM      2  C   UNL     1     -34.027  26.163   3.819  0.00  0.00    +0.026 C 
ATOM      3  C   UNL     1     -33.021  26.484   2.683  0.00  0.00    +0.103 C 
ATOM      4  C   UNL     1     -34.314  24.666   3.535  0.00  0.00    +0.005 C 
ATOM      5  C   UNL     1     -32.043  28.408   4.071  0.00  0.00    +0.021 C 
ATOM      6  C   UNL     1     -31.806  29.969   4.136  0.00  0.00    +0.013 C 
ATOM      7  C   UNL     1     -32.587  27.934   2.714  0.00  0.00    -0.018 C 
ATOM      8  C   UNL     1     -33.339  26.422   5.170  0.00  0.00    +0.003 C 
ATOM      9  C   UNL     1     -33.709  25.868   1.454  0.00  0.00    +0.031 C 
ATOM     10  C   UNL     1     -32.875  27.882   5.281  0.00  0.00    +0.004 C 
ATOM     11  C   UNL     1     -34.389  24.591   1.993  0.00  0.00    +0.003 C 
ATOM     12  C   UNL     1     -31.151  30.464   2.817  0.00  0.00    +0.065 C 
ATOM     13  C   UNL     1     -35.332  27.002   3.726  0.00  0.00    +0.003 C 
ATOM     14  C   UNL     1     -30.878  30.357   5.323  0.00  0.00    +0.032 C 
ATOM     15  C   UNL     1     -32.591  28.697   1.610  0.00  0.00    +0.031 C 
ATOM     16  C   UNL     1     -29.693  30.002   2.642  0.00  0.00    +0.039 C 
ATOM     17  C   UNL     1     -33.139  30.741   4.331  0.00  0.00    +0.001 C 
ATOM     18  C   UNL     1     -31.964  30.038   1.608  0.00  0.00    +0.172 C 
ATOM     19  C   UNL     1     -29.427  29.898   5.145  0.00  0.00    +0.137 C 
ATOM     20  C   UNL     1     -28.827  30.406   3.834  0.00  0.00    +0.138 C 
ENDROOT
BRANCH   3  21
ATOM     21  O   UNL     1     -31.814  25.713   2.879  0.00  0.00    -0.383 OA
ATOM     22  H   UNL     1     -31.338  26.048   3.654  0.00  0.00    +0.211 HD
ENDBRANCH   3  21
BRANCH  19  23
ATOM     23  O   UNL     1     -28.638  30.375   6.233  0.00  0.00    -0.382 OA
ATOM     24  H   UNL     1     -27.744  30.003   6.171  0.00  0.00    +0.210 HD
ENDBRANCH  19  23
BRANCH  20  25
ATOM     25  O   UNL     1     -28.730  31.831   3.881  0.00  0.00    -0.382 OA
ATOM     26  H   UNL     1     -27.993  32.087   4.458  0.00  0.00    +0.210 HD
ENDBRANCH  20  25
BRANCH   4  27
ATOM     27  C   UNL     1     -35.537  24.067   4.216  0.00  0.00    +0.027 C 
ATOM     28  C   UNL     1     -35.123  23.441   5.557  0.00  0.00    +0.002 C 
BRANCH  27  29
ATOM     29  C   UNL     1     -36.282  23.027   3.338  0.00  0.00    +0.111 C 
BRANCH  29  30
ATOM     30  O   UNL     1     -36.312  21.757   3.995  0.00  0.00    -0.384 OA
ATOM     31  H   UNL     1     -36.743  21.851   4.859  0.00  0.00    +0.210 HD
ENDBRANCH  29  30
BRANCH  29  32
ATOM     32  C   UNL     1     -37.739  23.383   3.000  0.00  0.00    +0.032 C 
BRANCH  32  33
ATOM     33  C   UNL     1     -38.181  24.746   3.539  0.00  0.00    +0.029 C 
BRANCH  33  34
ATOM     34  C   UNL     1     -39.034  25.598   2.576  0.00  0.00    +0.089 C 
ATOM     35  C   UNL     1     -40.162  24.787   1.934  0.00  0.00    +0.029 C 
ATOM     36  C   UNL     1     -38.186  26.284   1.503  0.00  0.00    +0.029 C 
BRANCH  34  37
ATOM     37  O   UNL     1     -39.635  26.625   3.375  0.00  0.00    -0.387 OA
ATOM     38  H   UNL     1     -40.431  26.955   2.931  0.00  0.00    +0.210 HD
ENDBRANCH  34  37
ENDBRANCH  33  34
ENDBRANCH  32  33
ENDBRANCH  29  32
ENDBRANCH  27  29
ENDBRANCH   4  27
TORSDOF 10
ENDMDL
MODEL 9
REMARK VINA RESULT:      -5.4      2.224      8.481
REMARK  Name = 197093
REMARK  10 active torsions:
REMARK  status: ('A' for Active; 'I' for Inactive)
REMARK    1  A    between atoms: C_3  and  O_21
REMARK    2  A    between atoms: C_4  and  C_27
REMARK    3  A    between atoms: C_19  and  O_23
REMARK    4  A    between atoms: C_20  and  O_25
REMARK    5  A    between atoms: C_27  and  C_29
REMARK    6  A    between atoms: C_29  and  O_30
REMARK    7  A    between atoms: C_29  and  C_32
REMARK    8  A    between atoms: C_32  and  C_33
REMARK    9  A    between atoms: C_33  and  C_34
REMARK   10  A    between atoms: C_34  and  O_37
REMARK                            x       y       z     vdW  Elec       q    Type
REMARK                         _______ _______ _______ _____ _____    ______ ____
ROOT
ATOM      1  O   UNL     1     -39.030  24.143  -1.355  0.00  0.00    -0.291 OA
ATOM      2  C   UNL     1     -35.019  20.244   0.631  0.00  0.00    +0.026 C 
ATOM      3  C   UNL     1     -35.113  21.534  -0.227  0.00  0.00    +0.103 C 
ATOM      4  C   UNL     1     -33.726  19.611   0.056  0.00  0.00    +0.005 C 
ATOM      5  C   UNL     1     -36.482  22.679   1.617  0.00  0.00    +0.021 C 
ATOM      6  C   UNL     1     -37.872  23.335   1.981  0.00  0.00    +0.013 C 
ATOM      7  C   UNL     1     -36.340  22.348   0.123  0.00  0.00    -0.018 C 
ATOM      8  C   UNL     1     -34.912  20.648   2.111  0.00  0.00    +0.003 C 
ATOM      9  C   UNL     1     -34.871  20.999  -1.647  0.00  0.00    +0.031 C 
ATOM     10  C   UNL     1     -36.131  21.475   2.546  0.00  0.00    +0.004 C 
ATOM     11  C   UNL     1     -33.829  19.874  -1.463  0.00  0.00    +0.003 C 
ATOM     12  C   UNL     1     -38.260  24.390   0.908  0.00  0.00    +0.065 C 
ATOM     13  C   UNL     1     -36.233  19.296   0.432  0.00  0.00    +0.003 C 
ATOM     14  C   UNL     1     -37.827  24.037   3.369  0.00  0.00    +0.032 C 
ATOM     15  C   UNL     1     -37.169  22.819  -0.821  0.00  0.00    +0.031 C 
ATOM     16  C   UNL     1     -37.378  25.652   0.939  0.00  0.00    +0.039 C 
ATOM     17  C   UNL     1     -39.004  22.275   2.045  0.00  0.00    +0.001 C 
ATOM     18  C   UNL     1     -38.235  23.790  -0.485  0.00  0.00    +0.172 C 
ATOM     19  C   UNL     1     -36.951  25.293   3.395  0.00  0.00    +0.137 C 
ATOM     20  C   UNL     1     -37.368  26.300   2.323  0.00  0.00    +0.138 C 
ENDROOT
BRANCH   3  21
ATOM     21  O   UNL     1     -33.983  22.388   0.064  0.00  0.00    -0.383 OA
ATOM     22  H   UNL     1     -34.146  23.273  -0.294  0.00  0.00    +0.211 HD
ENDBRANCH   3  21
BRANCH  19  23
ATOM     23  O   UNL     1     -37.043  25.914   4.676  0.00  0.00    -0.382 OA
ATOM     24  H   UNL     1     -37.924  26.306   4.782  0.00  0.00    +0.210 HD
ENDBRANCH  19  23
BRANCH  20  25
ATOM     25  O   UNL     1     -38.677  26.790   2.620  0.00  0.00    -0.382 OA
ATOM     26  H   UNL     1     -39.070  26.255   3.328  0.00  0.00    +0.210 HD
ENDBRANCH  20  25
BRANCH   4  27
ATOM     27  C   UNL     1     -33.482  18.144   0.386  0.00  0.00    +0.027 C 
ATOM     28  C   UNL     1     -32.413  18.036   1.485  0.00  0.00    +0.002 C 
BRANCH  27  29
ATOM     29  C   UNL     1     -33.080  17.295  -0.847  0.00  0.00    +0.111 C 
BRANCH  29  30
ATOM     30  O   UNL     1     -31.687  16.980  -0.799  0.00  0.00    -0.384 OA
ATOM     31  H   UNL     1     -31.171  17.801  -0.781  0.00  0.00    +0.210 HD
ENDBRANCH  29  30
BRANCH  29  32
ATOM     32  C   UNL     1     -33.829  15.958  -0.991  0.00  0.00    +0.032 C 
BRANCH  32  33
ATOM     33  C   UNL     1     -35.079  15.856  -0.115  0.00  0.00    +0.029 C 
BRANCH  33  34
ATOM     34  C   UNL     1     -36.410  15.670  -0.874  0.00  0.00    +0.089 C 
ATOM     35  C   UNL     1     -36.467  16.511  -2.151  0.00  0.00    +0.029 C 
ATOM     36  C   UNL     1     -37.626  15.949   0.010  0.00  0.00    +0.029 C 
BRANCH  34  37
ATOM     37  O   UNL     1     -36.462  14.289  -1.258  0.00  0.00    -0.387 OA
ATOM     38  H   UNL     1     -35.758  13.801  -0.804  0.00  0.00    +0.210 HD
ENDBRANCH  34  37
ENDBRANCH  33  34
ENDBRANCH  32  33
ENDBRANCH  29  32
ENDBRANCH  27  29
ENDBRANCH   4  27
TORSDOF 10
ENDMDL
