MODEL 1
REMARK VINA RESULT:      -6.9      0.000      0.000
REMARK  Name = 5462418
REMARK  4 active torsions:
REMARK  status: ('A' for Active; 'I' for Inactive)
REMARK    1  A    between atoms: C_4  and  C_36
REMARK    2  A    between atoms: C_7  and  O_31
REMARK    3  A    between atoms: C_10  and  O_33
REMARK    4  A    between atoms: C_15  and  C_26
REMARK                            x       y       z     vdW  Elec       q    Type
REMARK                         _______ _______ _______ _____ _____    ______ ____
ROOT
ATOM      1  O   UNL     1     -35.256  20.284  -0.844  0.00  0.00    -0.317 OA
ATOM      2  O   UNL     1     -37.127  19.519   0.415  0.00  0.00    -0.315 OA
ATOM      3  O   UNL     1     -37.452  20.383  -1.769  0.00  0.00    -0.315 OA
ATOM      4  C   UNL     1     -35.921  21.497   1.172  0.00  0.00    +0.109 C 
ATOM      5  C   UNL     1     -35.898  22.905   1.882  0.00  0.00    +0.041 C 
ATOM      6  C   UNL     1     -34.458  23.510   1.848  0.00  0.00    +0.028 C 
ATOM      7  C   UNL     1     -34.333  24.880   2.566  0.00  0.00    +0.089 C 
ATOM      8  C   UNL     1     -35.347  21.610  -0.281  0.00  0.00    +0.108 C 
ATOM      9  C   UNL     1     -34.936  24.901   3.994  0.00  0.00    +0.029 C 
ATOM     10  C   UNL     1     -36.452  22.914   3.329  0.00  0.00    +0.111 C 
ATOM     11  C   UNL     1     -37.314  20.813   1.035  0.00  0.00    +0.131 C 
ATOM     12  C   UNL     1     -33.900  23.584   0.410  0.00  0.00    +0.005 C 
ATOM     13  C   UNL     1     -33.951  22.240  -0.309  0.00  0.00    +0.028 C 
ATOM     14  C   UNL     1     -36.363  24.299   3.973  0.00  0.00    +0.032 C 
ATOM     15  C   UNL     1     -35.041  26.428   4.307  0.00  0.00    +0.028 C 
ATOM     16  C   UNL     1     -36.306  22.407  -1.210  0.00  0.00    +0.058 C 
ATOM     17  C   UNL     1     -35.048  26.046   1.859  0.00  0.00    +0.027 C 
ATOM     18  C   UNL     1     -37.664  21.707  -1.260  0.00  0.00    +0.125 C 
ATOM     19  C   UNL     1     -38.276  21.600   0.138  0.00  0.00    +0.060 C 
ATOM     20  C   UNL     1     -35.372  27.077   2.949  0.00  0.00    +0.007 C 
ATOM     21  C   UNL     1     -36.558  19.675  -0.894  0.00  0.00    +0.296 C 
ATOM     22  C   UNL     1     -34.094  24.138   5.034  0.00  0.00    +0.003 C 
ATOM     23  C   UNL     1     -36.375  18.280  -1.474  0.00  0.00    +0.096 C 
ENDROOT
BRANCH  15  26
ATOM     24  O   UNL     1     -32.204  27.364   6.677  0.00  0.00    -0.418 OA
ATOM     25  O   UNL     1     -30.505  28.850   6.409  0.00  0.00    -0.244 OA
ATOM     26  C   UNL     1     -33.819  27.064   4.905  0.00  0.00    +0.015 C 
ATOM     27  C   UNL     1     -33.109  28.049   4.131  0.00  0.00    +0.006 C 
ATOM     28  C   UNL     1     -33.346  26.771   6.120  0.00  0.00    +0.179 C 
ATOM     29  C   UNL     1     -32.016  28.645   4.617  0.00  0.00    +0.082 C 
ATOM     30  C   UNL     1     -31.509  28.305   5.962  0.00  0.00    +0.346 C 
ENDBRANCH  15  26
BRANCH   7  31
ATOM     31  O   UNL     1     -32.943  25.237   2.613  0.00  0.00    -0.387 OA
ATOM     32  H   UNL     1     -32.546  25.109   1.737  0.00  0.00    +0.210 HD
ENDBRANCH   7  31
BRANCH  10  33
ATOM     33  O   UNL     1     -37.832  22.554   3.329  0.00  0.00    -0.384 OA
ATOM     34  H   UNL     1     -38.284  23.008   4.057  0.00  0.00    +0.210 HD
ENDBRANCH  10  33
BRANCH   4  36
ATOM     35  O   UNL     1     -35.313  20.296   3.188  0.00  0.00    -0.288 OA
ATOM     36  C   UNL     1     -35.086  20.538   2.007  0.00  0.00    +0.211 C 
ENDBRANCH   4  36
TORSDOF 4
ENDMDL
MODEL 2
REMARK VINA RESULT:      -6.8      2.913      7.865
REMARK  Name = 5462418
REMARK  4 active torsions:
REMARK  status: ('A' for Active; 'I' for Inactive)
REMARK    1  A    between atoms: C_4  and  C_36
REMARK    2  A    between atoms: C_7  and  O_31
REMARK    3  A    between atoms: C_10  and  O_33
REMARK    4  A    between atoms: C_15  and  C_26
REMARK                            x       y       z     vdW  Elec       q    Type
REMARK                         _______ _______ _______ _____ _____    ______ ____
ROOT
ATOM      1  O   UNL     1     -37.794  24.909   1.297  0.00  0.00    -0.317 OA
ATOM      2  O   UNL     1     -38.196  23.938   3.435  0.00  0.00    -0.315 OA
ATOM      3  O   UNL     1     -36.993  25.976   3.274  0.00  0.00    -0.315 OA
ATOM      4  C   UNL     1     -36.728  22.785   1.869  0.00  0.00    +0.109 C 
ATOM      5  C   UNL     1     -35.484  21.859   1.576  0.00  0.00    +0.041 C 
ATOM      6  C   UNL     1     -35.284  21.684   0.037  0.00  0.00    +0.028 C 
ATOM      7  C   UNL     1     -34.105  20.750  -0.343  0.00  0.00    +0.089 C 
ATOM      8  C   UNL     1     -36.579  24.151   1.119  0.00  0.00    +0.108 C 
ATOM      9  C   UNL     1     -34.115  19.388   0.399  0.00  0.00    +0.029 C 
ATOM     10  C   UNL     1     -35.521  20.478   2.276  0.00  0.00    +0.111 C 
ATOM     11  C   UNL     1     -36.993  23.137   3.363  0.00  0.00    +0.131 C 
ATOM     12  C   UNL     1     -35.171  23.044  -0.686  0.00  0.00    +0.005 C 
ATOM     13  C   UNL     1     -36.344  23.969  -0.384  0.00  0.00    +0.028 C 
ATOM     14  C   UNL     1     -34.308  19.616   1.918  0.00  0.00    +0.032 C 
ATOM     15  C   UNL     1     -32.671  18.845   0.154  0.00  0.00    +0.028 C 
ATOM     16  C   UNL     1     -35.440  25.014   1.731  0.00  0.00    +0.058 C 
ATOM     17  C   UNL     1     -32.708  21.316  -0.031  0.00  0.00    +0.027 C 
ATOM     18  C   UNL     1     -35.740  25.281   3.206  0.00  0.00    +0.125 C 
ATOM     19  C   UNL     1     -35.866  23.970   3.985  0.00  0.00    +0.060 C 
ATOM     20  C   UNL     1     -31.782  20.104   0.149  0.00  0.00    +0.007 C 
ATOM     21  C   UNL     1     -38.023  25.158   2.696  0.00  0.00    +0.296 C 
ATOM     22  C   UNL     1     -35.206  18.420  -0.097  0.00  0.00    +0.003 C 
ATOM     23  C   UNL     1     -39.326  25.935   2.802  0.00  0.00    +0.096 C 
ENDROOT
BRANCH  15  26
ATOM     24  O   UNL     1     -32.857  16.148  -2.536  0.00  0.00    -0.418 OA
ATOM     25  O   UNL     1     -31.842  16.035  -4.566  0.00  0.00    -0.244 OA
ATOM     26  C   UNL     1     -32.468  18.060  -1.111  0.00  0.00    +0.015 C 
ATOM     27  C   UNL     1     -31.600  18.601  -2.124  0.00  0.00    +0.006 C 
ATOM     28  C   UNL     1     -33.047  16.880  -1.355  0.00  0.00    +0.179 C 
ATOM     29  C   UNL     1     -31.385  17.942  -3.267  0.00  0.00    +0.082 C 
ATOM     30  C   UNL     1     -32.037  16.640  -3.517  0.00  0.00    +0.346 C 
ENDBRANCH  15  26
BRANCH   7  31
ATOM     31  O   UNL     1     -34.140  20.537  -1.762  0.00  0.00    -0.387 OA
ATOM     32  H   UNL     1     -34.493  21.328  -2.199  0.00  0.00    +0.210 HD
ENDBRANCH   7  31
BRANCH  10  33
ATOM     33  O   UNL     1     -35.498  20.643   3.692  0.00  0.00    -0.384 OA
ATOM     34  H   UNL     1     -34.590  20.827   3.981  0.00  0.00    +0.210 HD
ENDBRANCH  10  33
BRANCH   4  36
ATOM     35  O   UNL     1     -38.671  21.362   2.146  0.00  0.00    -0.288 OA
ATOM     36  C   UNL     1     -37.977  22.050   1.405  0.00  0.00    +0.211 C 
ENDBRANCH   4  36
TORSDOF 4
ENDMDL
MODEL 3
REMARK VINA RESULT:      -6.8      2.498      8.467
REMARK  Name = 5462418
REMARK  4 active torsions:
REMARK  status: ('A' for Active; 'I' for Inactive)
REMARK    1  A    between atoms: C_4  and  C_36
REMARK    2  A    between atoms: C_7  and  O_31
REMARK    3  A    between atoms: C_10  and  O_33
REMARK    4  A    between atoms: C_15  and  C_26
REMARK                            x       y       z     vdW  Elec       q    Type
REMARK                         _______ _______ _______ _____ _____    ______ ____
ROOT
ATOM      1  O   UNL     1     -33.348  25.971   3.169  0.00  0.00    -0.317 OA
ATOM      2  O   UNL     1     -34.716  27.627   4.198  0.00  0.00    -0.315 OA
ATOM      3  O   UNL     1     -33.520  26.085   5.545  0.00  0.00    -0.315 OA
ATOM      4  C   UNL     1     -35.773  25.871   2.879  0.00  0.00    +0.109 C 
ATOM      5  C   UNL     1     -36.988  24.905   2.598  0.00  0.00    +0.041 C 
ATOM      6  C   UNL     1     -36.683  23.986   1.372  0.00  0.00    +0.028 C 
ATOM      7  C   UNL     1     -37.845  23.029   0.996  0.00  0.00    +0.089 C 
ATOM      8  C   UNL     1     -34.452  25.048   3.054  0.00  0.00    +0.108 C 
ATOM      9  C   UNL     1     -39.221  23.731   0.865  0.00  0.00    +0.029 C 
ATOM     10  C   UNL     1     -38.354  25.612   2.414  0.00  0.00    +0.111 C 
ATOM     11  C   UNL     1     -35.888  26.780   4.139  0.00  0.00    +0.131 C 
ATOM     12  C   UNL     1     -35.360  23.208   1.553  0.00  0.00    +0.005 C 
ATOM     13  C   UNL     1     -34.180  24.121   1.865  0.00  0.00    +0.028 C 
ATOM     14  C   UNL     1     -39.480  24.622   2.105  0.00  0.00    +0.032 C 
ATOM     15  C   UNL     1     -40.228  22.537   0.888  0.00  0.00    +0.028 C 
ATOM     16  C   UNL     1     -34.465  24.226   4.373  0.00  0.00    +0.058 C 
ATOM     17  C   UNL     1     -38.113  21.907   2.015  0.00  0.00    +0.027 C 
ATOM     18  C   UNL     1     -34.627  25.174   5.562  0.00  0.00    +0.125 C 
ATOM     19  C   UNL     1     -35.924  25.979   5.446  0.00  0.00    +0.060 C 
ATOM     20  C   UNL     1     -39.586  21.513   1.845  0.00  0.00    +0.007 C 
ATOM     21  C   UNL     1     -33.531  26.824   4.313  0.00  0.00    +0.296 C 
ATOM     22  C   UNL     1     -39.358  24.598  -0.402  0.00  0.00    +0.003 C 
ATOM     23  C   UNL     1     -32.345  27.777   4.351  0.00  0.00    +0.096 C 
ENDROOT
BRANCH  15  26
ATOM     24  O   UNL     1     -41.484  21.896  -2.655  0.00  0.00    -0.418 OA
ATOM     25  O   UNL     1     -41.251  20.064  -3.980  0.00  0.00    -0.244 OA
ATOM     26  C   UNL     1     -40.522  21.896  -0.439  0.00  0.00    +0.015 C 
ATOM     27  C   UNL     1     -40.039  20.562  -0.680  0.00  0.00    +0.006 C 
ATOM     28  C   UNL     1     -41.211  22.494  -1.416  0.00  0.00    +0.179 C 
ATOM     29  C   UNL     1     -40.273  19.948  -1.843  0.00  0.00    +0.082 C 
ATOM     30  C   UNL     1     -41.036  20.626  -2.911  0.00  0.00    +0.346 C 
ENDBRANCH  15  26
BRANCH   7  31
ATOM     31  O   UNL     1     -37.507  22.375  -0.236  0.00  0.00    -0.387 OA
ATOM     32  H   UNL     1     -36.779  22.850  -0.666  0.00  0.00    +0.210 HD
ENDBRANCH   7  31
BRANCH  10  33
ATOM     33  O   UNL     1     -38.724  26.285   3.616  0.00  0.00    -0.384 OA
ATOM     34  H   UNL     1     -37.939  26.696   4.011  0.00  0.00    +0.210 HD
ENDBRANCH  10  33
BRANCH   4  36
ATOM     35  O   UNL     1     -36.281  27.884   1.628  0.00  0.00    -0.288 OA
ATOM     36  C   UNL     1     -35.658  26.830   1.704  0.00  0.00    +0.211 C 
ENDBRANCH   4  36
TORSDOF 4
ENDMDL
MODEL 4
REMARK VINA RESULT:      -6.6      2.745      4.322
REMARK  Name = 5462418
REMARK  4 active torsions:
REMARK  status: ('A' for Active; 'I' for Inactive)
REMARK    1  A    between atoms: C_4  and  C_36
REMARK    2  A    between atoms: C_7  and  O_31
REMARK    3  A    between atoms: C_10  and  O_33
REMARK    4  A    between atoms: C_15  and  C_26
REMARK                            x       y       z     vdW  Elec       q    Type
REMARK                         _______ _______ _______ _____ _____    ______ ____
ROOT
ATOM      1  O   UNL     1     -40.998  24.464   1.138  0.00  0.00    -0.317 OA
ATOM      2  O   UNL     1     -40.004  23.946  -0.963  0.00  0.00    -0.315 OA
ATOM      3  O   UNL     1     -40.978  22.218   0.337  0.00  0.00    -0.315 OA
ATOM      4  C   UNL     1     -38.582  24.711   0.862  0.00  0.00    +0.109 C 
ATOM      5  C   UNL     1     -37.201  24.705   1.624  0.00  0.00    +0.041 C 
ATOM      6  C   UNL     1     -37.271  25.620   2.889  0.00  0.00    +0.028 C 
ATOM      7  C   UNL     1     -35.938  25.708   3.678  0.00  0.00    +0.089 C 
ATOM      8  C   UNL     1     -39.743  24.311   1.834  0.00  0.00    +0.108 C 
ATOM      9  C   UNL     1     -34.704  26.030   2.797  0.00  0.00    +0.029 C 
ATOM     10  C   UNL     1     -35.975  25.080   0.755  0.00  0.00    +0.111 C 
ATOM     11  C   UNL     1     -38.699  23.760  -0.367  0.00  0.00    +0.131 C 
ATOM     12  C   UNL     1     -38.441  25.228   3.817  0.00  0.00    +0.005 C 
ATOM     13  C   UNL     1     -39.780  25.188   3.089  0.00  0.00    +0.028 C 
ATOM     14  C   UNL     1     -34.676  25.094   1.564  0.00  0.00    +0.032 C 
ATOM     15  C   UNL     1     -33.504  25.668   3.728  0.00  0.00    +0.028 C 
ATOM     16  C   UNL     1     -39.655  22.813   2.238  0.00  0.00    +0.058 C 
ATOM     17  C   UNL     1     -35.530  24.412   4.402  0.00  0.00    +0.027 C 
ATOM     18  C   UNL     1     -39.728  21.942   0.984  0.00  0.00    +0.125 C 
ATOM     19  C   UNL     1     -38.592  22.280   0.016  0.00  0.00    +0.060 C 
ATOM     20  C   UNL     1     -34.003  24.461   4.546  0.00  0.00    +0.007 C 
ATOM     21  C   UNL     1     -41.032  23.610  -0.019  0.00  0.00    +0.296 C 
ATOM     22  C   UNL     1     -34.656  27.491   2.308  0.00  0.00    +0.003 C 
ATOM     23  C   UNL     1     -42.369  23.845  -0.707  0.00  0.00    +0.096 C 
ENDROOT
BRANCH  15  26
ATOM     24  O   UNL     1     -32.782  27.773   6.825  0.00  0.00    -0.418 OA
ATOM     25  O   UNL     1     -31.695  29.759   7.023  0.00  0.00    -0.244 OA
ATOM     26  C   UNL     1     -33.029  26.758   4.647  0.00  0.00    +0.015 C 
ATOM     27  C   UNL     1     -32.318  27.874   4.079  0.00  0.00    +0.006 C 
ATOM     28  C   UNL     1     -33.227  26.755   5.968  0.00  0.00    +0.179 C 
ATOM     29  C   UNL     1     -31.874  28.869   4.852  0.00  0.00    +0.082 C 
ATOM     30  C   UNL     1     -32.103  28.846   6.312  0.00  0.00    +0.346 C 
ENDBRANCH  15  26
BRANCH   7  31
ATOM     31  O   UNL     1     -36.087  26.704   4.701  0.00  0.00    -0.387 OA
ATOM     32  H   UNL     1     -36.671  26.367   5.398  0.00  0.00    +0.210 HD
ENDBRANCH   7  31
BRANCH  10  33
ATOM     33  O   UNL     1     -35.796  24.118  -0.283  0.00  0.00    -0.384 OA
ATOM     34  H   UNL     1     -35.224  23.402   0.035  0.00  0.00    +0.210 HD
ENDBRANCH  10  33
BRANCH   4  36
ATOM     35  O   UNL     1     -38.636  26.403  -0.873  0.00  0.00    -0.288 OA
ATOM     36  C   UNL     1     -38.803  26.110   0.306  0.00  0.00    +0.211 C 
ENDBRANCH   4  36
TORSDOF 4
ENDMDL
MODEL 5
REMARK VINA RESULT:      -6.5      1.858      2.609
REMARK  Name = 5462418
REMARK  4 active torsions:
REMARK  status: ('A' for Active; 'I' for Inactive)
REMARK    1  A    between atoms: C_4  and  C_36
REMARK    2  A    between atoms: C_7  and  O_31
REMARK    3  A    between atoms: C_10  and  O_33
REMARK    4  A    between atoms: C_15  and  C_26
REMARK                            x       y       z     vdW  Elec       q    Type
REMARK                         _______ _______ _______ _____ _____    ______ ____
ROOT
ATOM      1  O   UNL     1     -36.638  21.857   0.612  0.00  0.00    -0.317 OA
ATOM      2  O   UNL     1     -38.612  22.410   1.826  0.00  0.00    -0.315 OA
ATOM      3  O   UNL     1     -38.547  22.725  -0.524  0.00  0.00    -0.315 OA
ATOM      4  C   UNL     1     -36.588  23.716   2.199  0.00  0.00    +0.109 C 
ATOM      5  C   UNL     1     -35.877  25.080   2.548  0.00  0.00    +0.041 C 
ATOM      6  C   UNL     1     -34.324  24.911   2.512  0.00  0.00    +0.028 C 
ATOM      7  C   UNL     1     -33.541  26.197   2.887  0.00  0.00    +0.089 C 
ATOM      8  C   UNL     1     -36.071  23.167   0.826  0.00  0.00    +0.108 C 
ATOM      9  C   UNL     1     -34.021  26.867   4.200  0.00  0.00    +0.029 C 
ATOM     10  C   UNL     1     -36.319  25.722   3.887  0.00  0.00    +0.111 C 
ATOM     11  C   UNL     1     -38.142  23.752   2.093  0.00  0.00    +0.131 C 
ATOM     12  C   UNL     1     -33.840  24.340   1.162  0.00  0.00    +0.005 C 
ATOM     13  C   UNL     1     -34.545  23.041   0.787  0.00  0.00    +0.028 C 
ATOM     14  C   UNL     1     -35.563  27.019   4.183  0.00  0.00    +0.032 C 
ATOM     15  C   UNL     1     -33.378  28.288   4.124  0.00  0.00    +0.028 C 
ATOM     16  C   UNL     1     -36.560  24.047  -0.358  0.00  0.00    +0.058 C 
ATOM     17  C   UNL     1     -33.634  27.333   1.852  0.00  0.00    +0.027 C 
ATOM     18  C   UNL     1     -38.088  24.076  -0.373  0.00  0.00    +0.125 C 
ATOM     19  C   UNL     1     -38.638  24.634   0.942  0.00  0.00    +0.060 C 
ATOM     20  C   UNL     1     -33.397  28.639   2.624  0.00  0.00    +0.007 C 
ATOM     21  C   UNL     1     -38.074  21.937   0.581  0.00  0.00    +0.296 C 
ATOM     22  C   UNL     1     -33.615  26.099   5.473  0.00  0.00    +0.003 C 
ATOM     23  C   UNL     1     -38.594  20.522   0.376  0.00  0.00    +0.096 C 
ENDROOT
BRANCH  15  26
ATOM     24  O   UNL     1     -29.579  28.437   4.429  0.00  0.00    -0.418 OA
ATOM     25  O   UNL     1     -28.270  28.763   6.258  0.00  0.00    -0.244 OA
ATOM     26  C   UNL     1     -31.983  28.411   4.670  0.00  0.00    +0.015 C 
ATOM     27  C   UNL     1     -31.815  28.639   6.081  0.00  0.00    +0.006 C 
ATOM     28  C   UNL     1     -30.881  28.321   3.919  0.00  0.00    +0.179 C 
ATOM     29  C   UNL     1     -30.596  28.756   6.616  0.00  0.00    +0.082 C 
ATOM     30  C   UNL     1     -29.390  28.654   5.768  0.00  0.00    +0.346 C 
ENDBRANCH  15  26
BRANCH   7  31
ATOM     31  O   UNL     1     -32.149  25.862   2.985  0.00  0.00    -0.387 OA
ATOM     32  H   UNL     1     -32.020  24.935   2.731  0.00  0.00    +0.210 HD
ENDBRANCH   7  31
BRANCH  10  33
ATOM     33  O   UNL     1     -37.703  26.062   3.836  0.00  0.00    -0.384 OA
ATOM     34  H   UNL     1     -38.143  25.747   4.641  0.00  0.00    +0.210 HD
ENDBRANCH  10  33
BRANCH   4  36
ATOM     35  O   UNL     1     -36.687  22.875   4.470  0.00  0.00    -0.288 OA
ATOM     36  C   UNL     1     -36.287  22.732   3.320  0.00  0.00    +0.211 C 
ENDBRANCH   4  36
TORSDOF 4
ENDMDL
MODEL 6
REMARK VINA RESULT:      -6.4      2.559      8.264
REMARK  Name = 5462418
REMARK  4 active torsions:
REMARK  status: ('A' for Active; 'I' for Inactive)
REMARK    1  A    between atoms: C_4  and  C_36
REMARK    2  A    between atoms: C_7  and  O_31
REMARK    3  A    between atoms: C_10  and  O_33
REMARK    4  A    between atoms: C_15  and  C_26
REMARK                            x       y       z     vdW  Elec       q    Type
REMARK                         _______ _______ _______ _____ _____    ______ ____
ROOT
ATOM      1  O   UNL     1     -32.296  29.504   1.127  0.00  0.00    -0.317 OA
ATOM      2  O   UNL     1     -32.349  30.091   3.436  0.00  0.00    -0.315 OA
ATOM      3  O   UNL     1     -30.335  29.297   2.469  0.00  0.00    -0.315 OA
ATOM      4  C   UNL     1     -33.639  28.168   2.673  0.00  0.00    +0.109 C 
ATOM      5  C   UNL     1     -34.253  26.737   2.925  0.00  0.00    +0.041 C 
ATOM      6  C   UNL     1     -34.999  26.231   1.650  0.00  0.00    +0.028 C 
ATOM      7  C   UNL     1     -35.674  24.844   1.822  0.00  0.00    +0.089 C 
ATOM      8  C   UNL     1     -32.724  28.153   1.403  0.00  0.00    +0.108 C 
ATOM      9  C   UNL     1     -36.553  24.725   3.094  0.00  0.00    +0.029 C 
ATOM     10  C   UNL     1     -35.174  26.632   4.166  0.00  0.00    +0.111 C 
ATOM     11  C   UNL     1     -32.773  28.763   3.824  0.00  0.00    +0.131 C 
ATOM     12  C   UNL     1     -34.087  26.254   0.404  0.00  0.00    +0.005 C 
ATOM     13  C   UNL     1     -33.452  27.619   0.166  0.00  0.00    +0.028 C 
ATOM     14  C   UNL     1     -35.767  25.230   4.329  0.00  0.00    +0.032 C 
ATOM     15  C   UNL     1     -36.763  23.183   3.231  0.00  0.00    +0.028 C 
ATOM     16  C   UNL     1     -31.426  27.333   1.647  0.00  0.00    +0.058 C 
ATOM     17  C   UNL     1     -34.695  23.663   1.952  0.00  0.00    +0.027 C 
ATOM     18  C   UNL     1     -30.652  27.942   2.816  0.00  0.00    +0.125 C 
ATOM     19  C   UNL     1     -31.501  27.950   4.090  0.00  0.00    +0.060 C 
ATOM     20  C   UNL     1     -35.441  22.569   2.729  0.00  0.00    +0.007 C 
ATOM     21  C   UNL     1     -31.552  30.026   2.243  0.00  0.00    +0.296 C 
ATOM     22  C   UNL     1     -37.882  25.499   3.004  0.00  0.00    +0.003 C 
ATOM     23  C   UNL     1     -31.160  31.453   1.887  0.00  0.00    +0.096 C 
ENDROOT
BRANCH  15  26
ATOM     24  O   UNL     1     -40.273  22.478   1.918  0.00  0.00    -0.418 OA
ATOM     25  O   UNL     1     -40.981  20.969   0.372  0.00  0.00    -0.244 OA
ATOM     26  C   UNL     1     -37.926  22.606   2.475  0.00  0.00    +0.015 C 
ATOM     27  C   UNL     1     -37.674  21.547   1.531  0.00  0.00    +0.006 C 
ATOM     28  C   UNL     1     -39.188  23.017   2.625  0.00  0.00    +0.179 C 
ATOM     29  C   UNL     1     -38.674  21.000   0.833  0.00  0.00    +0.082 C 
ATOM     30  C   UNL     1     -40.063  21.470   1.013  0.00  0.00    +0.346 C 
ENDBRANCH  15  26
BRANCH   7  31
ATOM     31  O   UNL     1     -36.462  24.580   0.652  0.00  0.00    -0.387 OA
ATOM     32  H   UNL     1     -37.333  24.245   0.917  0.00  0.00    +0.210 HD
ENDBRANCH   7  31
BRANCH  10  33
ATOM     33  O   UNL     1     -34.430  26.898   5.354  0.00  0.00    -0.384 OA
ATOM     34  H   UNL     1     -33.831  26.157   5.533  0.00  0.00    +0.210 HD
ENDBRANCH  10  33
BRANCH   4  36
ATOM     35  O   UNL     1     -35.171  29.910   3.375  0.00  0.00    -0.288 OA
ATOM     36  C   UNL     1     -34.791  29.146   2.495  0.00  0.00    +0.211 C 
ENDBRANCH   4  36
TORSDOF 4
ENDMDL
MODEL 7
REMARK VINA RESULT:      -6.3      3.402      7.351
REMARK  Name = 5462418
REMARK  4 active torsions:
REMARK  status: ('A' for Active; 'I' for Inactive)
REMARK    1  A    between atoms: C_4  and  C_36
REMARK    2  A    between atoms: C_7  and  O_31
REMARK    3  A    between atoms: C_10  and  O_33
REMARK    4  A    between atoms: C_15  and  C_26
REMARK                            x       y       z     vdW  Elec       q    Type
REMARK                         _______ _______ _______ _____ _____    ______ ____
ROOT
ATOM      1  O   UNL     1     -40.846  24.853   1.677  0.00  0.00    -0.317 OA
ATOM      2  O   UNL     1     -39.497  26.579   2.612  0.00  0.00    -0.315 OA
ATOM      3  O   UNL     1     -40.682  26.973   0.597  0.00  0.00    -0.315 OA
ATOM      4  C   UNL     1     -38.419  24.569   1.751  0.00  0.00    +0.109 C 
ATOM      5  C   UNL     1     -37.194  23.854   1.062  0.00  0.00    +0.041 C 
ATOM      6  C   UNL     1     -37.487  22.332   0.871  0.00  0.00    +0.028 C 
ATOM      7  C   UNL     1     -36.314  21.539   0.237  0.00  0.00    +0.089 C 
ATOM      8  C   UNL     1     -39.733  24.303   0.942  0.00  0.00    +0.108 C 
ATOM      9  C   UNL     1     -34.944  21.784   0.920  0.00  0.00    +0.029 C 
ATOM     10  C   UNL     1     -35.835  24.057   1.776  0.00  0.00    +0.111 C 
ATOM     11  C   UNL     1     -38.317  26.115   1.915  0.00  0.00    +0.131 C 
ATOM     12  C   UNL     1     -38.802  22.092   0.098  0.00  0.00    +0.005 C 
ATOM     13  C   UNL     1     -39.992  22.808   0.726  0.00  0.00    +0.028 C 
ATOM     14  C   UNL     1     -34.698  23.305   1.079  0.00  0.00    +0.032 C 
ATOM     15  C   UNL     1     -33.926  21.218  -0.120  0.00  0.00    +0.028 C 
ATOM     16  C   UNL     1     -39.716  25.039  -0.427  0.00  0.00    +0.058 C 
ATOM     17  C   UNL     1     -36.039  21.867  -1.242  0.00  0.00    +0.027 C 
ATOM     18  C   UNL     1     -39.566  26.542  -0.194  0.00  0.00    +0.125 C 
ATOM     19  C   UNL     1     -38.277  26.852   0.571  0.00  0.00    +0.060 C 
ATOM     20  C   UNL     1     -34.560  21.535  -1.489  0.00  0.00    +0.007 C 
ATOM     21  C   UNL     1     -40.675  26.271   1.851  0.00  0.00    +0.296 C 
ATOM     22  C   UNL     1     -34.813  21.116   2.303  0.00  0.00    +0.003 C 
ATOM     23  C   UNL     1     -41.870  26.769   2.651  0.00  0.00    +0.096 C 
ENDROOT
BRANCH  15  26
ATOM     24  O   UNL     1     -33.776  17.466  -0.786  0.00  0.00    -0.418 OA
ATOM     25  O   UNL     1     -32.729  15.816   0.375  0.00  0.00    -0.244 OA
ATOM     26  C   UNL     1     -33.622  19.751  -0.015  0.00  0.00    +0.015 C 
ATOM     27  C   UNL     1     -32.810  19.295   1.083  0.00  0.00    +0.006 C 
ATOM     28  C   UNL     1     -34.061  18.836  -0.884  0.00  0.00    +0.179 C 
ATOM     29  C   UNL     1     -32.510  18.000   1.222  0.00  0.00    +0.082 C 
ATOM     30  C   UNL     1     -33.005  17.005   0.249  0.00  0.00    +0.346 C 
ENDBRANCH  15  26
BRANCH   7  31
ATOM     31  O   UNL     1     -36.642  20.142   0.279  0.00  0.00    -0.387 OA
ATOM     32  H   UNL     1     -37.038  19.928   1.138  0.00  0.00    +0.210 HD
ENDBRANCH   7  31
BRANCH  10  33
ATOM     33  O   UNL     1     -35.474  25.437   1.765  0.00  0.00    -0.384 OA
ATOM     34  H   UNL     1     -35.862  25.877   2.538  0.00  0.00    +0.210 HD
ENDBRANCH  10  33
BRANCH   4  36
ATOM     35  O   UNL     1     -37.930  24.490   4.124  0.00  0.00    -0.288 OA
ATOM     36  C   UNL     1     -38.540  24.026   3.168  0.00  0.00    +0.211 C 
ENDBRANCH   4  36
TORSDOF 4
ENDMDL
MODEL 8
REMARK VINA RESULT:      -6.3      3.489      5.663
REMARK  Name = 5462418
REMARK  4 active torsions:
REMARK  status: ('A' for Active; 'I' for Inactive)
REMARK    1  A    between atoms: C_4  and  C_36
REMARK    2  A    between atoms: C_7  and  O_31
REMARK    3  A    between atoms: C_10  and  O_33
REMARK    4  A    between atoms: C_15  and  C_26
REMARK                            x       y       z     vdW  Elec       q    Type
REMARK                         _______ _______ _______ _____ _____    ______ ____
ROOT
ATOM      1  O   UNL     1     -33.539  17.581  -1.095  0.00  0.00    -0.317 OA
ATOM      2  O   UNL     1     -31.672  18.747  -2.005  0.00  0.00    -0.315 OA
ATOM      3  O   UNL     1     -31.340  17.159  -0.276  0.00  0.00    -0.315 OA
ATOM      4  C   UNL     1     -33.340  19.991  -0.735  0.00  0.00    +0.109 C 
ATOM      5  C   UNL     1     -33.732  21.176   0.230  0.00  0.00    +0.041 C 
ATOM      6  C   UNL     1     -35.258  21.131   0.558  0.00  0.00    +0.028 C 
ATOM      7  C   UNL     1     -35.741  22.290   1.470  0.00  0.00    +0.089 C 
ATOM      8  C   UNL     1     -33.788  18.620  -0.125  0.00  0.00    +0.108 C 
ATOM      9  C   UNL     1     -35.292  23.695   0.995  0.00  0.00    +0.029 C 
ATOM     10  C   UNL     1     -33.329  22.585  -0.272  0.00  0.00    +0.111 C 
ATOM     11  C   UNL     1     -31.826  19.842  -1.071  0.00  0.00    +0.131 C 
ATOM     12  C   UNL     1     -35.683  19.760   1.130  0.00  0.00    +0.005 C 
ATOM     13  C   UNL     1     -35.278  18.598   0.231  0.00  0.00    +0.028 C 
ATOM     14  C   UNL     1     -33.773  23.689   0.690  0.00  0.00    +0.032 C 
ATOM     15  C   UNL     1     -35.547  24.588   2.250  0.00  0.00    +0.028 C 
ATOM     16  C   UNL     1     -32.941  18.251   1.126  0.00  0.00    +0.058 C 
ATOM     17  C   UNL     1     -35.231  22.224   2.921  0.00  0.00    +0.027 C 
ATOM     18  C   UNL     1     -31.465  18.169   0.735  0.00  0.00    +0.125 C 
ATOM     19  C   UNL     1     -30.977  19.500   0.159  0.00  0.00    +0.060 C 
ATOM     20  C   UNL     1     -35.239  23.666   3.447  0.00  0.00    +0.007 C 
ATOM     21  C   UNL     1     -32.138  17.524  -1.414  0.00  0.00    +0.296 C 
ATOM     22  C   UNL     1     -36.043  24.197  -0.253  0.00  0.00    +0.003 C 
ATOM     23  C   UNL     1     -31.962  16.428  -2.454  0.00  0.00    +0.096 C 
ENDROOT
BRANCH  15  26
ATOM     24  O   UNL     1     -38.621  26.813   1.875  0.00  0.00    -0.418 OA
ATOM     25  O   UNL     1     -40.685  26.626   2.808  0.00  0.00    -0.244 OA
ATOM     26  C   UNL     1     -36.928  25.165   2.380  0.00  0.00    +0.015 C 
ATOM     27  C   UNL     1     -37.878  24.491   3.226  0.00  0.00    +0.006 C 
ATOM     28  C   UNL     1     -37.331  26.275   1.754  0.00  0.00    +0.179 C 
ATOM     29  C   UNL     1     -39.119  24.963   3.375  0.00  0.00    +0.082 C 
ATOM     30  C   UNL     1     -39.545  26.191   2.673  0.00  0.00    +0.346 C 
ENDBRANCH  15  26
BRANCH   7  31
ATOM     31  O   UNL     1     -37.173  22.231   1.550  0.00  0.00    -0.387 OA
ATOM     32  H   UNL     1     -37.485  22.845   2.233  0.00  0.00    +0.210 HD
ENDBRANCH   7  31
BRANCH  10  33
ATOM     33  O   UNL     1     -31.910  22.683  -0.375  0.00  0.00    -0.384 OA
ATOM     34  H   UNL     1     -31.559  23.129   0.412  0.00  0.00    +0.210 HD
ENDBRANCH  10  33
BRANCH   4  36
ATOM     35  O   UNL     1     -33.520  20.885  -2.981  0.00  0.00    -0.288 OA
ATOM     36  C   UNL     1     -34.024  20.232  -2.073  0.00  0.00    +0.211 C 
ENDBRANCH   4  36
TORSDOF 4
ENDMDL
MODEL 9
REMARK VINA RESULT:      -6.3      3.642      7.667
REMARK  Name = 5462418
REMARK  4 active torsions:
REMARK  status: ('A' for Active; 'I' for Inactive)
REMARK    1  A    between atoms: C_4  and  C_36
REMARK    2  A    between atoms: C_7  and  O_31
REMARK    3  A    between atoms: C_10  and  O_33
REMARK    4  A    between atoms: C_15  and  C_26
REMARK                            x       y       z     vdW  Elec       q    Type
REMARK                         _______ _______ _______ _____ _____    ______ ____
ROOT
ATOM      1  O   UNL     1     -39.489  25.338   0.392  0.00  0.00    -0.317 OA
ATOM      2  O   UNL     1     -39.790  24.964   2.726  0.00  0.00    -0.315 OA
ATOM      3  O   UNL     1     -38.778  26.973   1.976  0.00  0.00    -0.315 OA
ATOM      4  C   UNL     1     -38.232  23.553   1.492  0.00  0.00    +0.109 C 
ATOM      5  C   UNL     1     -36.911  22.693   1.428  0.00  0.00    +0.041 C 
ATOM      6  C   UNL     1     -36.704  22.117  -0.010  0.00  0.00    +0.028 C 
ATOM      7  C   UNL     1     -35.447  21.219  -0.155  0.00  0.00    +0.089 C 
ATOM      8  C   UNL     1     -38.212  24.667   0.392  0.00  0.00    +0.108 C 
ATOM      9  C   UNL     1     -35.329  20.120   0.932  0.00  0.00    +0.029 C 
ATOM     10  C   UNL     1     -36.819  21.560   2.480  0.00  0.00    +0.111 C 
ATOM     11  C   UNL     1     -38.520  24.280   2.840  0.00  0.00    +0.131 C 
ATOM     12  C   UNL     1     -36.718  23.230  -1.081  0.00  0.00    +0.005 C 
ATOM     13  C   UNL     1     -37.969  24.098  -1.010  0.00  0.00    +0.028 C 
ATOM     14  C   UNL     1     -35.534  20.741   2.336  0.00  0.00    +0.032 C 
ATOM     15  C   UNL     1     -33.844  19.656   0.802  0.00  0.00    +0.028 C 
ATOM     16  C   UNL     1     -37.152  25.759   0.709  0.00  0.00    +0.058 C 
ATOM     17  C   UNL     1     -34.105  21.967  -0.052  0.00  0.00    +0.027 C 
ATOM     18  C   UNL     1     -37.468  26.396   2.063  0.00  0.00    +0.125 C 
ATOM     19  C   UNL     1     -37.470  25.345   3.175  0.00  0.00    +0.060 C 
ATOM     20  C   UNL     1     -33.073  20.936   0.425  0.00  0.00    +0.007 C 
ATOM     21  C   UNL     1     -39.733  25.942   1.675  0.00  0.00    +0.296 C 
ATOM     22  C   UNL     1     -36.331  18.962   0.754  0.00  0.00    +0.003 C 
ATOM     23  C   UNL     1     -41.101  26.604   1.604  0.00  0.00    +0.096 C 
ENDROOT
BRANCH  15  26
ATOM     24  O   UNL     1     -32.758  17.775  -2.333  0.00  0.00    -0.418 OA
ATOM     25  O   UNL     1     -32.904  15.564  -2.836  0.00  0.00    -0.244 OA
ATOM     26  C   UNL     1     -33.577  18.572  -0.204  0.00  0.00    +0.015 C 
ATOM     27  C   UNL     1     -33.952  17.222   0.124  0.00  0.00    +0.006 C 
ATOM     28  C   UNL     1     -33.008  18.787  -1.394  0.00  0.00    +0.179 C 
ATOM     29  C   UNL     1     -33.736  16.222  -0.736  0.00  0.00    +0.082 C 
ATOM     30  C   UNL     1     -33.104  16.481  -2.046  0.00  0.00    +0.346 C 
ENDBRANCH  15  26
BRANCH   7  31
ATOM     31  O   UNL     1     -35.470  20.621  -1.460  0.00  0.00    -0.387 OA
ATOM     32  H   UNL     1     -34.819  19.903  -1.498  0.00  0.00    +0.210 HD
ENDBRANCH   7  31
BRANCH  10  33
ATOM     33  O   UNL     1     -36.803  22.111   3.795  0.00  0.00    -0.384 OA
ATOM     34  H   UNL     1     -36.119  21.670   4.322  0.00  0.00    +0.210 HD
ENDBRANCH  10  33
BRANCH   4  36
ATOM     35  O   UNL     1     -40.077  22.151   2.206  0.00  0.00    -0.288 OA
ATOM     36  C   UNL     1     -39.412  22.614   1.285  0.00  0.00    +0.211 C 
ENDBRANCH   4  36
TORSDOF 4
ENDMDL
