MODEL 1
REMARK VINA RESULT:      -6.9      0.000      0.000
REMARK  Name = 5489369
REMARK  8 active torsions:
REMARK  status: ('A' for Active; 'I' for Inactive)
REMARK    1  A    between atoms: C_6  and  C_29
REMARK    2  A    between atoms: C_8  and  C_24
REMARK    3  A    between atoms: C_11  and  O_19
REMARK    4  A    between atoms: C_13  and  C_28
REMARK    5  A    between atoms: C_17  and  O_21
REMARK    6  A    between atoms: C_24  and  O_25
REMARK    7  A    between atoms: C_29  and  O_30
REMARK    8  A    between atoms: O_30  and  C_32
REMARK                            x       y       z     vdW  Elec       q    Type
REMARK                         _______ _______ _______ _____ _____    ______ ____
ROOT
ATOM      1  O   UNL     1     -36.078  24.634   2.107  0.00  0.00    -0.450 OA
ATOM      2  O   UNL     1     -37.180  21.989   2.399  0.00  0.00    -0.418 OA
ATOM      3  O   UNL     1     -35.407  20.868   3.311  0.00  0.00    -0.244 OA
ATOM      4  C   UNL     1     -37.409  24.387   1.908  0.00  0.00    +0.176 A 
ATOM      5  C   UNL     1     -37.962  23.122   2.071  0.00  0.00    +0.185 A 
ATOM      6  C   UNL     1     -39.315  22.895   1.823  0.00  0.00    +0.093 A 
ATOM      7  C   UNL     1     -38.215  25.444   1.482  0.00  0.00    +0.025 A 
ATOM      8  C   UNL     1     -39.574  25.228   1.246  0.00  0.00    +0.108 A 
ATOM      9  C   UNL     1     -35.668  24.394   3.394  0.00  0.00    +0.157 C 
ATOM     10  C   UNL     1     -35.653  23.116   3.950  0.00  0.00    +0.107 C 
ATOM     11  C   UNL     1     -40.123  23.956   1.418  0.00  0.00    +0.142 A 
ATOM     12  C   UNL     1     -35.186  22.939   5.257  0.00  0.00    -0.010 C 
ATOM     13  C   UNL     1     -35.206  25.491   4.129  0.00  0.00    +0.110 C 
ATOM     14  C   UNL     1     -36.036  21.911   3.190  0.00  0.00    +0.348 C 
ATOM     15  C   UNL     1     -37.625  26.803   1.272  0.00  0.00    +0.035 C 
ATOM     16  C   UNL     1     -34.744  24.036   5.999  0.00  0.00    +0.033 C 
ATOM     17  C   UNL     1     -34.752  25.311   5.434  0.00  0.00    +0.139 C 
ATOM     18  C   UNL     1     -35.163  21.606   5.936  0.00  0.00    +0.031 C 
ENDROOT
BRANCH  11  19
ATOM     19  O   UNL     1     -41.451  23.746   1.179  0.00  0.00    -0.505 OA
ATOM     20  H   UNL     1     -41.943  23.176   1.736  0.00  0.00    +0.292 HD
ENDBRANCH  11  19
BRANCH  17  21
ATOM     21  O   UNL     1     -34.304  26.364   6.175  0.00  0.00    -0.505 OA
ATOM     22  H   UNL     1     -34.069  27.167   5.752  0.00  0.00    +0.292 HD
ENDBRANCH  17  21
BRANCH   8  24
ATOM     23  O   UNL     1     -40.866  27.221   1.535  0.00  0.00    -0.245 OA
ATOM     24  C   UNL     1     -40.427  26.329   0.808  0.00  0.00    +0.341 C 
BRANCH  24  25
ATOM     25  O   UNL     1     -40.695  26.274  -0.524  0.00  0.00    -0.477 OA
ATOM     26  H   UNL     1     -41.128  26.991  -0.944  0.00  0.00    +0.295 HD
ENDBRANCH  24  25
ENDBRANCH   8  24
BRANCH  13  28
ATOM     27  O   UNL     1     -34.309  27.655   3.804  0.00  0.00    -0.283 OA
ATOM     28  C   UNL     1     -35.182  26.827   3.543  0.00  0.00    +0.240 C 
ENDBRANCH  13  28
BRANCH   6  29
ATOM     29  C   UNL     1     -39.897  21.527   1.981  0.00  0.00    +0.241 C 
BRANCH  29  30
ATOM     30  O   UNL     1     -40.579  21.166   0.788  0.00  0.00    -0.443 OA
BRANCH  30  32
ATOM     31  O   UNL     1     -38.986  19.774  -0.141  0.00  0.00    -0.250 OA
ATOM     32  C   UNL     1     -39.794  20.689  -0.225  0.00  0.00    +0.318 C 
ATOM     33  C   UNL     1     -40.065  21.455  -1.485  0.00  0.00    +0.121 C 
ENDBRANCH  30  32
ENDBRANCH  29  30
ENDBRANCH   6  29
TORSDOF 8
ENDMDL
MODEL 2
REMARK VINA RESULT:      -6.4      2.226      6.002
REMARK  Name = 5489369
REMARK  8 active torsions:
REMARK  status: ('A' for Active; 'I' for Inactive)
REMARK    1  A    between atoms: C_6  and  C_29
REMARK    2  A    between atoms: C_8  and  C_24
REMARK    3  A    between atoms: C_11  and  O_19
REMARK    4  A    between atoms: C_13  and  C_28
REMARK    5  A    between atoms: C_17  and  O_21
REMARK    6  A    between atoms: C_24  and  O_25
REMARK    7  A    between atoms: C_29  and  O_30
REMARK    8  A    between atoms: O_30  and  C_32
REMARK                            x       y       z     vdW  Elec       q    Type
REMARK                         _______ _______ _______ _____ _____    ______ ____
ROOT
ATOM      1  O   UNL     1     -38.178  21.479   1.778  0.00  0.00    -0.450 OA
ATOM      2  O   UNL     1     -35.886  21.847   3.484  0.00  0.00    -0.418 OA
ATOM      3  O   UNL     1     -34.686  19.953   3.032  0.00  0.00    -0.244 OA
ATOM      4  C   UNL     1     -37.952  22.661   2.429  0.00  0.00    +0.176 A 
ATOM      5  C   UNL     1     -36.838  22.865   3.234  0.00  0.00    +0.185 A 
ATOM      6  C   UNL     1     -36.657  24.068   3.915  0.00  0.00    +0.093 A 
ATOM      7  C   UNL     1     -38.909  23.669   2.306  0.00  0.00    +0.025 A 
ATOM      8  C   UNL     1     -38.728  24.883   2.972  0.00  0.00    +0.108 A 
ATOM      9  C   UNL     1     -37.203  21.168   0.864  0.00  0.00    +0.157 C 
ATOM     10  C   UNL     1     -35.892  20.871   1.236  0.00  0.00    +0.107 C 
ATOM     11  C   UNL     1     -37.603  25.082   3.773  0.00  0.00    +0.142 A 
ATOM     12  C   UNL     1     -34.959  20.526   0.252  0.00  0.00    -0.010 C 
ATOM     13  C   UNL     1     -37.587  21.108  -0.479  0.00  0.00    +0.110 C 
ATOM     14  C   UNL     1     -35.455  20.824   2.644  0.00  0.00    +0.348 C 
ATOM     15  C   UNL     1     -40.129  23.450   1.468  0.00  0.00    +0.035 C 
ATOM     16  C   UNL     1     -35.337  20.485  -1.091  0.00  0.00    +0.033 C 
ATOM     17  C   UNL     1     -36.651  20.774  -1.456  0.00  0.00    +0.139 C 
ATOM     18  C   UNL     1     -33.528  20.219   0.565  0.00  0.00    +0.031 C 
ENDROOT
BRANCH  11  19
ATOM     19  O   UNL     1     -37.432  26.267   4.431  0.00  0.00    -0.505 OA
ATOM     20  H   UNL     1     -36.953  26.291   5.236  0.00  0.00    +0.292 HD
ENDBRANCH  11  19
BRANCH  17  21
ATOM     21  O   UNL     1     -36.999  20.716  -2.773  0.00  0.00    -0.505 OA
ATOM     22  H   UNL     1     -37.437  19.958  -3.109  0.00  0.00    +0.292 HD
ENDBRANCH  17  21
BRANCH   8  24
ATOM     23  O   UNL     1     -39.792  26.740   1.903  0.00  0.00    -0.245 OA
ATOM     24  C   UNL     1     -39.719  25.946   2.843  0.00  0.00    +0.341 C 
BRANCH  24  25
ATOM     25  O   UNL     1     -40.584  25.974   3.891  0.00  0.00    -0.477 OA
ATOM     26  H   UNL     1     -40.363  25.540   4.692  0.00  0.00    +0.295 HD
ENDBRANCH  24  25
ENDBRANCH   8  24
BRANCH  13  28
ATOM     27  O   UNL     1     -39.262  22.208  -1.737  0.00  0.00    -0.283 OA
ATOM     28  C   UNL     1     -38.965  21.380  -0.875  0.00  0.00    +0.240 C 
ENDBRANCH  13  28
BRANCH   6  29
ATOM     29  C   UNL     1     -35.465  24.271   4.795  0.00  0.00    +0.241 C 
BRANCH  29  30
ATOM     30  O   UNL     1     -34.529  25.109   4.130  0.00  0.00    -0.443 OA
BRANCH  30  32
ATOM     31  O   UNL     1     -34.618  27.417   4.110  0.00  0.00    -0.250 OA
ATOM     32  C   UNL     1     -34.362  26.357   4.664  0.00  0.00    +0.318 C 
ATOM     33  C   UNL     1     -33.809  26.247   6.053  0.00  0.00    +0.121 C 
ENDBRANCH  30  32
ENDBRANCH  29  30
ENDBRANCH   6  29
TORSDOF 8
ENDMDL
MODEL 3
REMARK VINA RESULT:      -6.3      3.012      5.928
REMARK  Name = 5489369
REMARK  8 active torsions:
REMARK  status: ('A' for Active; 'I' for Inactive)
REMARK    1  A    between atoms: C_6  and  C_29
REMARK    2  A    between atoms: C_8  and  C_24
REMARK    3  A    between atoms: C_11  and  O_19
REMARK    4  A    between atoms: C_13  and  C_28
REMARK    5  A    between atoms: C_17  and  O_21
REMARK    6  A    between atoms: C_24  and  O_25
REMARK    7  A    between atoms: C_29  and  O_30
REMARK    8  A    between atoms: O_30  and  C_32
REMARK                            x       y       z     vdW  Elec       q    Type
REMARK                         _______ _______ _______ _____ _____    ______ ____
ROOT
ATOM      1  O   UNL     1     -34.370  28.078   1.679  0.00  0.00    -0.450 OA
ATOM      2  O   UNL     1     -33.395  26.640   3.977  0.00  0.00    -0.418 OA
ATOM      3  O   UNL     1     -31.313  27.555   4.223  0.00  0.00    -0.244 OA
ATOM      4  C   UNL     1     -35.190  27.271   2.420  0.00  0.00    +0.176 A 
ATOM      5  C   UNL     1     -34.743  26.591   3.546  0.00  0.00    +0.185 A 
ATOM      6  C   UNL     1     -35.593  25.744   4.256  0.00  0.00    +0.093 A 
ATOM      7  C   UNL     1     -36.505  27.099   1.985  0.00  0.00    +0.025 A 
ATOM      8  C   UNL     1     -37.368  26.265   2.700  0.00  0.00    +0.108 A 
ATOM      9  C   UNL     1     -33.881  29.149   2.386  0.00  0.00    +0.157 C 
ATOM     10  C   UNL     1     -32.998  29.001   3.455  0.00  0.00    +0.107 C 
ATOM     11  C   UNL     1     -36.913  25.591   3.834  0.00  0.00    +0.142 A 
ATOM     12  C   UNL     1     -32.510  30.140   4.106  0.00  0.00    -0.010 C 
ATOM     13  C   UNL     1     -34.266  30.423   1.956  0.00  0.00    +0.110 C 
ATOM     14  C   UNL     1     -32.484  27.689   3.889  0.00  0.00    +0.348 C 
ATOM     15  C   UNL     1     -36.989  27.800   0.755  0.00  0.00    +0.035 C 
ATOM     16  C   UNL     1     -32.910  31.412   3.691  0.00  0.00    +0.033 C 
ATOM     17  C   UNL     1     -33.785  31.553   2.615  0.00  0.00    +0.139 C 
ATOM     18  C   UNL     1     -31.582  30.068   5.278  0.00  0.00    +0.031 C 
ENDROOT
BRANCH  11  19
ATOM     19  O   UNL     1     -37.756  24.769   4.526  0.00  0.00    -0.505 OA
ATOM     20  H   UNL     1     -37.414  24.030   4.989  0.00  0.00    +0.292 HD
ENDBRANCH  11  19
BRANCH  17  21
ATOM     21  O   UNL     1     -34.150  32.806   2.221  0.00  0.00    -0.505 OA
ATOM     22  H   UNL     1     -33.744  33.556   2.610  0.00  0.00    +0.292 HD
ENDBRANCH  17  21
BRANCH   8  24
ATOM     23  O   UNL     1     -39.094  25.502   1.230  0.00  0.00    -0.245 OA
ATOM     24  C   UNL     1     -38.747  26.086   2.258  0.00  0.00    +0.341 C 
BRANCH  24  25
ATOM     25  O   UNL     1     -39.640  26.640   3.120  0.00  0.00    -0.477 OA
ATOM     26  H   UNL     1     -40.560  26.579   2.945  0.00  0.00    +0.295 HD
ENDBRANCH  24  25
ENDBRANCH   8  24
BRANCH  13  28
ATOM     27  O   UNL     1     -36.189  31.262   0.864  0.00  0.00    -0.283 OA
ATOM     28  C   UNL     1     -35.159  30.589   0.815  0.00  0.00    +0.240 C 
ENDBRANCH  13  28
BRANCH   6  29
ATOM     29  C   UNL     1     -35.098  25.002   5.455  0.00  0.00    +0.241 C 
BRANCH  29  30
ATOM     30  O   UNL     1     -34.481  23.791   5.036  0.00  0.00    -0.443 OA
BRANCH  30  32
ATOM     31  O   UNL     1     -35.933  22.247   4.117  0.00  0.00    -0.250 OA
ATOM     32  C   UNL     1     -35.278  22.680   5.055  0.00  0.00    +0.318 C 
ATOM     33  C   UNL     1     -35.239  22.048   6.414  0.00  0.00    +0.121 C 
ENDBRANCH  30  32
ENDBRANCH  29  30
ENDBRANCH   6  29
TORSDOF 8
ENDMDL
MODEL 4
REMARK VINA RESULT:      -6.2      3.563      6.311
REMARK  Name = 5489369
REMARK  8 active torsions:
REMARK  status: ('A' for Active; 'I' for Inactive)
REMARK    1  A    between atoms: C_6  and  C_29
REMARK    2  A    between atoms: C_8  and  C_24
REMARK    3  A    between atoms: C_11  and  O_19
REMARK    4  A    between atoms: C_13  and  C_28
REMARK    5  A    between atoms: C_17  and  O_21
REMARK    6  A    between atoms: C_24  and  O_25
REMARK    7  A    between atoms: C_29  and  O_30
REMARK    8  A    between atoms: O_30  and  C_32
REMARK                            x       y       z     vdW  Elec       q    Type
REMARK                         _______ _______ _______ _____ _____    ______ ____
ROOT
ATOM      1  O   UNL     1     -32.573  28.093   2.670  0.00  0.00    -0.450 OA
ATOM      2  O   UNL     1     -33.171  26.763   5.154  0.00  0.00    -0.418 OA
ATOM      3  O   UNL     1     -31.356  27.347   6.418  0.00  0.00    -0.244 OA
ATOM      4  C   UNL     1     -33.792  27.512   2.896  0.00  0.00    +0.176 A 
ATOM      5  C   UNL     1     -34.106  26.889   4.098  0.00  0.00    +0.185 A 
ATOM      6  C   UNL     1     -35.342  26.271   4.284  0.00  0.00    +0.093 A 
ATOM      7  C   UNL     1     -34.720  27.512   1.855  0.00  0.00    +0.025 A 
ATOM      8  C   UNL     1     -35.967  26.909   2.037  0.00  0.00    +0.108 A 
ATOM      9  C   UNL     1     -32.305  29.137   3.519  0.00  0.00    +0.157 C 
ATOM     10  C   UNL     1     -32.119  28.960   4.890  0.00  0.00    +0.107 C 
ATOM     11  C   UNL     1     -36.277  26.292   3.250  0.00  0.00    +0.142 A 
ATOM     12  C   UNL     1     -31.810  30.066   5.690  0.00  0.00    -0.010 C 
ATOM     13  C   UNL     1     -32.170  30.405   2.944  0.00  0.00    +0.110 C 
ATOM     14  C   UNL     1     -32.153  27.634   5.534  0.00  0.00    +0.348 C 
ATOM     15  C   UNL     1     -34.382  28.150   0.544  0.00  0.00    +0.035 C 
ATOM     16  C   UNL     1     -31.695  31.335   5.120  0.00  0.00    +0.033 C 
ATOM     17  C   UNL     1     -31.873  31.504   3.748  0.00  0.00    +0.139 C 
ATOM     18  C   UNL     1     -31.622  29.966   7.171  0.00  0.00    +0.031 C 
ENDROOT
BRANCH  11  19
ATOM     19  O   UNL     1     -37.493  25.695   3.423  0.00  0.00    -0.505 OA
ATOM     20  H   UNL     1     -38.270  26.115   3.111  0.00  0.00    +0.292 HD
ENDBRANCH  11  19
BRANCH  17  21
ATOM     21  O   UNL     1     -31.743  32.751   3.214  0.00  0.00    -0.505 OA
ATOM     22  H   UNL     1     -31.923  32.892   2.305  0.00  0.00    +0.292 HD
ENDBRANCH  17  21
BRANCH   8  24
ATOM     23  O   UNL     1     -36.950  26.139  -0.003  0.00  0.00    -0.245 OA
ATOM     24  C   UNL     1     -36.948  26.911   0.957  0.00  0.00    +0.341 C 
BRANCH  24  25
ATOM     25  O   UNL     1     -37.891  27.877   1.119  0.00  0.00    -0.477 OA
ATOM     26  H   UNL     1     -37.727  28.748   0.813  0.00  0.00    +0.295 HD
ENDBRANCH  24  25
ENDBRANCH   8  24
BRANCH  13  28
ATOM     27  O   UNL     1     -33.111  31.407   1.019  0.00  0.00    -0.283 OA
ATOM     28  C   UNL     1     -32.325  30.594   1.506  0.00  0.00    +0.240 C 
ENDBRANCH  13  28
BRANCH   6  29
ATOM     29  C   UNL     1     -35.663  25.587   5.573  0.00  0.00    +0.241 C 
BRANCH  29  30
ATOM     30  O   UNL     1     -34.960  24.353   5.637  0.00  0.00    -0.443 OA
BRANCH  30  32
ATOM     31  O   UNL     1     -36.633  23.104   4.648  0.00  0.00    -0.250 OA
ATOM     32  C   UNL     1     -35.714  23.228   5.446  0.00  0.00    +0.318 C 
ATOM     33  C   UNL     1     -35.250  22.141   6.369  0.00  0.00    +0.121 C 
ENDBRANCH  30  32
ENDBRANCH  29  30
ENDBRANCH   6  29
TORSDOF 8
ENDMDL
MODEL 5
REMARK VINA RESULT:      -6.2      3.803      7.429
REMARK  Name = 5489369
REMARK  8 active torsions:
REMARK  status: ('A' for Active; 'I' for Inactive)
REMARK    1  A    between atoms: C_6  and  C_29
REMARK    2  A    between atoms: C_8  and  C_24
REMARK    3  A    between atoms: C_11  and  O_19
REMARK    4  A    between atoms: C_13  and  C_28
REMARK    5  A    between atoms: C_17  and  O_21
REMARK    6  A    between atoms: C_24  and  O_25
REMARK    7  A    between atoms: C_29  and  O_30
REMARK    8  A    between atoms: O_30  and  C_32
REMARK                            x       y       z     vdW  Elec       q    Type
REMARK                         _______ _______ _______ _____ _____    ______ ____
ROOT
ATOM      1  O   UNL     1     -35.332  23.308   1.613  0.00  0.00    -0.450 OA
ATOM      2  O   UNL     1     -34.118  25.908   1.866  0.00  0.00    -0.418 OA
ATOM      3  O   UNL     1     -35.386  26.830   3.531  0.00  0.00    -0.244 OA
ATOM      4  C   UNL     1     -34.163  23.618   0.971  0.00  0.00    +0.176 A 
ATOM      5  C   UNL     1     -33.550  24.859   1.103  0.00  0.00    +0.185 A 
ATOM      6  C   UNL     1     -32.381  25.158   0.405  0.00  0.00    +0.093 A 
ATOM      7  C   UNL     1     -33.609  22.660   0.122  0.00  0.00    +0.025 A 
ATOM      8  C   UNL     1     -32.429  22.946  -0.569  0.00  0.00    +0.108 A 
ATOM      9  C   UNL     1     -35.224  23.340   2.981  0.00  0.00    +0.157 C 
ATOM     10  C   UNL     1     -34.990  24.519   3.687  0.00  0.00    +0.107 C 
ATOM     11  C   UNL     1     -31.816  24.192  -0.426  0.00  0.00    +0.142 A 
ATOM     12  C   UNL     1     -34.930  24.484   5.085  0.00  0.00    -0.010 C 
ATOM     13  C   UNL     1     -35.412  22.133   3.662  0.00  0.00    +0.110 C 
ATOM     14  C   UNL     1     -34.881  25.834   3.029  0.00  0.00    +0.348 C 
ATOM     15  C   UNL     1     -34.277  21.333  -0.055  0.00  0.00    +0.035 C 
ATOM     16  C   UNL     1     -35.098  23.276   5.764  0.00  0.00    +0.033 C 
ATOM     17  C   UNL     1     -35.341  22.102   5.053  0.00  0.00    +0.139 C 
ATOM     18  C   UNL     1     -34.656  25.698   5.915  0.00  0.00    +0.031 C 
ENDROOT
BRANCH  11  19
ATOM     19  O   UNL     1     -30.668  24.472  -1.109  0.00  0.00    -0.505 OA
ATOM     20  H   UNL     1     -30.248  23.804  -1.614  0.00  0.00    +0.292 HD
ENDBRANCH  11  19
BRANCH  17  21
ATOM     21  O   UNL     1     -35.513  20.937   5.740  0.00  0.00    -0.505 OA
ATOM     22  H   UNL     1     -36.291  20.429   5.613  0.00  0.00    +0.292 HD
ENDBRANCH  17  21
BRANCH   8  24
ATOM     23  O   UNL     1     -32.207  21.709  -2.605  0.00  0.00    -0.245 OA
ATOM     24  C   UNL     1     -31.837  21.948  -1.454  0.00  0.00    +0.341 C 
BRANCH  24  25
ATOM     25  O   UNL     1     -30.803  21.289  -0.868  0.00  0.00    -0.477 OA
ATOM     26  H   UNL     1     -29.922  21.466  -1.135  0.00  0.00    +0.295 HD
ENDBRANCH  24  25
ENDBRANCH   8  24
BRANCH  13  28
ATOM     27  O   UNL     1     -34.899  19.964   2.870  0.00  0.00    -0.283 OA
ATOM     28  C   UNL     1     -35.696  20.901   2.934  0.00  0.00    +0.240 C 
ENDBRANCH  13  28
BRANCH   6  29
ATOM     29  C   UNL     1     -31.740  26.502   0.539  0.00  0.00    +0.241 C 
BRANCH  29  30
ATOM     30  O   UNL     1     -30.393  26.338   0.965  0.00  0.00    -0.443 OA
BRANCH  30  32
ATOM     31  O   UNL     1     -29.266  26.147   2.972  0.00  0.00    -0.250 OA
ATOM     32  C   UNL     1     -30.143  26.638   2.276  0.00  0.00    +0.318 C 
ATOM     33  C   UNL     1     -31.113  27.676   2.755  0.00  0.00    +0.121 C 
ENDBRANCH  30  32
ENDBRANCH  29  30
ENDBRANCH   6  29
TORSDOF 8
ENDMDL
MODEL 6
REMARK VINA RESULT:      -6.0      2.136      5.245
REMARK  Name = 5489369
REMARK  8 active torsions:
REMARK  status: ('A' for Active; 'I' for Inactive)
REMARK    1  A    between atoms: C_6  and  C_29
REMARK    2  A    between atoms: C_8  and  C_24
REMARK    3  A    between atoms: C_11  and  O_19
REMARK    4  A    between atoms: C_13  and  C_28
REMARK    5  A    between atoms: C_17  and  O_21
REMARK    6  A    between atoms: C_24  and  O_25
REMARK    7  A    between atoms: C_29  and  O_30
REMARK    8  A    between atoms: O_30  and  C_32
REMARK                            x       y       z     vdW  Elec       q    Type
REMARK                         _______ _______ _______ _____ _____    ______ ____
ROOT
ATOM      1  O   UNL     1     -35.511  26.908   4.280  0.00  0.00    -0.450 OA
ATOM      2  O   UNL     1     -37.269  26.552   2.026  0.00  0.00    -0.418 OA
ATOM      3  O   UNL     1     -37.192  28.629   1.071  0.00  0.00    -0.244 OA
ATOM      4  C   UNL     1     -35.980  25.672   3.925  0.00  0.00    +0.176 A 
ATOM      5  C   UNL     1     -36.808  25.479   2.826  0.00  0.00    +0.185 A 
ATOM      6  C   UNL     1     -37.301  24.213   2.514  0.00  0.00    +0.093 A 
ATOM      7  C   UNL     1     -35.644  24.587   4.736  0.00  0.00    +0.025 A 
ATOM      8  C   UNL     1     -36.121  23.313   4.422  0.00  0.00    +0.108 A 
ATOM      9  C   UNL     1     -34.715  27.481   3.320  0.00  0.00    +0.157 C 
ATOM     10  C   UNL     1     -35.207  27.874   2.075  0.00  0.00    +0.107 C 
ATOM     11  C   UNL     1     -36.946  23.126   3.312  0.00  0.00    +0.142 A 
ATOM     12  C   UNL     1     -34.346  28.488   1.158  0.00  0.00    -0.010 C 
ATOM     13  C   UNL     1     -33.378  27.711   3.657  0.00  0.00    +0.110 C 
ATOM     14  C   UNL     1     -36.628  27.745   1.703  0.00  0.00    +0.348 C 
ATOM     15  C   UNL     1     -34.780  24.786   5.941  0.00  0.00    +0.035 C 
ATOM     16  C   UNL     1     -33.006  28.700   1.487  0.00  0.00    +0.033 C 
ATOM     17  C   UNL     1     -32.523  28.314   2.736  0.00  0.00    +0.139 C 
ATOM     18  C   UNL     1     -34.787  28.914  -0.207  0.00  0.00    +0.031 C 
ENDROOT
BRANCH  11  19
ATOM     19  O   UNL     1     -37.419  21.881   3.012  0.00  0.00    -0.505 OA
ATOM     20  H   UNL     1     -38.287  21.778   2.675  0.00  0.00    +0.292 HD
ENDBRANCH  11  19
BRANCH  17  21
ATOM     21  O   UNL     1     -31.213  28.543   3.037  0.00  0.00    -0.505 OA
ATOM     22  H   UNL     1     -30.918  28.473   3.924  0.00  0.00    +0.292 HD
ENDBRANCH  17  21
BRANCH   8  24
ATOM     23  O   UNL     1     -35.933  22.104   6.478  0.00  0.00    -0.245 OA
ATOM     24  C   UNL     1     -35.768  22.170   5.259  0.00  0.00    +0.341 C 
BRANCH  24  25
ATOM     25  O   UNL     1     -35.226  21.152   4.539  0.00  0.00    -0.477 OA
ATOM     26  H   UNL     1     -34.303  21.135   4.374  0.00  0.00    +0.295 HD
ENDBRANCH  24  25
ENDBRANCH   8  24
BRANCH  13  28
ATOM     27  O   UNL     1     -32.528  28.168   5.817  0.00  0.00    -0.283 OA
ATOM     28  C   UNL     1     -32.863  27.339   4.971  0.00  0.00    +0.240 C 
ENDBRANCH  13  28
BRANCH   6  29
ATOM     29  C   UNL     1     -38.207  24.018   1.340  0.00  0.00    +0.241 C 
BRANCH  29  30
ATOM     30  O   UNL     1     -39.519  23.727   1.804  0.00  0.00    -0.443 OA
BRANCH  30  32
ATOM     31  O   UNL     1     -40.622  22.037   0.681  0.00  0.00    -0.250 OA
ATOM     32  C   UNL     1     -40.381  23.221   0.871  0.00  0.00    +0.318 C 
ATOM     33  C   UNL     1     -41.007  24.340   0.095  0.00  0.00    +0.121 C 
ENDBRANCH  30  32
ENDBRANCH  29  30
ENDBRANCH   6  29
TORSDOF 8
ENDMDL
MODEL 7
REMARK VINA RESULT:      -6.0      4.006      6.050
REMARK  Name = 5489369
REMARK  8 active torsions:
REMARK  status: ('A' for Active; 'I' for Inactive)
REMARK    1  A    between atoms: C_6  and  C_29
REMARK    2  A    between atoms: C_8  and  C_24
REMARK    3  A    between atoms: C_11  and  O_19
REMARK    4  A    between atoms: C_13  and  C_28
REMARK    5  A    between atoms: C_17  and  O_21
REMARK    6  A    between atoms: C_24  and  O_25
REMARK    7  A    between atoms: C_29  and  O_30
REMARK    8  A    between atoms: O_30  and  C_32
REMARK                            x       y       z     vdW  Elec       q    Type
REMARK                         _______ _______ _______ _____ _____    ______ ____
ROOT
ATOM      1  O   UNL     1     -33.835  22.611  -0.753  0.00  0.00    -0.450 OA
ATOM      2  O   UNL     1     -35.630  21.305   1.083  0.00  0.00    -0.418 OA
ATOM      3  O   UNL     1     -35.445  19.127   0.411  0.00  0.00    -0.244 OA
ATOM      4  C   UNL     1     -34.375  23.276   0.315  0.00  0.00    +0.176 A 
ATOM      5  C   UNL     1     -35.222  22.654   1.225  0.00  0.00    +0.185 A 
ATOM      6  C   UNL     1     -35.788  23.368   2.280  0.00  0.00    +0.093 A 
ATOM      7  C   UNL     1     -34.093  24.635   0.451  0.00  0.00    +0.025 A 
ATOM      8  C   UNL     1     -34.643  25.354   1.514  0.00  0.00    +0.108 A 
ATOM      9  C   UNL     1     -33.017  21.572  -0.388  0.00  0.00    +0.157 C 
ATOM     10  C   UNL     1     -33.496  20.430   0.254  0.00  0.00    +0.107 C 
ATOM     11  C   UNL     1     -35.487  24.721   2.428  0.00  0.00    +0.142 A 
ATOM     12  C   UNL     1     -32.611  19.392   0.564  0.00  0.00    -0.010 C 
ATOM     13  C   UNL     1     -31.666  21.674  -0.733  0.00  0.00    +0.110 C 
ATOM     14  C   UNL     1     -34.925  20.227   0.556  0.00  0.00    +0.348 C 
ATOM     15  C   UNL     1     -33.210  25.324  -0.541  0.00  0.00    +0.035 C 
ATOM     16  C   UNL     1     -31.258  19.502   0.237  0.00  0.00    +0.033 C 
ATOM     17  C   UNL     1     -30.787  20.642  -0.413  0.00  0.00    +0.139 C 
ATOM     18  C   UNL     1     -33.039  18.147   1.275  0.00  0.00    +0.031 C 
ENDROOT
BRANCH  11  19
ATOM     19  O   UNL     1     -36.031  25.428   3.461  0.00  0.00    -0.505 OA
ATOM     20  H   UNL     1     -36.113  25.034   4.307  0.00  0.00    +0.292 HD
ENDBRANCH  11  19
BRANCH  17  21
ATOM     21  O   UNL     1     -29.464  20.720  -0.733  0.00  0.00    -0.505 OA
ATOM     22  H   UNL     1     -29.116  21.510  -1.100  0.00  0.00    +0.292 HD
ENDBRANCH  17  21
BRANCH   8  24
ATOM     23  O   UNL     1     -33.311  27.238   2.149  0.00  0.00    -0.245 OA
ATOM     24  C   UNL     1     -34.348  26.775   1.669  0.00  0.00    +0.341 C 
BRANCH  24  25
ATOM     25  O   UNL     1     -35.358  27.564   1.217  0.00  0.00    -0.477 OA
ATOM     26  H   UNL     1     -36.151  27.640   1.711  0.00  0.00    +0.295 HD
ENDBRANCH  24  25
ENDBRANCH   8  24
BRANCH  13  28
ATOM     27  O   UNL     1     -30.209  23.515  -1.033  0.00  0.00    -0.283 OA
ATOM     28  C   UNL     1     -31.162  22.848  -1.439  0.00  0.00    +0.240 C 
ENDBRANCH  13  28
BRANCH   6  29
ATOM     29  C   UNL     1     -36.713  22.695   3.243  0.00  0.00    +0.241 C 
BRANCH  29  30
ATOM     30  O   UNL     1     -36.221  22.870   4.565  0.00  0.00    -0.443 OA
BRANCH  30  32
ATOM     31  O   UNL     1     -35.138  20.832   4.457  0.00  0.00    -0.250 OA
ATOM     32  C   UNL     1     -35.488  21.831   5.070  0.00  0.00    +0.318 C 
ATOM     33  C   UNL     1     -35.163  22.089   6.510  0.00  0.00    +0.121 C 
ENDBRANCH  30  32
ENDBRANCH  29  30
ENDBRANCH   6  29
TORSDOF 8
ENDMDL
MODEL 8
REMARK VINA RESULT:      -5.9      3.335      5.604
REMARK  Name = 5489369
REMARK  8 active torsions:
REMARK  status: ('A' for Active; 'I' for Inactive)
REMARK    1  A    between atoms: C_6  and  C_29
REMARK    2  A    between atoms: C_8  and  C_24
REMARK    3  A    between atoms: C_11  and  O_19
REMARK    4  A    between atoms: C_13  and  C_28
REMARK    5  A    between atoms: C_17  and  O_21
REMARK    6  A    between atoms: C_24  and  O_25
REMARK    7  A    between atoms: C_29  and  O_30
REMARK    8  A    between atoms: O_30  and  C_32
REMARK                            x       y       z     vdW  Elec       q    Type
REMARK                         _______ _______ _______ _____ _____    ______ ____
ROOT
ATOM      1  O   UNL     1     -35.103  25.949   3.139  0.00  0.00    -0.450 OA
ATOM      2  O   UNL     1     -35.657  24.503   0.710  0.00  0.00    -0.418 OA
ATOM      3  O   UNL     1     -35.280  26.118  -0.865  0.00  0.00    -0.244 OA
ATOM      4  C   UNL     1     -35.296  24.594   3.141  0.00  0.00    +0.176 A 
ATOM      5  C   UNL     1     -35.539  23.877   1.975  0.00  0.00    +0.185 A 
ATOM      6  C   UNL     1     -35.771  22.503   2.015  0.00  0.00    +0.093 A 
ATOM      7  C   UNL     1     -35.295  23.935   4.370  0.00  0.00    +0.025 A 
ATOM      8  C   UNL     1     -35.511  22.556   4.417  0.00  0.00    +0.108 A 
ATOM      9  C   UNL     1     -33.997  26.338   2.425  0.00  0.00    +0.157 C 
ATOM     10  C   UNL     1     -33.907  26.186   1.041  0.00  0.00    +0.107 C 
ATOM     11  C   UNL     1     -35.747  21.842   3.242  0.00  0.00    +0.142 A 
ATOM     12  C   UNL     1     -32.764  26.640   0.372  0.00  0.00    -0.010 C 
ATOM     13  C   UNL     1     -32.963  26.952   3.138  0.00  0.00    +0.110 C 
ATOM     14  C   UNL     1     -35.005  25.634   0.227  0.00  0.00    +0.348 C 
ATOM     15  C   UNL     1     -35.068  24.700   5.635  0.00  0.00    +0.035 C 
ATOM     16  C   UNL     1     -31.723  27.235   1.087  0.00  0.00    +0.033 C 
ATOM     17  C   UNL     1     -31.823  27.393   2.468  0.00  0.00    +0.139 C 
ATOM     18  C   UNL     1     -32.577  26.490  -1.105  0.00  0.00    +0.031 C 
ENDROOT
BRANCH  11  19
ATOM     19  O   UNL     1     -35.968  20.495   3.291  0.00  0.00    -0.505 OA
ATOM     20  H   UNL     1     -36.609  20.105   2.731  0.00  0.00    +0.292 HD
ENDBRANCH  11  19
BRANCH  17  21
ATOM     21  O   UNL     1     -30.798  27.988   3.141  0.00  0.00    -0.505 OA
ATOM     22  H   UNL     1     -30.123  27.464   3.524  0.00  0.00    +0.292 HD
ENDBRANCH  17  21
BRANCH   8  24
ATOM     23  O   UNL     1     -36.231  22.119   6.657  0.00  0.00    -0.245 OA
ATOM     24  C   UNL     1     -35.504  21.856   5.698  0.00  0.00    +0.341 C 
BRANCH  24  25
ATOM     25  O   UNL     1     -34.589  20.851   5.730  0.00  0.00    -0.477 OA
ATOM     26  H   UNL     1     -33.781  20.967   6.192  0.00  0.00    +0.295 HD
ENDBRANCH  24  25
ENDBRANCH   8  24
BRANCH  13  28
ATOM     27  O   UNL     1     -32.895  28.246   5.117  0.00  0.00    -0.283 OA
ATOM     28  C   UNL     1     -33.065  27.151   4.580  0.00  0.00    +0.240 C 
ENDBRANCH  13  28
BRANCH   6  29
ATOM     29  C   UNL     1     -36.050  21.743   0.758  0.00  0.00    +0.241 C 
BRANCH  29  30
ATOM     30  O   UNL     1     -35.145  20.652   0.659  0.00  0.00    -0.443 OA
BRANCH  30  32
ATOM     31  O   UNL     1     -33.714  21.795  -0.749  0.00  0.00    -0.250 OA
ATOM     32  C   UNL     1     -33.933  20.932   0.090  0.00  0.00    +0.318 C 
ATOM     33  C   UNL     1     -32.884  20.019   0.648  0.00  0.00    +0.121 C 
ENDBRANCH  30  32
ENDBRANCH  29  30
ENDBRANCH   6  29
TORSDOF 8
ENDMDL
MODEL 9
REMARK VINA RESULT:      -5.8      3.430      5.853
REMARK  Name = 5489369
REMARK  8 active torsions:
REMARK  status: ('A' for Active; 'I' for Inactive)
REMARK    1  A    between atoms: C_6  and  C_29
REMARK    2  A    between atoms: C_8  and  C_24
REMARK    3  A    between atoms: C_11  and  O_19
REMARK    4  A    between atoms: C_13  and  C_28
REMARK    5  A    between atoms: C_17  and  O_21
REMARK    6  A    between atoms: C_24  and  O_25
REMARK    7  A    between atoms: C_29  and  O_30
REMARK    8  A    between atoms: O_30  and  C_32
REMARK                            x       y       z     vdW  Elec       q    Type
REMARK                         _______ _______ _______ _____ _____    ______ ____
ROOT
ATOM      1  O   UNL     1     -34.300  24.871  -0.191  0.00  0.00    -0.450 OA
ATOM      2  O   UNL     1     -36.202  23.372   1.368  0.00  0.00    -0.418 OA
ATOM      3  O   UNL     1     -36.401  21.468   0.117  0.00  0.00    -0.244 OA
ATOM      4  C   UNL     1     -34.679  25.278   1.059  0.00  0.00    +0.176 A 
ATOM      5  C   UNL     1     -35.576  24.553   1.836  0.00  0.00    +0.185 A 
ATOM      6  C   UNL     1     -35.973  25.014   3.090  0.00  0.00    +0.093 A 
ATOM      7  C   UNL     1     -34.175  26.489   1.534  0.00  0.00    +0.025 A 
ATOM      8  C   UNL     1     -34.556  26.951   2.796  0.00  0.00    +0.108 A 
ATOM      9  C   UNL     1     -33.645  23.664  -0.194  0.00  0.00    +0.157 C 
ATOM     10  C   UNL     1     -34.275  22.469   0.153  0.00  0.00    +0.107 C 
ATOM     11  C   UNL     1     -35.452  26.214   3.572  0.00  0.00    +0.142 A 
ATOM     12  C   UNL     1     -33.556  21.270   0.092  0.00  0.00    -0.010 C 
ATOM     13  C   UNL     1     -32.312  23.665  -0.614  0.00  0.00    +0.110 C 
ATOM     14  C   UNL     1     -35.704  22.396   0.510  0.00  0.00    +0.348 C 
ATOM     15  C   UNL     1     -33.235  27.295   0.694  0.00  0.00    +0.035 C 
ATOM     16  C   UNL     1     -32.219  21.273  -0.308  0.00  0.00    +0.033 C 
ATOM     17  C   UNL     1     -31.598  22.469  -0.663  0.00  0.00    +0.139 C 
ATOM     18  C   UNL     1     -34.149  19.950   0.472  0.00  0.00    +0.031 C 
ENDROOT
BRANCH  11  19
ATOM     19  O   UNL     1     -35.829  26.672   4.802  0.00  0.00    -0.505 OA
ATOM     20  H   UNL     1     -36.437  26.181   5.318  0.00  0.00    +0.292 HD
ENDBRANCH  11  19
BRANCH  17  21
ATOM     21  O   UNL     1     -30.294  22.444  -1.062  0.00  0.00    -0.505 OA
ATOM     22  H   UNL     1     -29.698  21.832  -0.675  0.00  0.00    +0.292 HD
ENDBRANCH  17  21
BRANCH   8  24
ATOM     23  O   UNL     1     -32.873  28.396   3.692  0.00  0.00    -0.245 OA
ATOM     24  C   UNL     1     -34.029  28.213   3.305  0.00  0.00    +0.341 C 
BRANCH  24  25
ATOM     25  O   UNL     1     -34.964  29.199   3.308  0.00  0.00    -0.477 OA
ATOM     26  H   UNL     1     -35.200  29.623   2.505  0.00  0.00    +0.295 HD
ENDBRANCH  24  25
ENDBRANCH   8  24
BRANCH  13  28
ATOM     27  O   UNL     1     -30.592  25.288  -0.525  0.00  0.00    -0.283 OA
ATOM     28  C   UNL     1     -31.655  24.905  -1.015  0.00  0.00    +0.240 C 
ENDBRANCH  13  28
BRANCH   6  29
ATOM     29  C   UNL     1     -36.952  24.238   3.910  0.00  0.00    +0.241 C 
BRANCH  29  30
ATOM     30  O   UNL     1     -36.322  23.807   5.109  0.00  0.00    -0.443 OA
BRANCH  30  32
ATOM     31  O   UNL     1     -35.645  21.852   4.080  0.00  0.00    -0.250 OA
ATOM     32  C   UNL     1     -35.756  22.562   5.070  0.00  0.00    +0.318 C 
ATOM     33  C   UNL     1     -35.279  22.177   6.437  0.00  0.00    +0.121 C 
ENDBRANCH  30  32
ENDBRANCH  29  30
ENDBRANCH   6  29
TORSDOF 8
ENDMDL
