MODEL 1
REMARK VINA RESULT:      -7.4      0.000      0.000
REMARK  Name = 54688686
REMARK  6 active torsions:
REMARK  status: ('A' for Active; 'I' for Inactive)
REMARK    1  A    between atoms: C_4  and  O_30
REMARK    2  A    between atoms: C_7  and  N_26
REMARK    3  A    between atoms: C_11  and  O_32
REMARK    4  A    between atoms: C_13  and  C_23
REMARK    5  A    between atoms: C_14  and  O_34
REMARK    6  A    between atoms: C_18  and  O_36
REMARK                            x       y       z     vdW  Elec       q    Type
REMARK                         _______ _______ _______ _____ _____    ______ ____
ROOT
ATOM      1  O   UNL     1     -34.939  24.341   5.064  0.00  0.00    -0.288 OA
ATOM      2  O   UNL     1     -38.035  27.678   0.366  0.00  0.00    -0.293 OA
ATOM      3  C   UNL     1     -35.123  26.407   2.102  0.00  0.00    +0.031 C 
ATOM      4  C   UNL     1     -35.797  25.916   3.407  0.00  0.00    +0.192 C 
ATOM      5  C   UNL     1     -34.918  25.274   1.057  0.00  0.00    +0.028 C 
ATOM      6  C   UNL     1     -34.142  24.098   1.667  0.00  0.00    -0.016 C 
ATOM      7  C   UNL     1     -35.914  27.558   1.459  0.00  0.00    +0.009 C 
ATOM      8  C   UNL     1     -34.937  23.576   2.824  0.00  0.00    +0.067 C 
ATOM      9  C   UNL     1     -35.180  24.591   3.886  0.00  0.00    +0.206 C 
ATOM     10  C   UNL     1     -33.768  23.028   0.627  0.00  0.00    -0.004 C 
ATOM     11  C   UNL     1     -37.301  25.751   3.285  0.00  0.00    +0.149 C 
ATOM     12  C   UNL     1     -37.377  27.195   1.288  0.00  0.00    +0.161 C 
ATOM     13  C   UNL     1     -38.033  26.290   2.287  0.00  0.00    +0.118 C 
ATOM     14  C   UNL     1     -35.512  22.363   2.888  0.00  0.00    +0.139 C 
ATOM     15  C   UNL     1     -34.639  21.797   0.619  0.00  0.00    +0.006 C 
ATOM     16  C   UNL     1     -35.433  21.454   1.729  0.00  0.00    +0.067 C 
ATOM     17  C   UNL     1     -34.582  20.939  -0.493  0.00  0.00    +0.000 C 
ATOM     18  C   UNL     1     -36.165  20.254   1.690  0.00  0.00    +0.136 C 
ATOM     19  C   UNL     1     -35.318  19.757  -0.515  0.00  0.00    +0.003 C 
ATOM     20  C   UNL     1     -36.108  19.415   0.576  0.00  0.00    +0.037 C 
ENDROOT
BRANCH  13  23
ATOM     21  O   UNL     1     -40.276  26.470   2.989  0.00  0.00    -0.270 OA
ATOM     22  N   UNL     1     -39.802  25.252   1.086  0.00  0.00    -0.325 N 
ATOM     23  C   UNL     1     -39.480  26.025   2.173  0.00  0.00    +0.248 C 
ATOM     24  H   UNL     1     -40.742  25.013   0.913  0.00  0.00    +0.145 HD
ATOM     25  H   UNL     1     -39.095  24.935   0.480  0.00  0.00    +0.145 HD
ENDBRANCH  13  23
BRANCH   7  26
ATOM     26  N   UNL     1     -35.884  28.799   2.231  0.00  0.00    +0.390 N 
ATOM     27  C   UNL     1     -34.523  29.083   2.683  0.00  0.00    -0.100 C 
ATOM     28  C   UNL     1     -36.402  29.908   1.432  0.00  0.00    -0.100 C 
ATOM     29  H   UNL     1     -36.479  28.687   3.052  0.00  0.00    -0.079 HD
ENDBRANCH   7  26
BRANCH   4  30
ATOM     30  O   UNL     1     -35.570  26.857   4.457  0.00  0.00    -0.373 OA
ATOM     31  H   UNL     1     -34.642  27.139   4.444  0.00  0.00    +0.211 HD
ENDBRANCH   4  30
BRANCH  11  32
ATOM     32  O   UNL     1     -37.846  25.002   4.317  0.00  0.00    -0.507 OA
ATOM     33  H   UNL     1     -37.284  24.584   4.939  0.00  0.00    +0.292 HD
ENDBRANCH  11  32
BRANCH  14  34
ATOM     34  O   UNL     1     -36.273  21.918   3.948  0.00  0.00    -0.505 OA
ATOM     35  H   UNL     1     -37.207  21.989   3.917  0.00  0.00    +0.292 HD
ENDBRANCH  14  34
BRANCH  18  36
ATOM     36  O   UNL     1     -36.942  19.834   2.733  0.00  0.00    -0.505 OA
ATOM     37  H   UNL     1     -36.707  19.063   3.211  0.00  0.00    +0.292 HD
ENDBRANCH  18  36
TORSDOF 6
ENDMDL
MODEL 2
REMARK VINA RESULT:      -6.5      2.725      6.309
REMARK  Name = 54688686
REMARK  6 active torsions:
REMARK  status: ('A' for Active; 'I' for Inactive)
REMARK    1  A    between atoms: C_4  and  O_30
REMARK    2  A    between atoms: C_7  and  N_26
REMARK    3  A    between atoms: C_11  and  O_32
REMARK    4  A    between atoms: C_13  and  C_23
REMARK    5  A    between atoms: C_14  and  O_34
REMARK    6  A    between atoms: C_18  and  O_36
REMARK                            x       y       z     vdW  Elec       q    Type
REMARK                         _______ _______ _______ _____ _____    ______ ____
ROOT
ATOM      1  O   UNL     1     -37.378  26.609   2.492  0.00  0.00    -0.288 OA
ATOM      2  O   UNL     1     -34.886  20.637   3.453  0.00  0.00    -0.293 OA
ATOM      3  C   UNL     1     -35.899  23.478   1.449  0.00  0.00    +0.031 C 
ATOM      4  C   UNL     1     -36.720  24.258   2.507  0.00  0.00    +0.192 C 
ATOM      5  C   UNL     1     -34.436  23.986   1.317  0.00  0.00    +0.028 C 
ATOM      6  C   UNL     1     -34.400  25.495   1.036  0.00  0.00    -0.016 C 
ATOM      7  C   UNL     1     -35.893  21.969   1.743  0.00  0.00    +0.009 C 
ATOM      8  C   UNL     1     -35.070  26.189   2.181  0.00  0.00    +0.067 C 
ATOM      9  C   UNL     1     -36.485  25.773   2.385  0.00  0.00    +0.206 C 
ATOM     10  C   UNL     1     -32.984  26.010   0.730  0.00  0.00    -0.004 C 
ATOM     11  C   UNL     1     -36.435  23.823   3.933  0.00  0.00    +0.149 C 
ATOM     12  C   UNL     1     -35.467  21.687   3.171  0.00  0.00    +0.161 C 
ATOM     13  C   UNL     1     -35.813  22.668   4.251  0.00  0.00    +0.118 C 
ATOM     14  C   UNL     1     -34.463  27.012   3.053  0.00  0.00    +0.139 C 
ATOM     15  C   UNL     1     -32.287  26.714   1.867  0.00  0.00    +0.006 C 
ATOM     16  C   UNL     1     -33.009  27.240   2.954  0.00  0.00    +0.067 C 
ATOM     17  C   UNL     1     -30.899  26.914   1.786  0.00  0.00    +0.000 C 
ATOM     18  C   UNL     1     -32.311  27.951   3.947  0.00  0.00    +0.136 C 
ATOM     19  C   UNL     1     -30.224  27.617   2.781  0.00  0.00    +0.003 C 
ATOM     20  C   UNL     1     -30.931  28.136   3.860  0.00  0.00    +0.037 C 
ENDROOT
BRANCH  13  23
ATOM     21  O   UNL     1     -35.188  23.207   6.459  0.00  0.00    -0.270 OA
ATOM     22  N   UNL     1     -35.562  20.993   5.919  0.00  0.00    -0.325 N 
ATOM     23  C   UNL     1     -35.488  22.337   5.652  0.00  0.00    +0.248 C 
ATOM     24  H   UNL     1     -35.365  20.660   6.825  0.00  0.00    +0.145 HD
ATOM     25  H   UNL     1     -35.813  20.362   5.207  0.00  0.00    +0.145 HD
ENDBRANCH  13  23
BRANCH   7  26
ATOM     26  N   UNL     1     -37.193  21.327   1.565  0.00  0.00    +0.390 N 
ATOM     27  C   UNL     1     -37.771  21.699   0.274  0.00  0.00    -0.100 C 
ATOM     28  C   UNL     1     -37.063  19.875   1.670  0.00  0.00    -0.100 C 
ATOM     29  H   UNL     1     -37.820  21.649   2.303  0.00  0.00    -0.079 HD
ENDBRANCH   7  26
BRANCH   4  30
ATOM     30  O   UNL     1     -38.116  24.058   2.286  0.00  0.00    -0.373 OA
ATOM     31  H   UNL     1     -38.246  23.588   1.447  0.00  0.00    +0.211 HD
ENDBRANCH   4  30
BRANCH  11  32
ATOM     32  O   UNL     1     -36.897  24.729   4.875  0.00  0.00    -0.507 OA
ATOM     33  H   UNL     1     -37.392  25.476   4.602  0.00  0.00    +0.292 HD
ENDBRANCH  11  32
BRANCH  14  34
ATOM     34  O   UNL     1     -35.092  27.611   4.125  0.00  0.00    -0.505 OA
ATOM     35  H   UNL     1     -34.591  27.887   4.867  0.00  0.00    +0.292 HD
ENDBRANCH  14  34
BRANCH  18  36
ATOM     36  O   UNL     1     -32.937  28.516   5.022  0.00  0.00    -0.505 OA
ATOM     37  H   UNL     1     -33.421  29.311   4.918  0.00  0.00    +0.292 HD
ENDBRANCH  18  36
TORSDOF 6
ENDMDL
MODEL 3
REMARK VINA RESULT:      -6.4      2.555      3.777
REMARK  Name = 54688686
REMARK  6 active torsions:
REMARK  status: ('A' for Active; 'I' for Inactive)
REMARK    1  A    between atoms: C_4  and  O_30
REMARK    2  A    between atoms: C_7  and  N_26
REMARK    3  A    between atoms: C_11  and  O_32
REMARK    4  A    between atoms: C_13  and  C_23
REMARK    5  A    between atoms: C_14  and  O_34
REMARK    6  A    between atoms: C_18  and  O_36
REMARK                            x       y       z     vdW  Elec       q    Type
REMARK                         _______ _______ _______ _____ _____    ______ ____
ROOT
ATOM      1  O   UNL     1     -38.201  25.167   4.444  0.00  0.00    -0.288 OA
ATOM      2  O   UNL     1     -32.029  26.743   2.952  0.00  0.00    -0.293 OA
ATOM      3  C   UNL     1     -34.614  25.122   4.901  0.00  0.00    +0.031 C 
ATOM      4  C   UNL     1     -35.858  25.847   4.330  0.00  0.00    +0.192 C 
ATOM      5  C   UNL     1     -34.347  23.747   4.228  0.00  0.00    +0.028 C 
ATOM      6  C   UNL     1     -35.588  22.847   4.303  0.00  0.00    -0.016 C 
ATOM      7  C   UNL     1     -33.355  25.998   4.794  0.00  0.00    +0.009 C 
ATOM      8  C   UNL     1     -36.704  23.546   3.589  0.00  0.00    +0.067 C 
ATOM      9  C   UNL     1     -37.040  24.876   4.168  0.00  0.00    +0.206 C 
ATOM     10  C   UNL     1     -35.319  21.418   3.802  0.00  0.00    -0.004 C 
ATOM     11  C   UNL     1     -35.598  26.541   3.006  0.00  0.00    +0.149 C 
ATOM     12  C   UNL     1     -33.161  26.516   3.382  0.00  0.00    +0.161 C 
ATOM     13  C   UNL     1     -34.362  26.809   2.533  0.00  0.00    +0.118 C 
ATOM     14  C   UNL     1     -37.286  23.123   2.454  0.00  0.00    +0.139 C 
ATOM     15  C   UNL     1     -35.802  21.116   2.405  0.00  0.00    +0.006 C 
ATOM     16  C   UNL     1     -36.786  21.908   1.784  0.00  0.00    +0.067 C 
ATOM     17  C   UNL     1     -35.313  19.971   1.756  0.00  0.00    +0.000 C 
ATOM     18  C   UNL     1     -37.250  21.532   0.511  0.00  0.00    +0.136 C 
ATOM     19  C   UNL     1     -35.781  19.617   0.493  0.00  0.00    +0.003 C 
ATOM     20  C   UNL     1     -36.750  20.396  -0.128  0.00  0.00    +0.037 C 
ENDROOT
BRANCH  13  23
ATOM     21  O   UNL     1     -34.611  28.519   0.930  0.00  0.00    -0.270 OA
ATOM     22  N   UNL     1     -33.462  26.604   0.343  0.00  0.00    -0.325 N 
ATOM     23  C   UNL     1     -34.169  27.409   1.200  0.00  0.00    +0.248 C 
ATOM     24  H   UNL     1     -33.275  26.906  -0.575  0.00  0.00    +0.145 HD
ATOM     25  H   UNL     1     -33.143  25.723   0.645  0.00  0.00    +0.145 HD
ENDBRANCH  13  23
BRANCH   7  26
ATOM     26  N   UNL     1     -33.376  27.171   5.666  0.00  0.00    +0.390 N 
ATOM     27  C   UNL     1     -33.017  26.795   7.033  0.00  0.00    -0.100 C 
ATOM     28  C   UNL     1     -32.466  28.197   5.159  0.00  0.00    -0.100 C 
ATOM     29  H   UNL     1     -34.321  27.554   5.675  0.00  0.00    -0.079 HD
ENDBRANCH   7  26
BRANCH   4  30
ATOM     30  O   UNL     1     -36.299  26.853   5.243  0.00  0.00    -0.373 OA
ATOM     31  H   UNL     1     -36.304  26.492   6.144  0.00  0.00    +0.211 HD
ENDBRANCH   4  30
BRANCH  11  32
ATOM     32  O   UNL     1     -36.764  26.888   2.341  0.00  0.00    -0.507 OA
ATOM     33  H   UNL     1     -37.533  26.362   2.441  0.00  0.00    +0.292 HD
ENDBRANCH  11  32
BRANCH  14  34
ATOM     34  O   UNL     1     -38.286  23.804   1.792  0.00  0.00    -0.505 OA
ATOM     35  H   UNL     1     -38.458  23.623   0.889  0.00  0.00    +0.292 HD
ENDBRANCH  14  34
BRANCH  18  36
ATOM     36  O   UNL     1     -38.220  22.229  -0.152  0.00  0.00    -0.505 OA
ATOM     37  H   UNL     1     -39.113  22.167   0.123  0.00  0.00    +0.292 HD
ENDBRANCH  18  36
TORSDOF 6
ENDMDL
MODEL 4
REMARK VINA RESULT:      -6.4      4.393      7.718
REMARK  Name = 54688686
REMARK  6 active torsions:
REMARK  status: ('A' for Active; 'I' for Inactive)
REMARK    1  A    between atoms: C_4  and  O_30
REMARK    2  A    between atoms: C_7  and  N_26
REMARK    3  A    between atoms: C_11  and  O_32
REMARK    4  A    between atoms: C_13  and  C_23
REMARK    5  A    between atoms: C_14  and  O_34
REMARK    6  A    between atoms: C_18  and  O_36
REMARK                            x       y       z     vdW  Elec       q    Type
REMARK                         _______ _______ _______ _____ _____    ______ ____
ROOT
ATOM      1  O   UNL     1     -37.130  19.584   0.190  0.00  0.00    -0.288 OA
ATOM      2  O   UNL     1     -30.764  19.952  -1.274  0.00  0.00    -0.293 OA
ATOM      3  C   UNL     1     -34.216  21.040  -1.381  0.00  0.00    +0.031 C 
ATOM      4  C   UNL     1     -34.899  19.785  -0.782  0.00  0.00    +0.192 C 
ATOM      5  C   UNL     1     -33.962  22.156  -0.330  0.00  0.00    +0.028 C 
ATOM      6  C   UNL     1     -35.261  22.533   0.398  0.00  0.00    -0.016 C 
ATOM      7  C   UNL     1     -32.893  20.681  -2.077  0.00  0.00    +0.009 C 
ATOM      8  C   UNL     1     -35.772  21.304   1.085  0.00  0.00    +0.067 C 
ATOM      9  C   UNL     1     -36.054  20.176   0.155  0.00  0.00    +0.206 C 
ATOM     10  C   UNL     1     -35.092  23.747   1.326  0.00  0.00    -0.004 C 
ATOM     11  C   UNL     1     -33.940  18.872  -0.039  0.00  0.00    +0.149 C 
ATOM     12  C   UNL     1     -31.989  19.876  -1.164  0.00  0.00    +0.161 C 
ATOM     13  C   UNL     1     -32.598  18.938  -0.165  0.00  0.00    +0.118 C 
ATOM     14  C   UNL     1     -35.860  21.137   2.415  0.00  0.00    +0.139 C 
ATOM     15  C   UNL     1     -34.952  23.431   2.794  0.00  0.00    +0.006 C 
ATOM     16  C   UNL     1     -35.372  22.195   3.320  0.00  0.00    +0.067 C 
ATOM     17  C   UNL     1     -34.469  24.430   3.655  0.00  0.00    +0.000 C 
ATOM     18  C   UNL     1     -35.285  21.988   4.708  0.00  0.00    +0.136 C 
ATOM     19  C   UNL     1     -34.385  24.205   5.027  0.00  0.00    +0.003 C 
ATOM     20  C   UNL     1     -34.795  22.985   5.552  0.00  0.00    +0.037 C 
ENDROOT
BRANCH  13  23
ATOM     21  O   UNL     1     -31.844  17.998   1.861  0.00  0.00    -0.270 OA
ATOM     22  N   UNL     1     -30.769  17.421  -0.099  0.00  0.00    -0.325 N 
ATOM     23  C   UNL     1     -31.713  18.081   0.647  0.00  0.00    +0.248 C 
ATOM     24  H   UNL     1     -30.124  16.821   0.342  0.00  0.00    +0.145 HD
ATOM     25  H   UNL     1     -30.735  17.548  -1.074  0.00  0.00    +0.145 HD
ENDBRANCH  13  23
BRANCH   7  26
ATOM     26  N   UNL     1     -33.062  19.891  -3.295  0.00  0.00    +0.390 N 
ATOM     27  C   UNL     1     -33.854  20.631  -4.276  0.00  0.00    -0.100 C 
ATOM     28  C   UNL     1     -31.759  19.532  -3.852  0.00  0.00    -0.100 C 
ATOM     29  H   UNL     1     -33.560  19.032  -3.060  0.00  0.00    -0.079 HD
ENDBRANCH   7  26
BRANCH   4  30
ATOM     30  O   UNL     1     -35.486  19.005  -1.824  0.00  0.00    -0.373 OA
ATOM     31  H   UNL     1     -36.424  19.238  -1.914  0.00  0.00    +0.211 HD
ENDBRANCH   4  30
BRANCH  11  32
ATOM     32  O   UNL     1     -34.590  17.953   0.770  0.00  0.00    -0.507 OA
ATOM     33  H   UNL     1     -34.633  17.053   0.515  0.00  0.00    +0.292 HD
ENDBRANCH  11  32
BRANCH  14  34
ATOM     34  O   UNL     1     -36.298  19.981   3.027  0.00  0.00    -0.505 OA
ATOM     35  H   UNL     1     -36.581  19.254   2.509  0.00  0.00    +0.292 HD
ENDBRANCH  14  34
BRANCH  18  36
ATOM     36  O   UNL     1     -35.693  20.828   5.304  0.00  0.00    -0.505 OA
ATOM     37  H   UNL     1     -36.248  20.233   4.839  0.00  0.00    +0.292 HD
ENDBRANCH  18  36
TORSDOF 6
ENDMDL
MODEL 5
REMARK VINA RESULT:      -6.4      3.288      6.833
REMARK  Name = 54688686
REMARK  6 active torsions:
REMARK  status: ('A' for Active; 'I' for Inactive)
REMARK    1  A    between atoms: C_4  and  O_30
REMARK    2  A    between atoms: C_7  and  N_26
REMARK    3  A    between atoms: C_11  and  O_32
REMARK    4  A    between atoms: C_13  and  C_23
REMARK    5  A    between atoms: C_14  and  O_34
REMARK    6  A    between atoms: C_18  and  O_36
REMARK                            x       y       z     vdW  Elec       q    Type
REMARK                         _______ _______ _______ _____ _____    ______ ____
ROOT
ATOM      1  O   UNL     1     -38.974  21.710   2.625  0.00  0.00    -0.288 OA
ATOM      2  O   UNL     1     -34.439  19.805  -1.688  0.00  0.00    -0.293 OA
ATOM      3  C   UNL     1     -37.222  21.816  -0.536  0.00  0.00    +0.031 C 
ATOM      4  C   UNL     1     -37.625  21.000   0.717  0.00  0.00    +0.192 C 
ATOM      5  C   UNL     1     -36.296  23.021  -0.209  0.00  0.00    +0.028 C 
ATOM      6  C   UNL     1     -36.930  23.929   0.855  0.00  0.00    -0.016 C 
ATOM      7  C   UNL     1     -36.548  20.925  -1.593  0.00  0.00    +0.009 C 
ATOM      8  C   UNL     1     -37.140  23.107   2.090  0.00  0.00    +0.067 C 
ATOM      9  C   UNL     1     -38.024  21.928   1.878  0.00  0.00    +0.206 C 
ATOM     10  C   UNL     1     -36.130  25.221   1.088  0.00  0.00    -0.004 C 
ATOM     11  C   UNL     1     -36.543  20.046   1.191  0.00  0.00    +0.149 C 
ATOM     12  C   UNL     1     -35.406  20.127  -0.995  0.00  0.00    +0.161 C 
ATOM     13  C   UNL     1     -35.490  19.677   0.433  0.00  0.00    +0.118 C 
ATOM     14  C   UNL     1     -36.513  23.293   3.263  0.00  0.00    +0.139 C 
ATOM     15  C   UNL     1     -35.258  25.234   2.318  0.00  0.00    +0.006 C 
ATOM     16  C   UNL     1     -35.480  24.341   3.383  0.00  0.00    +0.067 C 
ATOM     17  C   UNL     1     -34.260  26.217   2.427  0.00  0.00    +0.000 C 
ATOM     18  C   UNL     1     -34.681  24.451   4.535  0.00  0.00    +0.136 C 
ATOM     19  C   UNL     1     -33.476  26.308   3.574  0.00  0.00    +0.003 C 
ATOM     20  C   UNL     1     -33.687  25.426   4.627  0.00  0.00    +0.037 C 
ENDROOT
BRANCH  13  23
ATOM     21  O   UNL     1     -33.687  19.198   1.875  0.00  0.00    -0.270 OA
ATOM     22  N   UNL     1     -34.371  17.581   0.375  0.00  0.00    -0.325 N 
ATOM     23  C   UNL     1     -34.425  18.813   0.977  0.00  0.00    +0.248 C 
ATOM     24  H   UNL     1     -33.696  16.923   0.661  0.00  0.00    +0.145 HD
ATOM     25  H   UNL     1     -35.005  17.355  -0.342  0.00  0.00    +0.145 HD
ENDBRANCH  13  23
BRANCH   7  26
ATOM     26  N   UNL     1     -37.450  19.957  -2.212  0.00  0.00    +0.390 N 
ATOM     27  C   UNL     1     -38.535  20.646  -2.909  0.00  0.00    -0.100 C 
ATOM     28  C   UNL     1     -36.715  19.093  -3.133  0.00  0.00    -0.100 C 
ATOM     29  H   UNL     1     -37.856  19.375  -1.479  0.00  0.00    -0.079 HD
ENDBRANCH   7  26
BRANCH   4  30
ATOM     30  O   UNL     1     -38.779  20.208   0.434  0.00  0.00    -0.373 OA
ATOM     31  H   UNL     1     -38.501  19.327   0.136  0.00  0.00    +0.211 HD
ENDBRANCH   4  30
BRANCH  11  32
ATOM     32  O   UNL     1     -36.762  19.582   2.479  0.00  0.00    -0.507 OA
ATOM     33  H   UNL     1     -37.047  20.173   3.148  0.00  0.00    +0.292 HD
ENDBRANCH  11  32
BRANCH  14  34
ATOM     34  O   UNL     1     -36.693  22.500   4.377  0.00  0.00    -0.505 OA
ATOM     35  H   UNL     1     -35.965  22.044   4.751  0.00  0.00    +0.292 HD
ENDBRANCH  14  34
BRANCH  18  36
ATOM     36  O   UNL     1     -34.846  23.641   5.623  0.00  0.00    -0.505 OA
ATOM     37  H   UNL     1     -35.586  23.757   6.186  0.00  0.00    +0.292 HD
ENDBRANCH  18  36
TORSDOF 6
ENDMDL
MODEL 6
REMARK VINA RESULT:      -6.3      3.296      6.056
REMARK  Name = 54688686
REMARK  6 active torsions:
REMARK  status: ('A' for Active; 'I' for Inactive)
REMARK    1  A    between atoms: C_4  and  O_30
REMARK    2  A    between atoms: C_7  and  N_26
REMARK    3  A    between atoms: C_11  and  O_32
REMARK    4  A    between atoms: C_13  and  C_23
REMARK    5  A    between atoms: C_14  and  O_34
REMARK    6  A    between atoms: C_18  and  O_36
REMARK                            x       y       z     vdW  Elec       q    Type
REMARK                         _______ _______ _______ _____ _____    ______ ____
ROOT
ATOM      1  O   UNL     1     -35.373  23.685  -0.755  0.00  0.00    -0.288 OA
ATOM      2  O   UNL     1     -41.115  20.830   0.539  0.00  0.00    -0.293 OA
ATOM      3  C   UNL     1     -37.577  20.867  -0.231  0.00  0.00    +0.031 C 
ATOM      4  C   UNL     1     -37.417  22.356  -0.628  0.00  0.00    +0.192 C 
ATOM      5  C   UNL     1     -37.189  20.585   1.248  0.00  0.00    +0.028 C 
ATOM      6  C   UNL     1     -35.768  21.084   1.548  0.00  0.00    -0.016 C 
ATOM      7  C   UNL     1     -39.008  20.367  -0.488  0.00  0.00    +0.009 C 
ATOM      8  C   UNL     1     -35.738  22.559   1.294  0.00  0.00    +0.067 C 
ATOM      9  C   UNL     1     -36.090  22.930  -0.104  0.00  0.00    +0.206 C 
ATOM     10  C   UNL     1     -35.278  20.676   2.948  0.00  0.00    -0.004 C 
ATOM     11  C   UNL     1     -38.562  23.233  -0.156  0.00  0.00    +0.149 C 
ATOM     12  C   UNL     1     -40.036  21.281   0.152  0.00  0.00    +0.161 C 
ATOM     13  C   UNL     1     -39.753  22.750   0.255  0.00  0.00    +0.118 C 
ATOM     14  C   UNL     1     -35.550  23.505   2.230  0.00  0.00    +0.139 C 
ATOM     15  C   UNL     1     -35.339  21.756   3.999  0.00  0.00    +0.006 C 
ATOM     16  C   UNL     1     -35.416  23.117   3.647  0.00  0.00    +0.067 C 
ATOM     17  C   UNL     1     -35.231  21.389   5.351  0.00  0.00    +0.000 C 
ATOM     18  C   UNL     1     -35.394  24.081   4.670  0.00  0.00    +0.136 C 
ATOM     19  C   UNL     1     -35.216  22.357   6.350  0.00  0.00    +0.003 C 
ATOM     20  C   UNL     1     -35.295  23.703   6.010  0.00  0.00    +0.037 C 
ENDROOT
BRANCH  13  23
ATOM     21  O   UNL     1     -40.576  24.406   1.717  0.00  0.00    -0.270 OA
ATOM     22  N   UNL     1     -41.997  23.524   0.125  0.00  0.00    -0.325 N 
ATOM     23  C   UNL     1     -40.799  23.646   0.783  0.00  0.00    +0.248 C 
ATOM     24  H   UNL     1     -42.766  24.076   0.395  0.00  0.00    +0.145 HD
ATOM     25  H   UNL     1     -42.088  22.884  -0.618  0.00  0.00    +0.145 HD
ENDBRANCH  13  23
BRANCH   7  26
ATOM     26  N   UNL     1     -39.358  20.280  -1.904  0.00  0.00    +0.390 N 
ATOM     27  C   UNL     1     -38.469  19.343  -2.591  0.00  0.00    -0.100 C 
ATOM     28  C   UNL     1     -40.753  19.873  -2.060  0.00  0.00    -0.100 C 
ATOM     29  H   UNL     1     -39.242  21.202  -2.326  0.00  0.00    -0.079 HD
ENDBRANCH   7  26
BRANCH   4  30
ATOM     30  O   UNL     1     -37.363  22.478  -2.050  0.00  0.00    -0.373 OA
ATOM     31  H   UNL     1     -36.577  22.988  -2.301  0.00  0.00    +0.211 HD
ENDBRANCH   4  30
BRANCH  11  32
ATOM     32  O   UNL     1     -38.260  24.586  -0.208  0.00  0.00    -0.507 OA
ATOM     33  H   UNL     1     -38.950  25.220  -0.193  0.00  0.00    +0.292 HD
ENDBRANCH  11  32
BRANCH  14  34
ATOM     34  O   UNL     1     -35.566  24.862   1.980  0.00  0.00    -0.505 OA
ATOM     35  H   UNL     1     -35.618  25.469   2.691  0.00  0.00    +0.292 HD
ENDBRANCH  14  34
BRANCH  18  36
ATOM     36  O   UNL     1     -35.439  25.423   4.415  0.00  0.00    -0.505 OA
ATOM     37  H   UNL     1     -36.200  25.918   4.648  0.00  0.00    +0.292 HD
ENDBRANCH  18  36
TORSDOF 6
ENDMDL
MODEL 7
REMARK VINA RESULT:      -6.3      3.392      5.614
REMARK  Name = 54688686
REMARK  6 active torsions:
REMARK  status: ('A' for Active; 'I' for Inactive)
REMARK    1  A    between atoms: C_4  and  O_30
REMARK    2  A    between atoms: C_7  and  N_26
REMARK    3  A    between atoms: C_11  and  O_32
REMARK    4  A    between atoms: C_13  and  C_23
REMARK    5  A    between atoms: C_14  and  O_34
REMARK    6  A    between atoms: C_18  and  O_36
REMARK                            x       y       z     vdW  Elec       q    Type
REMARK                         _______ _______ _______ _____ _____    ______ ____
ROOT
ATOM      1  O   UNL     1     -36.053  27.923   2.301  0.00  0.00    -0.288 OA
ATOM      2  O   UNL     1     -29.669  27.512   3.674  0.00  0.00    -0.293 OA
ATOM      3  C   UNL     1     -33.147  28.170   4.439  0.00  0.00    +0.031 C 
ATOM      4  C   UNL     1     -33.728  28.179   3.003  0.00  0.00    +0.192 C 
ATOM      5  C   UNL     1     -33.313  26.801   5.156  0.00  0.00    +0.028 C 
ATOM      6  C   UNL     1     -34.782  26.354   5.156  0.00  0.00    -0.016 C 
ATOM      7  C   UNL     1     -31.664  28.576   4.448  0.00  0.00    +0.009 C 
ATOM      8  C   UNL     1     -35.222  26.230   3.730  0.00  0.00    +0.067 C 
ATOM      9  C   UNL     1     -35.107  27.498   2.959  0.00  0.00    +0.206 C 
ATOM     10  C   UNL     1     -35.020  25.091   6.000  0.00  0.00    -0.004 C 
ATOM     11  C   UNL     1     -32.816  27.527   1.979  0.00  0.00    +0.149 C 
ATOM     12  C   UNL     1     -30.860  27.750   3.463  0.00  0.00    +0.161 C 
ATOM     13  C   UNL     1     -31.508  27.277   2.196  0.00  0.00    +0.118 C 
ATOM     14  C   UNL     1     -35.567  25.083   3.120  0.00  0.00    +0.139 C 
ATOM     15  C   UNL     1     -35.151  23.804   5.224  0.00  0.00    +0.006 C 
ATOM     16  C   UNL     1     -35.467  23.806   3.852  0.00  0.00    +0.067 C 
ATOM     17  C   UNL     1     -35.035  22.586   5.913  0.00  0.00    +0.000 C 
ATOM     18  C   UNL     1     -35.649  22.574   3.200  0.00  0.00    +0.136 C 
ATOM     19  C   UNL     1     -35.215  21.375   5.250  0.00  0.00    +0.003 C 
ATOM     20  C   UNL     1     -35.523  21.370   3.894  0.00  0.00    +0.037 C 
ENDROOT
BRANCH  13  23
ATOM     21  O   UNL     1     -31.059  25.500   0.713  0.00  0.00    -0.270 OA
ATOM     22  N   UNL     1     -29.524  27.216   0.889  0.00  0.00    -0.325 N 
ATOM     23  C   UNL     1     -30.692  26.564   1.195  0.00  0.00    +0.248 C 
ATOM     24  H   UNL     1     -28.902  26.829   0.231  0.00  0.00    +0.145 HD
ATOM     25  H   UNL     1     -29.308  28.071   1.326  0.00  0.00    +0.145 HD
ENDBRANCH  13  23
BRANCH   7  26
ATOM     26  N   UNL     1     -31.433  29.976   4.100  0.00  0.00    +0.390 N 
ATOM     27  C   UNL     1     -32.032  30.855   5.103  0.00  0.00    -0.100 C 
ATOM     28  C   UNL     1     -30.000  30.240   3.976  0.00  0.00    -0.100 C 
ATOM     29  H   UNL     1     -31.875  30.166   3.200  0.00  0.00    -0.079 HD
ENDBRANCH   7  26
BRANCH   4  30
ATOM     30  O   UNL     1     -33.940  29.523   2.571  0.00  0.00    -0.373 OA
ATOM     31  H   UNL     1     -33.275  29.756   1.904  0.00  0.00    +0.211 HD
ENDBRANCH   4  30
BRANCH  11  32
ATOM     32  O   UNL     1     -33.467  27.232   0.790  0.00  0.00    -0.507 OA
ATOM     33  H   UNL     1     -33.751  27.926   0.228  0.00  0.00    +0.292 HD
ENDBRANCH  11  32
BRANCH  14  34
ATOM     34  O   UNL     1     -35.931  24.986   1.794  0.00  0.00    -0.505 OA
ATOM     35  H   UNL     1     -36.175  25.755   1.317  0.00  0.00    +0.292 HD
ENDBRANCH  14  34
BRANCH  18  36
ATOM     36  O   UNL     1     -35.981  22.485   1.877  0.00  0.00    -0.505 OA
ATOM     37  H   UNL     1     -36.290  21.674   1.525  0.00  0.00    +0.292 HD
ENDBRANCH  18  36
TORSDOF 6
ENDMDL
MODEL 8
REMARK VINA RESULT:      -6.3      2.961      4.823
REMARK  Name = 54688686
REMARK  6 active torsions:
REMARK  status: ('A' for Active; 'I' for Inactive)
REMARK    1  A    between atoms: C_4  and  O_30
REMARK    2  A    between atoms: C_7  and  N_26
REMARK    3  A    between atoms: C_11  and  O_32
REMARK    4  A    between atoms: C_13  and  C_23
REMARK    5  A    between atoms: C_14  and  O_34
REMARK    6  A    between atoms: C_18  and  O_36
REMARK                            x       y       z     vdW  Elec       q    Type
REMARK                         _______ _______ _______ _____ _____    ______ ____
ROOT
ATOM      1  O   UNL     1     -37.619  27.015   1.666  0.00  0.00    -0.288 OA
ATOM      2  O   UNL     1     -31.171  28.072   1.977  0.00  0.00    -0.293 OA
ATOM      3  C   UNL     1     -34.579  28.252   3.184  0.00  0.00    +0.031 C 
ATOM      4  C   UNL     1     -35.330  27.833   1.896  0.00  0.00    +0.192 C 
ATOM      5  C   UNL     1     -34.358  27.072   4.172  0.00  0.00    +0.028 C 
ATOM      6  C   UNL     1     -35.687  26.381   4.511  0.00  0.00    -0.016 C 
ATOM      7  C   UNL     1     -33.228  28.908   2.859  0.00  0.00    +0.009 C 
ATOM      8  C   UNL     1     -36.271  25.863   3.234  0.00  0.00    +0.067 C 
ATOM      9  C   UNL     1     -36.528  26.925   2.222  0.00  0.00    +0.206 C 
ATOM     10  C   UNL     1     -35.541  25.318   5.613  0.00  0.00    -0.004 C 
ATOM     11  C   UNL     1     -34.442  27.141   0.877  0.00  0.00    +0.149 C 
ATOM     12  C   UNL     1     -32.401  28.039   1.931  0.00  0.00    +0.161 C 
ATOM     13  C   UNL     1     -33.093  27.185   0.911  0.00  0.00    +0.118 C 
ATOM     14  C   UNL     1     -36.442  24.566   2.927  0.00  0.00    +0.139 C 
ATOM     15  C   UNL     1     -35.496  23.888   5.136  0.00  0.00    +0.006 C 
ATOM     16  C   UNL     1     -35.980  23.525   3.865  0.00  0.00    +0.067 C 
ATOM     17  C   UNL     1     -35.038  22.897   6.020  0.00  0.00    +0.000 C 
ATOM     18  C   UNL     1     -35.981  22.165   3.507  0.00  0.00    +0.136 C 
ATOM     19  C   UNL     1     -35.042  21.556   5.646  0.00  0.00    +0.003 C 
ATOM     20  C   UNL     1     -35.515  21.190   4.390  0.00  0.00    +0.037 C 
ENDROOT
BRANCH  13  23
ATOM     21  O   UNL     1     -32.352  26.640  -1.260  0.00  0.00    -0.270 OA
ATOM     22  N   UNL     1     -31.475  25.485   0.537  0.00  0.00    -0.325 N 
ATOM     23  C   UNL     1     -32.282  26.423  -0.057  0.00  0.00    +0.248 C 
ATOM     24  H   UNL     1     -30.889  24.918  -0.016  0.00  0.00    +0.145 HD
ATOM     25  H   UNL     1     -31.482  25.377   1.515  0.00  0.00    +0.145 HD
ENDBRANCH  13  23
BRANCH   7  26
ATOM     26  N   UNL     1     -33.345  30.212   2.211  0.00  0.00    +0.390 N 
ATOM     27  C   UNL     1     -34.049  31.152   3.082  0.00  0.00    -0.100 C 
ATOM     28  C   UNL     1     -32.022  30.728   1.862  0.00  0.00    -0.100 C 
ATOM     29  H   UNL     1     -33.884  30.102   1.352  0.00  0.00    -0.079 HD
ENDBRANCH   7  26
BRANCH   4  30
ATOM     30  O   UNL     1     -35.875  28.986   1.252  0.00  0.00    -0.373 OA
ATOM     31  H   UNL     1     -36.661  28.730   0.743  0.00  0.00    +0.211 HD
ENDBRANCH   4  30
BRANCH  11  32
ATOM     32  O   UNL     1     -35.164  26.475  -0.102  0.00  0.00    -0.507 OA
ATOM     33  H   UNL     1     -34.818  26.402  -0.969  0.00  0.00    +0.292 HD
ENDBRANCH  11  32
BRANCH  14  34
ATOM     34  O   UNL     1     -36.947  24.109   1.727  0.00  0.00    -0.505 OA
ATOM     35  H   UNL     1     -37.216  24.719   1.070  0.00  0.00    +0.292 HD
ENDBRANCH  14  34
BRANCH  18  36
ATOM     36  O   UNL     1     -36.455  21.723   2.304  0.00  0.00    -0.505 OA
ATOM     37  H   UNL     1     -35.978  21.079   1.820  0.00  0.00    +0.292 HD
ENDBRANCH  18  36
TORSDOF 6
ENDMDL
MODEL 9
REMARK VINA RESULT:      -6.3      2.774      4.758
REMARK  Name = 54688686
REMARK  6 active torsions:
REMARK  status: ('A' for Active; 'I' for Inactive)
REMARK    1  A    between atoms: C_4  and  O_30
REMARK    2  A    between atoms: C_7  and  N_26
REMARK    3  A    between atoms: C_11  and  O_32
REMARK    4  A    between atoms: C_13  and  C_23
REMARK    5  A    between atoms: C_14  and  O_34
REMARK    6  A    between atoms: C_18  and  O_36
REMARK                            x       y       z     vdW  Elec       q    Type
REMARK                         _______ _______ _______ _____ _____    ______ ____
ROOT
ATOM      1  O   UNL     1     -35.565  26.307   0.403  0.00  0.00    -0.288 OA
ATOM      2  O   UNL     1     -41.671  24.102   1.211  0.00  0.00    -0.293 OA
ATOM      3  C   UNL     1     -38.287  23.974  -0.070  0.00  0.00    +0.031 C 
ATOM      4  C   UNL     1     -37.835  25.419   0.255  0.00  0.00    +0.192 C 
ATOM      5  C   UNL     1     -37.852  22.941   1.007  0.00  0.00    +0.028 C 
ATOM      6  C   UNL     1     -36.336  23.001   1.246  0.00  0.00    -0.016 C 
ATOM      7  C   UNL     1     -39.809  23.893  -0.271  0.00  0.00    +0.009 C 
ATOM      8  C   UNL     1     -36.002  24.385   1.713  0.00  0.00    +0.067 C 
ATOM      9  C   UNL     1     -36.376  25.448   0.741  0.00  0.00    +0.206 C 
ATOM     10  C   UNL     1     -35.836  21.885   2.178  0.00  0.00    -0.004 C 
ATOM     11  C   UNL     1     -38.715  26.111   1.280  0.00  0.00    +0.149 C 
ATOM     12  C   UNL     1     -40.554  24.514   0.895  0.00  0.00    +0.161 C 
ATOM     13  C   UNL     1     -39.947  25.676   1.622  0.00  0.00    +0.118 C 
ATOM     14  C   UNL     1     -35.534  24.702   2.932  0.00  0.00    +0.139 C 
ATOM     15  C   UNL     1     -35.571  22.298   3.605  0.00  0.00    +0.006 C 
ATOM     16  C   UNL     1     -35.374  23.647   3.952  0.00  0.00    +0.067 C 
ATOM     17  C   UNL     1     -35.438  21.297   4.582  0.00  0.00    +0.000 C 
ATOM     18  C   UNL     1     -35.056  23.961   5.285  0.00  0.00    +0.136 C 
ATOM     19  C   UNL     1     -35.127  21.628   5.898  0.00  0.00    +0.003 C 
ATOM     20  C   UNL     1     -34.935  22.960   6.249  0.00  0.00    +0.037 C 
ENDROOT
BRANCH  13  23
ATOM     21  O   UNL     1     -41.282  27.413   2.493  0.00  0.00    -0.270 OA
ATOM     22  N   UNL     1     -40.735  25.636   3.864  0.00  0.00    -0.325 N 
ATOM     23  C   UNL     1     -40.722  26.341   2.686  0.00  0.00    +0.248 C 
ATOM     24  H   UNL     1     -41.224  25.989   4.643  0.00  0.00    +0.145 HD
ATOM     25  H   UNL     1     -40.256  24.780   3.930  0.00  0.00    +0.145 HD
ENDBRANCH  13  23
BRANCH   7  26
ATOM     26  N   UNL     1     -40.283  24.573  -1.474  0.00  0.00    +0.390 N 
ATOM     27  C   UNL     1     -39.684  23.975  -2.666  0.00  0.00    -0.100 C 
ATOM     28  C   UNL     1     -41.742  24.517  -1.549  0.00  0.00    -0.100 C 
ATOM     29  H   UNL     1     -40.000  25.552  -1.429  0.00  0.00    -0.079 HD
ENDBRANCH   7  26
BRANCH   4  30
ATOM     30  O   UNL     1     -37.871  26.220  -0.927  0.00  0.00    -0.373 OA
ATOM     31  H   UNL     1     -37.907  25.643  -1.707  0.00  0.00    +0.211 HD
ENDBRANCH   4  30
BRANCH  11  32
ATOM     32  O   UNL     1     -38.128  27.247   1.815  0.00  0.00    -0.507 OA
ATOM     33  H   UNL     1     -38.517  27.672   2.554  0.00  0.00    +0.292 HD
ENDBRANCH  11  32
BRANCH  14  34
ATOM     34  O   UNL     1     -35.270  25.988   3.354  0.00  0.00    -0.505 OA
ATOM     35  H   UNL     1     -34.675  26.526   2.872  0.00  0.00    +0.292 HD
ENDBRANCH  14  34
BRANCH  18  36
ATOM     36  O   UNL     1     -34.825  25.242   5.702  0.00  0.00    -0.505 OA
ATOM     37  H   UNL     1     -33.949  25.572   5.738  0.00  0.00    +0.292 HD
ENDBRANCH  18  36
TORSDOF 6
ENDMDL
