MODEL 1
REMARK VINA RESULT:      -5.9      0.000      0.000
REMARK  Name = 21597398
REMARK  13 active torsions:
REMARK  status: ('A' for Active; 'I' for Inactive)
REMARK    1  A    between atoms: C_1  and  N_3
REMARK    2  A    between atoms: C_1  and  C_15
REMARK    3  A    between atoms: C_1  and  C_25
REMARK    4  A    between atoms: C_4  and  C_7
REMARK    5  A    between atoms: C_8  and  C_10
REMARK    6  A    between atoms: C_10  and  O_11
REMARK    7  A    between atoms: N_14  and  C_17
REMARK    8  A    between atoms: C_17  and  C_18
REMARK    9  A    between atoms: C_18  and  C_19
REMARK   10  A    between atoms: C_19  and  C_20
REMARK   11  A    between atoms: C_20  and  N_21
REMARK   12  A    between atoms: C_25  and  C_26
REMARK   13  A    between atoms: C_31  and  O_32
REMARK                            x       y       z     vdW  Elec       q    Type
REMARK                         _______ _______ _______ _____ _____    ______ ____
ROOT
ATOM      1  C   UNL     1     -35.574  26.604   3.108  0.00  0.00    +0.153 C 
ENDROOT
BRANCH   1   3
ATOM      2  O   UNL     1     -32.854  25.693   3.545  0.00  0.00    -0.272 OA
ATOM      3  N   UNL     1     -34.475  27.361   3.652  0.00  0.00    -0.296 N 
ATOM      4  C   UNL     1     -33.203  26.837   3.825  0.00  0.00    +0.253 C 
ATOM      5  H   UNL     1     -34.635  28.296   3.915  0.00  0.00    +0.150 HD
BRANCH   4   7
ATOM      6  O   UNL     1     -32.910  28.879   5.093  0.00  0.00    -0.333 OA
ATOM      7  C   UNL     1     -32.239  27.847   4.387  0.00  0.00    +0.229 C 
ATOM      8  C   UNL     1     -32.111  27.967   5.859  0.00  0.00    +0.250 C 
BRANCH   8  10
ATOM      9  O   UNL     1     -30.787  29.794   6.556  0.00  0.00    -0.247 OA
ATOM     10  C   UNL     1     -30.902  28.586   6.415  0.00  0.00    +0.344 C 
BRANCH  10  11
ATOM     11  O   UNL     1     -29.958  27.672   6.742  0.00  0.00    -0.478 OA
ATOM     12  H   UNL     1     -29.234  27.520   6.168  0.00  0.00    +0.295 HD
ENDBRANCH  10  11
ENDBRANCH   8  10
ENDBRANCH   4   7
ENDBRANCH   1   3
BRANCH   1  15
ATOM     13  O   UNL     1     -37.515  27.278   1.822  0.00  0.00    -0.273 OA
ATOM     14  N   UNL     1     -35.754  28.777   2.050  0.00  0.00    -0.303 N 
ATOM     15  C   UNL     1     -36.396  27.557   2.247  0.00  0.00    +0.241 C 
ATOM     16  H   UNL     1     -34.856  28.897   2.433  0.00  0.00    +0.149 HD
BRANCH  14  17
ATOM     17  C   UNL     1     -36.331  29.869   1.316  0.00  0.00    +0.089 C 
BRANCH  17  18
ATOM     18  C   UNL     1     -36.206  31.200   2.051  0.00  0.00    +0.019 C 
BRANCH  18  19
ATOM     19  C   UNL     1     -35.131  31.165   3.144  0.00  0.00    -0.022 C 
BRANCH  19  20
ATOM     20  C   UNL     1     -33.797  31.761   2.691  0.00  0.00    -0.086 C 
BRANCH  20  21
ATOM     21  N   UNL     1     -32.693  31.337   3.544  0.00  0.00    +0.380 N 
ATOM     22  H   UNL     1     -32.250  30.512   3.141  0.00  0.00    -0.089 HD
ATOM     23  H   UNL     1     -33.048  31.112   4.473  0.00  0.00    -0.089 HD
ATOM     24  H   UNL     1     -32.009  32.090   3.615  0.00  0.00    -0.089 HD
ENDBRANCH  20  21
ENDBRANCH  19  20
ENDBRANCH  18  19
ENDBRANCH  17  18
ENDBRANCH  14  17
ENDBRANCH   1  15
BRANCH   1  25
ATOM     25  C   UNL     1     -36.452  25.987   4.204  0.00  0.00    +0.055 C 
BRANCH  25  26
ATOM     26  C   UNL     1     -36.088  24.553   4.504  0.00  0.00    -0.020 C 
ATOM     27  C   UNL     1     -36.288  23.585   3.533  0.00  0.00    -0.001 C 
ATOM     28  C   UNL     1     -35.562  24.231   5.745  0.00  0.00    -0.001 C 
ATOM     29  C   UNL     1     -35.952  22.259   3.810  0.00  0.00    +0.036 C 
ATOM     30  C   UNL     1     -35.226  22.905   6.022  0.00  0.00    +0.036 C 
ATOM     31  C   UNL     1     -35.421  21.919   5.054  0.00  0.00    +0.134 C 
BRANCH  31  32
ATOM     32  O   UNL     1     -35.094  20.627   5.323  0.00  0.00    -0.506 OA
ATOM     33  H   UNL     1     -34.888  20.039   4.622  0.00  0.00    +0.292 HD
ENDBRANCH  31  32
ENDBRANCH  25  26
ENDBRANCH   1  25
TORSDOF 13
ENDMDL
MODEL 2
REMARK VINA RESULT:      -5.7      4.382      7.525
REMARK  Name = 21597398
REMARK  13 active torsions:
REMARK  status: ('A' for Active; 'I' for Inactive)
REMARK    1  A    between atoms: C_1  and  N_3
REMARK    2  A    between atoms: C_1  and  C_15
REMARK    3  A    between atoms: C_1  and  C_25
REMARK    4  A    between atoms: C_4  and  C_7
REMARK    5  A    between atoms: C_8  and  C_10
REMARK    6  A    between atoms: C_10  and  O_11
REMARK    7  A    between atoms: N_14  and  C_17
REMARK    8  A    between atoms: C_17  and  C_18
REMARK    9  A    between atoms: C_18  and  C_19
REMARK   10  A    between atoms: C_19  and  C_20
REMARK   11  A    between atoms: C_20  and  N_21
REMARK   12  A    between atoms: C_25  and  C_26
REMARK   13  A    between atoms: C_31  and  O_32
REMARK                            x       y       z     vdW  Elec       q    Type
REMARK                         _______ _______ _______ _____ _____    ______ ____
ROOT
ATOM      1  C   UNL     1     -36.091  21.356   2.391  0.00  0.00    +0.153 C 
ENDROOT
BRANCH   1   3
ATOM      2  O   UNL     1     -38.980  21.271   2.122  0.00  0.00    -0.272 OA
ATOM      3  N   UNL     1     -36.980  22.463   2.144  0.00  0.00    -0.296 N 
ATOM      4  C   UNL     1     -38.355  22.324   2.030  0.00  0.00    +0.253 C 
ATOM      5  H   UNL     1     -36.592  23.363   2.051  0.00  0.00    +0.150 HD
BRANCH   4   7
ATOM      6  O   UNL     1     -40.457  23.519   1.899  0.00  0.00    -0.333 OA
ATOM      7  C   UNL     1     -39.047  23.641   1.798  0.00  0.00    +0.229 C 
ATOM      8  C   UNL     1     -39.785  24.265   2.922  0.00  0.00    +0.250 C 
BRANCH   8  10
ATOM      9  O   UNL     1     -41.061  26.158   2.319  0.00  0.00    -0.247 OA
ATOM     10  C   UNL     1     -40.069  25.703   2.868  0.00  0.00    +0.344 C 
BRANCH  10  11
ATOM     11  O   UNL     1     -39.118  26.441   3.489  0.00  0.00    -0.478 OA
ATOM     12  H   UNL     1     -38.323  26.036   3.774  0.00  0.00    +0.295 HD
ENDBRANCH  10  11
ENDBRANCH   8  10
ENDBRANCH   4   7
ENDBRANCH   1   3
BRANCH   1  15
ATOM     13  O   UNL     1     -35.084  20.593   4.459  0.00  0.00    -0.273 OA
ATOM     14  N   UNL     1     -35.562  22.854   4.221  0.00  0.00    -0.303 N 
ATOM     15  C   UNL     1     -35.538  21.527   3.801  0.00  0.00    +0.241 C 
ATOM     16  H   UNL     1     -35.950  23.526   3.615  0.00  0.00    +0.149 HD
BRANCH  14  17
ATOM     17  C   UNL     1     -35.055  23.296   5.490  0.00  0.00    +0.089 C 
BRANCH  17  18
ATOM     18  C   UNL     1     -34.535  24.730   5.445  0.00  0.00    +0.019 C 
BRANCH  18  19
ATOM     19  C   UNL     1     -34.548  25.313   4.028  0.00  0.00    -0.022 C 
BRANCH  19  20
ATOM     20  C   UNL     1     -35.648  26.357   3.820  0.00  0.00    -0.086 C 
BRANCH  20  21
ATOM     21  N   UNL     1     -36.402  26.606   5.042  0.00  0.00    +0.380 N 
ATOM     22  H   UNL     1     -35.757  26.839   5.798  0.00  0.00    -0.089 HD
ATOM     23  H   UNL     1     -36.929  25.769   5.293  0.00  0.00    -0.089 HD
ATOM     24  H   UNL     1     -37.046  27.381   4.893  0.00  0.00    -0.089 HD
ENDBRANCH  20  21
ENDBRANCH  19  20
ENDBRANCH  18  19
ENDBRANCH  17  18
ENDBRANCH  14  17
ENDBRANCH   1  15
BRANCH   1  25
ATOM     25  C   UNL     1     -34.945  21.294   1.373  0.00  0.00    +0.055 C 
BRANCH  25  26
ATOM     26  C   UNL     1     -34.587  19.881   0.983  0.00  0.00    -0.020 C 
ATOM     27  C   UNL     1     -33.415  19.320   1.466  0.00  0.00    -0.001 C 
ATOM     28  C   UNL     1     -35.435  19.171   0.149  0.00  0.00    -0.001 C 
ATOM     29  C   UNL     1     -33.083  18.014   1.105  0.00  0.00    +0.036 C 
ATOM     30  C   UNL     1     -35.103  17.864  -0.213  0.00  0.00    +0.036 C 
ATOM     31  C   UNL     1     -33.927  17.286   0.266  0.00  0.00    +0.134 C 
BRANCH  31  32
ATOM     32  O   UNL     1     -33.603  16.013  -0.085  0.00  0.00    -0.506 OA
ATOM     33  H   UNL     1     -32.707  15.781  -0.237  0.00  0.00    +0.292 HD
ENDBRANCH  31  32
ENDBRANCH  25  26
ENDBRANCH   1  25
TORSDOF 13
ENDMDL
MODEL 3
REMARK VINA RESULT:      -5.6      1.154      1.836
REMARK  Name = 21597398
REMARK  13 active torsions:
REMARK  status: ('A' for Active; 'I' for Inactive)
REMARK    1  A    between atoms: C_1  and  N_3
REMARK    2  A    between atoms: C_1  and  C_15
REMARK    3  A    between atoms: C_1  and  C_25
REMARK    4  A    between atoms: C_4  and  C_7
REMARK    5  A    between atoms: C_8  and  C_10
REMARK    6  A    between atoms: C_10  and  O_11
REMARK    7  A    between atoms: N_14  and  C_17
REMARK    8  A    between atoms: C_17  and  C_18
REMARK    9  A    between atoms: C_18  and  C_19
REMARK   10  A    between atoms: C_19  and  C_20
REMARK   11  A    between atoms: C_20  and  N_21
REMARK   12  A    between atoms: C_25  and  C_26
REMARK   13  A    between atoms: C_31  and  O_32
REMARK                            x       y       z     vdW  Elec       q    Type
REMARK                         _______ _______ _______ _____ _____    ______ ____
ROOT
ATOM      1  C   UNL     1     -35.519  26.683   3.075  0.00  0.00    +0.153 C 
ENDROOT
BRANCH   1   3
ATOM      2  O   UNL     1     -32.789  25.767   3.438  0.00  0.00    -0.272 OA
ATOM      3  N   UNL     1     -34.418  27.418   3.644  0.00  0.00    -0.296 N 
ATOM      4  C   UNL     1     -33.141  26.894   3.777  0.00  0.00    +0.253 C 
ATOM      5  H   UNL     1     -34.580  28.338   3.953  0.00  0.00    +0.150 HD
BRANCH   4   7
ATOM      6  O   UNL     1     -32.850  28.920   5.069  0.00  0.00    -0.333 OA
ATOM      7  C   UNL     1     -32.176  27.880   4.377  0.00  0.00    +0.229 C 
ATOM      8  C   UNL     1     -32.094  27.988   5.854  0.00  0.00    +0.250 C 
BRANCH   8  10
ATOM      9  O   UNL     1     -30.778  29.779   6.651  0.00  0.00    -0.247 OA
ATOM     10  C   UNL     1     -30.893  28.579   6.453  0.00  0.00    +0.344 C 
BRANCH  10  11
ATOM     11  O   UNL     1     -29.954  27.649   6.751  0.00  0.00    -0.478 OA
ATOM     12  H   UNL     1     -29.095  27.917   7.012  0.00  0.00    +0.295 HD
ENDBRANCH  10  11
ENDBRANCH   8  10
ENDBRANCH   4   7
ENDBRANCH   1   3
BRANCH   1  15
ATOM     13  O   UNL     1     -37.400  27.370   1.709  0.00  0.00    -0.273 OA
ATOM     14  N   UNL     1     -35.709  28.907   2.131  0.00  0.00    -0.303 N 
ATOM     15  C   UNL     1     -36.319  27.658   2.218  0.00  0.00    +0.241 C 
ATOM     16  H   UNL     1     -34.841  29.032   2.576  0.00  0.00    +0.149 HD
BRANCH  14  17
ATOM     17  C   UNL     1     -36.278  30.021   1.425  0.00  0.00    +0.089 C 
BRANCH  17  18
ATOM     18  C   UNL     1     -36.186  31.323   2.215  0.00  0.00    +0.019 C 
BRANCH  18  19
ATOM     19  C   UNL     1     -36.067  32.552   1.306  0.00  0.00    -0.022 C 
BRANCH  19  20
ATOM     20  C   UNL     1     -37.409  33.000   0.724  0.00  0.00    -0.086 C 
BRANCH  20  21
ATOM     21  N   UNL     1     -38.459  33.027   1.735  0.00  0.00    +0.380 N 
ATOM     22  H   UNL     1     -38.259  32.331   2.453  0.00  0.00    -0.089 HD
ATOM     23  H   UNL     1     -39.357  32.816   1.299  0.00  0.00    -0.089 HD
ATOM     24  H   UNL     1     -38.498  33.953   2.161  0.00  0.00    -0.089 HD
ENDBRANCH  20  21
ENDBRANCH  19  20
ENDBRANCH  18  19
ENDBRANCH  17  18
ENDBRANCH  14  17
ENDBRANCH   1  15
BRANCH   1  25
ATOM     25  C   UNL     1     -36.417  26.059   4.151  0.00  0.00    +0.055 C 
BRANCH  25  26
ATOM     26  C   UNL     1     -36.064  24.621   4.442  0.00  0.00    -0.020 C 
ATOM     27  C   UNL     1     -35.539  24.288   5.681  0.00  0.00    -0.001 C 
ATOM     28  C   UNL     1     -36.273  23.659   3.467  0.00  0.00    -0.001 C 
ATOM     29  C   UNL     1     -35.213  22.958   5.950  0.00  0.00    +0.036 C 
ATOM     30  C   UNL     1     -35.947  22.329   3.736  0.00  0.00    +0.036 C 
ATOM     31  C   UNL     1     -35.417  21.979   4.979  0.00  0.00    +0.134 C 
BRANCH  31  32
ATOM     32  O   UNL     1     -35.100  20.683   5.242  0.00  0.00    -0.506 OA
ATOM     33  H   UNL     1     -34.615  20.181   4.615  0.00  0.00    +0.292 HD
ENDBRANCH  31  32
ENDBRANCH  25  26
ENDBRANCH   1  25
TORSDOF 13
ENDMDL
MODEL 4
REMARK VINA RESULT:      -5.6      2.019      3.513
REMARK  Name = 21597398
REMARK  13 active torsions:
REMARK  status: ('A' for Active; 'I' for Inactive)
REMARK    1  A    between atoms: C_1  and  N_3
REMARK    2  A    between atoms: C_1  and  C_15
REMARK    3  A    between atoms: C_1  and  C_25
REMARK    4  A    between atoms: C_4  and  C_7
REMARK    5  A    between atoms: C_8  and  C_10
REMARK    6  A    between atoms: C_10  and  O_11
REMARK    7  A    between atoms: N_14  and  C_17
REMARK    8  A    between atoms: C_17  and  C_18
REMARK    9  A    between atoms: C_18  and  C_19
REMARK   10  A    between atoms: C_19  and  C_20
REMARK   11  A    between atoms: C_20  and  N_21
REMARK   12  A    between atoms: C_25  and  C_26
REMARK   13  A    between atoms: C_31  and  O_32
REMARK                            x       y       z     vdW  Elec       q    Type
REMARK                         _______ _______ _______ _____ _____    ______ ____
ROOT
ATOM      1  C   UNL     1     -35.477  26.421   2.870  0.00  0.00    +0.153 C 
ENDROOT
BRANCH   1   3
ATOM      2  O   UNL     1     -32.783  25.612   3.583  0.00  0.00    -0.272 OA
ATOM      3  N   UNL     1     -34.430  27.249   3.414  0.00  0.00    -0.296 N 
ATOM      4  C   UNL     1     -33.166  26.770   3.725  0.00  0.00    +0.253 C 
ATOM      5  H   UNL     1     -34.621  28.201   3.572  0.00  0.00    +0.150 HD
BRANCH   4   7
ATOM      6  O   UNL     1     -32.981  28.849   4.952  0.00  0.00    -0.333 OA
ATOM      7  C   UNL     1     -32.258  27.848   4.252  0.00  0.00    +0.229 C 
ATOM      8  C   UNL     1     -32.114  28.004   5.719  0.00  0.00    +0.250 C 
BRANCH   8  10
ATOM      9  O   UNL     1     -30.877  29.925   6.314  0.00  0.00    -0.247 OA
ATOM     10  C   UNL     1     -30.938  28.707   6.243  0.00  0.00    +0.344 C 
BRANCH  10  11
ATOM     11  O   UNL     1     -29.958  27.856   6.628  0.00  0.00    -0.478 OA
ATOM     12  H   UNL     1     -30.130  26.937   6.687  0.00  0.00    +0.295 HD
ENDBRANCH  10  11
ENDBRANCH   8  10
ENDBRANCH   4   7
ENDBRANCH   1   3
BRANCH   1  15
ATOM     13  O   UNL     1     -35.834  28.325   1.413  0.00  0.00    -0.273 OA
ATOM     14  N   UNL     1     -37.506  26.720   1.579  0.00  0.00    -0.303 N 
ATOM     15  C   UNL     1     -36.271  27.281   1.893  0.00  0.00    +0.241 C 
ATOM     16  H   UNL     1     -37.760  25.879   2.022  0.00  0.00    +0.149 HD
BRANCH  14  17
ATOM     17  C   UNL     1     -38.429  27.303   0.645  0.00  0.00    +0.089 C 
BRANCH  17  18
ATOM     18  C   UNL     1     -39.691  26.464   0.468  0.00  0.00    +0.019 C 
BRANCH  18  19
ATOM     19  C   UNL     1     -40.431  26.234   1.790  0.00  0.00    -0.022 C 
BRANCH  19  20
ATOM     20  C   UNL     1     -40.218  24.829   2.360  0.00  0.00    -0.086 C 
BRANCH  20  21
ATOM     21  N   UNL     1     -39.837  24.863   3.766  0.00  0.00    +0.380 N 
ATOM     22  H   UNL     1     -40.676  24.859   4.346  0.00  0.00    -0.089 HD
ATOM     23  H   UNL     1     -39.300  25.710   3.953  0.00  0.00    -0.089 HD
ATOM     24  H   UNL     1     -39.269  24.045   3.984  0.00  0.00    -0.089 HD
ENDBRANCH  20  21
ENDBRANCH  19  20
ENDBRANCH  18  19
ENDBRANCH  17  18
ENDBRANCH  14  17
ENDBRANCH   1  15
BRANCH   1  25
ATOM     25  C   UNL     1     -36.401  25.865   3.961  0.00  0.00    +0.055 C 
BRANCH  25  26
ATOM     26  C   UNL     1     -36.043  24.455   4.365  0.00  0.00    -0.020 C 
ATOM     27  C   UNL     1     -35.576  24.215   5.647  0.00  0.00    -0.001 C 
ATOM     28  C   UNL     1     -36.190  23.428   3.447  0.00  0.00    -0.001 C 
ATOM     29  C   UNL     1     -35.245  22.911   6.021  0.00  0.00    +0.036 C 
ATOM     30  C   UNL     1     -35.859  22.124   3.820  0.00  0.00    +0.036 C 
ATOM     31  C   UNL     1     -35.387  21.867   5.108  0.00  0.00    +0.134 C 
BRANCH  31  32
ATOM     32  O   UNL     1     -35.064  20.596   5.473  0.00  0.00    -0.506 OA
ATOM     33  H   UNL     1     -34.428  20.114   4.981  0.00  0.00    +0.292 HD
ENDBRANCH  31  32
ENDBRANCH  25  26
ENDBRANCH   1  25
TORSDOF 13
ENDMDL
MODEL 5
REMARK VINA RESULT:      -5.5      2.473      5.655
REMARK  Name = 21597398
REMARK  13 active torsions:
REMARK  status: ('A' for Active; 'I' for Inactive)
REMARK    1  A    between atoms: C_1  and  N_3
REMARK    2  A    between atoms: C_1  and  C_15
REMARK    3  A    between atoms: C_1  and  C_25
REMARK    4  A    between atoms: C_4  and  C_7
REMARK    5  A    between atoms: C_8  and  C_10
REMARK    6  A    between atoms: C_10  and  O_11
REMARK    7  A    between atoms: N_14  and  C_17
REMARK    8  A    between atoms: C_17  and  C_18
REMARK    9  A    between atoms: C_18  and  C_19
REMARK   10  A    between atoms: C_19  and  C_20
REMARK   11  A    between atoms: C_20  and  N_21
REMARK   12  A    between atoms: C_25  and  C_26
REMARK   13  A    between atoms: C_31  and  O_32
REMARK                            x       y       z     vdW  Elec       q    Type
REMARK                         _______ _______ _______ _____ _____    ______ ____
ROOT
ATOM      1  C   UNL     1     -35.941  26.298   3.418  0.00  0.00    +0.153 C 
ENDROOT
BRANCH   1   3
ATOM      2  O   UNL     1     -38.300  24.740   4.075  0.00  0.00    -0.272 OA
ATOM      3  N   UNL     1     -37.266  26.443   2.870  0.00  0.00    -0.296 N 
ATOM      4  C   UNL     1     -38.337  25.647   3.248  0.00  0.00    +0.253 C 
ATOM      5  H   UNL     1     -37.419  27.141   2.194  0.00  0.00    +0.150 HD
BRANCH   4   7
ATOM      6  O   UNL     1     -39.354  26.718   1.330  0.00  0.00    -0.333 OA
ATOM      7  C   UNL     1     -39.610  26.026   2.542  0.00  0.00    +0.229 C 
ATOM      8  C   UNL     1     -39.912  25.401   1.232  0.00  0.00    +0.250 C 
BRANCH   8  10
ATOM      9  O   UNL     1     -42.120  24.570   1.126  0.00  0.00    -0.247 OA
ATOM     10  C   UNL     1     -41.299  25.396   0.754  0.00  0.00    +0.344 C 
BRANCH  10  11
ATOM     11  O   UNL     1     -41.545  26.395  -0.126  0.00  0.00    -0.478 OA
ATOM     12  H   UNL     1     -42.424  26.687  -0.270  0.00  0.00    +0.295 HD
ENDBRANCH  10  11
ENDBRANCH   8  10
ENDBRANCH   4   7
ENDBRANCH   1   3
BRANCH   1  15
ATOM     13  O   UNL     1     -34.157  27.908   3.738  0.00  0.00    -0.273 OA
ATOM     14  N   UNL     1     -35.817  28.378   2.181  0.00  0.00    -0.303 N 
ATOM     15  C   UNL     1     -35.201  27.607   3.163  0.00  0.00    +0.241 C 
ATOM     16  H   UNL     1     -36.653  28.045   1.785  0.00  0.00    +0.149 HD
BRANCH  14  17
ATOM     17  C   UNL     1     -35.298  29.635   1.717  0.00  0.00    +0.089 C 
BRANCH  17  18
ATOM     18  C   UNL     1     -35.659  30.795   2.641  0.00  0.00    +0.019 C 
BRANCH  18  19
ATOM     19  C   UNL     1     -34.487  31.758   2.856  0.00  0.00    -0.022 C 
BRANCH  19  20
ATOM     20  C   UNL     1     -33.164  31.040   3.133  0.00  0.00    -0.086 C 
BRANCH  20  21
ATOM     21  N   UNL     1     -33.076  30.570   4.509  0.00  0.00    +0.380 N 
ATOM     22  H   UNL     1     -33.962  30.742   4.985  0.00  0.00    -0.089 HD
ATOM     23  H   UNL     1     -32.329  31.069   4.993  0.00  0.00    -0.089 HD
ATOM     24  H   UNL     1     -32.876  29.571   4.516  0.00  0.00    -0.089 HD
ENDBRANCH  20  21
ENDBRANCH  19  20
ENDBRANCH  18  19
ENDBRANCH  17  18
ENDBRANCH  14  17
ENDBRANCH   1  15
BRANCH   1  25
ATOM     25  C   UNL     1     -35.179  25.125   2.789  0.00  0.00    +0.055 C 
BRANCH  25  26
ATOM     26  C   UNL     1     -35.209  23.883   3.646  0.00  0.00    -0.020 C 
ATOM     27  C   UNL     1     -35.421  22.651   3.048  0.00  0.00    -0.001 C 
ATOM     28  C   UNL     1     -35.024  23.997   5.015  0.00  0.00    -0.001 C 
ATOM     29  C   UNL     1     -35.449  21.502   3.841  0.00  0.00    +0.036 C 
ATOM     30  C   UNL     1     -35.052  22.849   5.807  0.00  0.00    +0.036 C 
ATOM     31  C   UNL     1     -35.264  21.601   5.220  0.00  0.00    +0.134 C 
BRANCH  31  32
ATOM     32  O   UNL     1     -35.291  20.481   5.991  0.00  0.00    -0.506 OA
ATOM     33  H   UNL     1     -34.608  19.843   5.916  0.00  0.00    +0.292 HD
ENDBRANCH  31  32
ENDBRANCH  25  26
ENDBRANCH   1  25
TORSDOF 13
ENDMDL
MODEL 6
REMARK VINA RESULT:      -5.4      4.669      9.232
REMARK  Name = 21597398
REMARK  13 active torsions:
REMARK  status: ('A' for Active; 'I' for Inactive)
REMARK    1  A    between atoms: C_1  and  N_3
REMARK    2  A    between atoms: C_1  and  C_15
REMARK    3  A    between atoms: C_1  and  C_25
REMARK    4  A    between atoms: C_4  and  C_7
REMARK    5  A    between atoms: C_8  and  C_10
REMARK    6  A    between atoms: C_10  and  O_11
REMARK    7  A    between atoms: N_14  and  C_17
REMARK    8  A    between atoms: C_17  and  C_18
REMARK    9  A    between atoms: C_18  and  C_19
REMARK   10  A    between atoms: C_19  and  C_20
REMARK   11  A    between atoms: C_20  and  N_21
REMARK   12  A    between atoms: C_25  and  C_26
REMARK   13  A    between atoms: C_31  and  O_32
REMARK                            x       y       z     vdW  Elec       q    Type
REMARK                         _______ _______ _______ _____ _____    ______ ____
ROOT
ATOM      1  C   UNL     1     -36.859  21.263   1.830  0.00  0.00    +0.153 C 
ENDROOT
BRANCH   1   3
ATOM      2  O   UNL     1     -36.601  20.426  -0.937  0.00  0.00    -0.272 OA
ATOM      3  N   UNL     1     -37.239  19.995   1.261  0.00  0.00    -0.296 N 
ATOM      4  C   UNL     1     -37.076  19.684  -0.080  0.00  0.00    +0.253 C 
ATOM      5  H   UNL     1     -37.633  19.315   1.853  0.00  0.00    +0.150 HD
BRANCH   4   7
ATOM      6  O   UNL     1     -37.192  17.917  -1.732  0.00  0.00    -0.333 OA
ATOM      7  C   UNL     1     -37.531  18.286  -0.404  0.00  0.00    +0.229 C 
ATOM      8  C   UNL     1     -36.506  17.247  -0.667  0.00  0.00    +0.250 C 
BRANCH   8  10
ATOM      9  O   UNL     1     -37.373  15.197  -1.455  0.00  0.00    -0.247 OA
ATOM     10  C   UNL     1     -36.883  15.835  -0.536  0.00  0.00    +0.344 C 
BRANCH  10  11
ATOM     11  O   UNL     1     -36.624  15.344   0.699  0.00  0.00    -0.478 OA
ATOM     12  H   UNL     1     -37.288  14.878   1.167  0.00  0.00    +0.295 HD
ENDBRANCH  10  11
ENDBRANCH   8  10
ENDBRANCH   4   7
ENDBRANCH   1   3
BRANCH   1  15
ATOM     13  O   UNL     1     -34.903  20.204   2.793  0.00  0.00    -0.273 OA
ATOM     14  N   UNL     1     -36.092  21.729   4.081  0.00  0.00    -0.303 N 
ATOM     15  C   UNL     1     -35.847  20.978   2.934  0.00  0.00    +0.241 C 
ATOM     16  H   UNL     1     -36.879  22.320   4.090  0.00  0.00    +0.149 HD
BRANCH  14  17
ATOM     17  C   UNL     1     -35.260  21.686   5.251  0.00  0.00    +0.089 C 
BRANCH  17  18
ATOM     18  C   UNL     1     -35.193  23.030   5.971  0.00  0.00    +0.019 C 
BRANCH  18  19
ATOM     19  C   UNL     1     -35.867  24.154   5.176  0.00  0.00    -0.022 C 
BRANCH  19  20
ATOM     20  C   UNL     1     -35.362  25.546   5.561  0.00  0.00    -0.086 C 
BRANCH  20  21
ATOM     21  N   UNL     1     -36.370  26.574   5.331  0.00  0.00    +0.380 N 
ATOM     22  H   UNL     1     -37.298  26.180   5.478  0.00  0.00    -0.089 HD
ATOM     23  H   UNL     1     -36.295  26.916   4.372  0.00  0.00    -0.089 HD
ATOM     24  H   UNL     1     -36.222  27.347   5.978  0.00  0.00    -0.089 HD
ENDBRANCH  20  21
ENDBRANCH  19  20
ENDBRANCH  18  19
ENDBRANCH  17  18
ENDBRANCH  14  17
ENDBRANCH   1  15
BRANCH   1  25
ATOM     25  C   UNL     1     -38.063  22.028   2.395  0.00  0.00    +0.055 C 
BRANCH  25  26
ATOM     26  C   UNL     1     -37.931  23.523   2.235  0.00  0.00    -0.020 C 
ATOM     27  C   UNL     1     -36.935  24.033   1.419  0.00  0.00    -0.001 C 
ATOM     28  C   UNL     1     -38.810  24.358   2.907  0.00  0.00    -0.001 C 
ATOM     29  C   UNL     1     -36.813  25.416   1.271  0.00  0.00    +0.036 C 
ATOM     30  C   UNL     1     -38.688  25.740   2.759  0.00  0.00    +0.036 C 
ATOM     31  C   UNL     1     -37.690  26.269   1.941  0.00  0.00    +0.134 C 
BRANCH  31  32
ATOM     32  O   UNL     1     -37.571  27.616   1.796  0.00  0.00    -0.506 OA
ATOM     33  H   UNL     1     -37.036  28.107   2.390  0.00  0.00    +0.292 HD
ENDBRANCH  31  32
ENDBRANCH  25  26
ENDBRANCH   1  25
TORSDOF 13
ENDMDL
MODEL 7
REMARK VINA RESULT:      -5.3      2.718      5.871
REMARK  Name = 21597398
REMARK  13 active torsions:
REMARK  status: ('A' for Active; 'I' for Inactive)
REMARK    1  A    between atoms: C_1  and  N_3
REMARK    2  A    between atoms: C_1  and  C_15
REMARK    3  A    between atoms: C_1  and  C_25
REMARK    4  A    between atoms: C_4  and  C_7
REMARK    5  A    between atoms: C_8  and  C_10
REMARK    6  A    between atoms: C_10  and  O_11
REMARK    7  A    between atoms: N_14  and  C_17
REMARK    8  A    between atoms: C_17  and  C_18
REMARK    9  A    between atoms: C_18  and  C_19
REMARK   10  A    between atoms: C_19  and  C_20
REMARK   11  A    between atoms: C_20  and  N_21
REMARK   12  A    between atoms: C_25  and  C_26
REMARK   13  A    between atoms: C_31  and  O_32
REMARK                            x       y       z     vdW  Elec       q    Type
REMARK                         _______ _______ _______ _____ _____    ______ ____
ROOT
ATOM      1  C   UNL     1     -35.902  26.376   3.392  0.00  0.00    +0.153 C 
ENDROOT
BRANCH   1   3
ATOM      2  O   UNL     1     -38.250  24.773   3.978  0.00  0.00    -0.272 OA
ATOM      3  N   UNL     1     -37.189  26.440   2.746  0.00  0.00    -0.296 N 
ATOM      4  C   UNL     1     -38.257  25.629   3.096  0.00  0.00    +0.253 C 
ATOM      5  H   UNL     1     -37.316  27.092   2.020  0.00  0.00    +0.150 HD
BRANCH   4   7
ATOM      6  O   UNL     1     -40.450  24.881   2.393  0.00  0.00    -0.333 OA
ATOM      7  C   UNL     1     -39.489  25.919   2.282  0.00  0.00    +0.229 C 
ATOM      8  C   UNL     1     -40.773  26.146   2.988  0.00  0.00    +0.250 C 
BRANCH   8  10
ATOM      9  O   UNL     1     -42.590  26.302   1.488  0.00  0.00    -0.247 OA
ATOM     10  C   UNL     1     -41.848  26.855   2.286  0.00  0.00    +0.344 C 
BRANCH  10  11
ATOM     11  O   UNL     1     -41.912  28.163   2.628  0.00  0.00    -0.478 OA
ATOM     12  H   UNL     1     -42.619  28.476   3.158  0.00  0.00    +0.295 HD
ENDBRANCH  10  11
ENDBRANCH   8  10
ENDBRANCH   4   7
ENDBRANCH   1   3
BRANCH   1  15
ATOM     13  O   UNL     1     -34.181  28.045   3.750  0.00  0.00    -0.273 OA
ATOM     14  N   UNL     1     -35.892  28.512   2.249  0.00  0.00    -0.303 N 
ATOM     15  C   UNL     1     -35.224  27.725   3.183  0.00  0.00    +0.241 C 
ATOM     16  H   UNL     1     -36.722  28.161   1.854  0.00  0.00    +0.149 HD
BRANCH  14  17
ATOM     17  C   UNL     1     -35.436  29.809   1.832  0.00  0.00    +0.089 C 
BRANCH  17  18
ATOM     18  C   UNL     1     -36.551  30.653   1.220  0.00  0.00    +0.019 C 
BRANCH  18  19
ATOM     19  C   UNL     1     -36.784  31.960   1.986  0.00  0.00    -0.022 C 
BRANCH  19  20
ATOM     20  C   UNL     1     -38.115  32.629   1.639  0.00  0.00    -0.086 C 
BRANCH  20  21
ATOM     21  N   UNL     1     -38.830  31.910   0.592  0.00  0.00    +0.380 N 
ATOM     22  H   UNL     1     -39.779  32.275   0.516  0.00  0.00    -0.089 HD
ATOM     23  H   UNL     1     -38.866  30.918   0.825  0.00  0.00    -0.089 HD
ATOM     24  H   UNL     1     -38.346  32.033  -0.297  0.00  0.00    -0.089 HD
ENDBRANCH  20  21
ENDBRANCH  19  20
ENDBRANCH  18  19
ENDBRANCH  17  18
ENDBRANCH  14  17
ENDBRANCH   1  15
BRANCH   1  25
ATOM     25  C   UNL     1     -35.028  25.248   2.832  0.00  0.00    +0.055 C 
BRANCH  25  26
ATOM     26  C   UNL     1     -35.108  23.984   3.653  0.00  0.00    -0.020 C 
ATOM     27  C   UNL     1     -34.907  24.051   5.023  0.00  0.00    -0.001 C 
ATOM     28  C   UNL     1     -35.382  22.781   3.023  0.00  0.00    -0.001 C 
ATOM     29  C   UNL     1     -34.981  22.882   5.782  0.00  0.00    +0.036 C 
ATOM     30  C   UNL     1     -35.457  21.612   3.782  0.00  0.00    +0.036 C 
ATOM     31  C   UNL     1     -35.256  21.663   5.162  0.00  0.00    +0.134 C 
BRANCH  31  32
ATOM     32  O   UNL     1     -35.329  20.525   5.903  0.00  0.00    -0.506 OA
ATOM     33  H   UNL     1     -35.502  19.703   5.486  0.00  0.00    +0.292 HD
ENDBRANCH  31  32
ENDBRANCH  25  26
ENDBRANCH   1  25
TORSDOF 13
ENDMDL
MODEL 8
REMARK VINA RESULT:      -5.3      3.468      7.301
REMARK  Name = 21597398
REMARK  13 active torsions:
REMARK  status: ('A' for Active; 'I' for Inactive)
REMARK    1  A    between atoms: C_1  and  N_3
REMARK    2  A    between atoms: C_1  and  C_15
REMARK    3  A    between atoms: C_1  and  C_25
REMARK    4  A    between atoms: C_4  and  C_7
REMARK    5  A    between atoms: C_8  and  C_10
REMARK    6  A    between atoms: C_10  and  O_11
REMARK    7  A    between atoms: N_14  and  C_17
REMARK    8  A    between atoms: C_17  and  C_18
REMARK    9  A    between atoms: C_18  and  C_19
REMARK   10  A    between atoms: C_19  and  C_20
REMARK   11  A    between atoms: C_20  and  N_21
REMARK   12  A    between atoms: C_25  and  C_26
REMARK   13  A    between atoms: C_31  and  O_32
REMARK                            x       y       z     vdW  Elec       q    Type
REMARK                         _______ _______ _______ _____ _____    ______ ____
ROOT
ATOM      1  C   UNL     1     -37.064  25.021   3.604  0.00  0.00    +0.153 C 
ENDROOT
BRANCH   1   3
ATOM      2  O   UNL     1     -36.177  22.526   4.791  0.00  0.00    -0.272 OA
ATOM      3  N   UNL     1     -36.478  23.891   2.929  0.00  0.00    -0.296 N 
ATOM      4  C   UNL     1     -36.083  22.735   3.584  0.00  0.00    +0.253 C 
ATOM      5  H   UNL     1     -36.351  23.942   1.954  0.00  0.00    +0.150 HD
BRANCH   4   7
ATOM      6  O   UNL     1     -35.401  20.434   3.264  0.00  0.00    -0.333 OA
ATOM      7  C   UNL     1     -35.527  21.703   2.641  0.00  0.00    +0.229 C 
ATOM      8  C   UNL     1     -36.391  20.568   2.236  0.00  0.00    +0.250 C 
BRANCH   8  10
ATOM      9  O   UNL     1     -36.632  20.018  -0.047  0.00  0.00    -0.247 OA
ATOM     10  C   UNL     1     -36.059  19.828   1.014  0.00  0.00    +0.344 C 
BRANCH  10  11
ATOM     11  O   UNL     1     -35.062  18.932   1.209  0.00  0.00    -0.478 OA
ATOM     12  H   UNL     1     -34.735  18.430   0.488  0.00  0.00    +0.295 HD
ENDBRANCH  10  11
ENDBRANCH   8  10
ENDBRANCH   4   7
ENDBRANCH   1   3
BRANCH   1  15
ATOM     13  O   UNL     1     -39.449  24.637   3.800  0.00  0.00    -0.273 OA
ATOM     14  N   UNL     1     -38.660  25.832   1.970  0.00  0.00    -0.303 N 
ATOM     15  C   UNL     1     -38.518  25.112   3.154  0.00  0.00    +0.241 C 
ATOM     16  H   UNL     1     -37.846  26.169   1.531  0.00  0.00    +0.149 HD
BRANCH  14  17
ATOM     17  C   UNL     1     -39.929  26.106   1.355  0.00  0.00    +0.089 C 
BRANCH  17  18
ATOM     18  C   UNL     1     -40.204  25.207   0.154  0.00  0.00    +0.019 C 
BRANCH  18  19
ATOM     19  C   UNL     1     -40.979  23.941   0.536  0.00  0.00    -0.022 C 
BRANCH  19  20
ATOM     20  C   UNL     1     -40.090  22.700   0.636  0.00  0.00    -0.086 C 
BRANCH  20  21
ATOM     21  N   UNL     1     -40.037  22.174   1.994  0.00  0.00    +0.380 N 
ATOM     22  H   UNL     1     -40.019  22.948   2.658  0.00  0.00    -0.089 HD
ATOM     23  H   UNL     1     -39.194  21.610   2.108  0.00  0.00    -0.089 HD
ATOM     24  H   UNL     1     -40.858  21.596   2.168  0.00  0.00    -0.089 HD
ENDBRANCH  20  21
ENDBRANCH  19  20
ENDBRANCH  18  19
ENDBRANCH  17  18
ENDBRANCH  14  17
ENDBRANCH   1  15
BRANCH   1  25
ATOM     25  C   UNL     1     -36.327  26.329   3.291  0.00  0.00    +0.055 C 
BRANCH  25  26
ATOM     26  C   UNL     1     -35.135  26.557   4.188  0.00  0.00    -0.020 C 
ATOM     27  C   UNL     1     -35.112  25.976   5.446  0.00  0.00    -0.001 C 
ATOM     28  C   UNL     1     -34.086  27.342   3.738  0.00  0.00    -0.001 C 
ATOM     29  C   UNL     1     -34.010  26.186   6.276  0.00  0.00    +0.036 C 
ATOM     30  C   UNL     1     -32.984  27.552   4.568  0.00  0.00    +0.036 C 
ATOM     31  C   UNL     1     -32.947  26.974   5.838  0.00  0.00    +0.134 C 
BRANCH  31  32
ATOM     32  O   UNL     1     -31.873  27.179   6.647  0.00  0.00    -0.506 OA
ATOM     33  H   UNL     1     -31.504  26.462   7.127  0.00  0.00    +0.292 HD
ENDBRANCH  31  32
ENDBRANCH  25  26
ENDBRANCH   1  25
TORSDOF 13
ENDMDL
MODEL 9
REMARK VINA RESULT:      -5.3      3.761      8.470
REMARK  Name = 21597398
REMARK  13 active torsions:
REMARK  status: ('A' for Active; 'I' for Inactive)
REMARK    1  A    between atoms: C_1  and  N_3
REMARK    2  A    between atoms: C_1  and  C_15
REMARK    3  A    between atoms: C_1  and  C_25
REMARK    4  A    between atoms: C_4  and  C_7
REMARK    5  A    between atoms: C_8  and  C_10
REMARK    6  A    between atoms: C_10  and  O_11
REMARK    7  A    between atoms: N_14  and  C_17
REMARK    8  A    between atoms: C_17  and  C_18
REMARK    9  A    between atoms: C_18  and  C_19
REMARK   10  A    between atoms: C_19  and  C_20
REMARK   11  A    between atoms: C_20  and  N_21
REMARK   12  A    between atoms: C_25  and  C_26
REMARK   13  A    between atoms: C_31  and  O_32
REMARK                            x       y       z     vdW  Elec       q    Type
REMARK                         _______ _______ _______ _____ _____    ______ ____
ROOT
ATOM      1  C   UNL     1     -36.587  24.758   4.094  0.00  0.00    +0.153 C 
ENDROOT
BRANCH   1   3
ATOM      2  O   UNL     1     -38.002  26.658   2.417  0.00  0.00    -0.272 OA
ATOM      3  N   UNL     1     -38.010  24.847   3.879  0.00  0.00    -0.296 N 
ATOM      4  C   UNL     1     -38.597  25.794   3.055  0.00  0.00    +0.253 C 
ATOM      5  H   UNL     1     -38.593  24.202   4.340  0.00  0.00    +0.150 HD
BRANCH   4   7
ATOM      6  O   UNL     1     -40.728  26.873   2.661  0.00  0.00    -0.333 OA
ATOM      7  C   UNL     1     -40.093  25.647   2.988  0.00  0.00    +0.229 C 
ATOM      8  C   UNL     1     -40.770  25.828   1.681  0.00  0.00    +0.250 C 
BRANCH   8  10
ATOM      9  O   UNL     1     -43.124  25.841   1.860  0.00  0.00    -0.247 OA
ATOM     10  C   UNL     1     -42.111  25.263   1.496  0.00  0.00    +0.344 C 
BRANCH  10  11
ATOM     11  O   UNL     1     -42.082  24.054   0.887  0.00  0.00    -0.478 OA
ATOM     12  H   UNL     1     -41.312  23.523   0.936  0.00  0.00    +0.295 HD
ENDBRANCH  10  11
ENDBRANCH   8  10
ENDBRANCH   4   7
ENDBRANCH   1   3
BRANCH   1  15
ATOM     13  O   UNL     1     -36.168  22.679   5.266  0.00  0.00    -0.273 OA
ATOM     14  N   UNL     1     -36.058  22.691   2.945  0.00  0.00    -0.303 N 
ATOM     15  C   UNL     1     -36.236  23.278   4.195  0.00  0.00    +0.241 C 
ATOM     16  H   UNL     1     -36.134  23.263   2.148  0.00  0.00    +0.149 HD
BRANCH  14  17
ATOM     17  C   UNL     1     -35.768  21.297   2.757  0.00  0.00    +0.089 C 
BRANCH  17  18
ATOM     18  C   UNL     1     -34.852  21.046   1.563  0.00  0.00    +0.019 C 
BRANCH  18  19
ATOM     19  C   UNL     1     -34.616  19.552   1.310  0.00  0.00    -0.022 C 
BRANCH  19  20
ATOM     20  C   UNL     1     -35.526  18.978   0.221  0.00  0.00    -0.086 C 
BRANCH  20  21
ATOM     21  N   UNL     1     -36.817  18.562   0.753  0.00  0.00    +0.380 N 
ATOM     22  H   UNL     1     -36.863  17.543   0.777  0.00  0.00    -0.089 HD
ATOM     23  H   UNL     1     -37.563  18.921   0.157  0.00  0.00    -0.089 HD
ATOM     24  H   UNL     1     -36.931  18.929   1.698  0.00  0.00    -0.089 HD
ENDBRANCH  20  21
ENDBRANCH  19  20
ENDBRANCH  18  19
ENDBRANCH  17  18
ENDBRANCH  14  17
ENDBRANCH   1  15
BRANCH   1  25
ATOM     25  C   UNL     1     -36.146  25.498   5.363  0.00  0.00    +0.055 C 
BRANCH  25  26
ATOM     26  C   UNL     1     -34.878  26.293   5.164  0.00  0.00    -0.020 C 
ATOM     27  C   UNL     1     -33.946  26.350   6.188  0.00  0.00    -0.001 C 
ATOM     28  C   UNL     1     -34.669  26.949   3.962  0.00  0.00    -0.001 C 
ATOM     29  C   UNL     1     -32.773  27.084   6.005  0.00  0.00    +0.036 C 
ATOM     30  C   UNL     1     -33.496  27.684   3.778  0.00  0.00    +0.036 C 
ATOM     31  C   UNL     1     -32.549  27.751   4.800  0.00  0.00    +0.134 C 
BRANCH  31  32
ATOM     32  O   UNL     1     -31.405  28.466   4.622  0.00  0.00    -0.506 OA
ATOM     33  H   UNL     1     -31.011  28.909   5.349  0.00  0.00    +0.292 HD
ENDBRANCH  31  32
ENDBRANCH  25  26
ENDBRANCH   1  25
TORSDOF 13
ENDMDL
