MODEL 1
REMARK VINA RESULT:      -6.2      0.000      0.000
REMARK  Name = 53360475
REMARK  11 active torsions:
REMARK  status: ('A' for Active; 'I' for Inactive)
REMARK    1  A    between atoms: N_2  and  CA_17
REMARK    2  A    between atoms: C_3  and  C_5
REMARK    3  A    between atoms: C_6  and  C_9
REMARK    4  A    between atoms: C_12  and  O_15
REMARK    5  A    between atoms: CA_17  and  C_19
REMARK    6  A    between atoms: CA_17  and  CB_22
REMARK    7  A    between atoms: C_19  and  O_20
REMARK    8  A    between atoms: CB_22  and  CG_23
REMARK    9  A    between atoms: CG_23  and  CD_24
REMARK   10  A    between atoms: CD_24  and  NE_25
REMARK   11  A    between atoms: NE_25  and  CZ_28
REMARK                            x       y       z     vdW  Elec       q    Type
REMARK                         _______ _______ _______ _____ _____    ______ ____
ROOT
ATOM      1  O   UNK A   0     -35.961  22.183   6.345  0.00  0.00    -0.270 OA
ATOM      2  N   ARG A   1     -35.388  23.587   4.582  0.00  0.00    -0.293 N 
ATOM      3  C   UNK A   0     -35.585  22.355   5.190  0.00  0.00    +0.246 C 
ATOM      4  H   ARG A   1     -35.083  23.603   3.646  0.00  0.00    +0.150 HD
ENDROOT
BRANCH   3   5
ATOM      5  C   UNK A   0     -35.286  21.223   4.267  0.00  0.00    +0.058 C 
ATOM      6  C   UNK A   0     -35.572  21.332   2.961  0.00  0.00    +0.005 C 
BRANCH   6   9
ATOM      7 BR   UNK A   0     -37.505  18.303  -0.960  0.00  0.00    -0.046 Br
ATOM      8 BR   UNK A   0     -32.044  17.995   0.793  0.00  0.00    -0.046 Br
ATOM      9  C   UNK A   0     -35.309  20.284   1.958  0.00  0.00    +0.001 C 
ATOM     10  C   UNK A   0     -34.036  19.723   1.853  0.00  0.00    +0.010 C 
ATOM     11  C   UNK A   0     -36.333  19.852   1.115  0.00  0.00    +0.010 C 
ATOM     12  C   UNK A   0     -34.812  18.300   0.061  0.00  0.00    +0.151 C 
ATOM     13  C   UNK A   0     -36.086  18.861   0.167  0.00  0.00    +0.069 C 
ATOM     14  C   UNK A   0     -33.787  18.732   0.904  0.00  0.00    +0.069 C 
BRANCH  12  15
ATOM     15  O   UNK A   0     -34.569  17.328  -0.867  0.00  0.00    -0.470 OA
ATOM     16  C   UNK A   0     -34.131  17.761  -2.153  0.00  0.00    +0.253 C 
ENDBRANCH  12  15
ENDBRANCH   6   9
ENDBRANCH   3   5
BRANCH   2  17
ATOM     17  CA  ARG A   1     -35.607  24.842   5.254  0.00  0.00    +0.172 C 
BRANCH  17  19
ATOM     18  OXT ARG A   1     -34.028  26.487   6.115  0.00  0.00    -0.248 OA
ATOM     19  C   ARG A   1     -34.277  25.567   5.347  0.00  0.00    +0.332 C 
BRANCH  19  20
ATOM     20  O   ARG A   1     -33.356  25.048   4.494  0.00  0.00    -0.479 OA
ATOM     21  H   ARG A   1     -32.626  24.566   4.828  0.00  0.00    +0.295 HD
ENDBRANCH  19  20
ENDBRANCH  17  19
BRANCH  17  22
ATOM     22  CB  ARG A   1     -36.688  25.692   4.580  0.00  0.00    +0.033 C 
BRANCH  22  23
ATOM     23  CG  ARG A   1     -37.049  25.238   3.160  0.00  0.00    +0.029 C 
BRANCH  23  24
ATOM     24  CD  ARG A   1     -38.451  24.640   3.114  0.00  0.00    +0.129 C 
BRANCH  24  25
ATOM     25  NE  ARG A   1     -38.347  23.192   2.927  0.00  0.00    -0.240 NA
BRANCH  25  28
ATOM     26  NH1 ARG A   1     -39.396  21.239   2.249  0.00  0.00    -0.370 N 
ATOM     27  NH2 ARG A   1     -40.381  23.205   1.650  0.00  0.00    -0.370 N 
ATOM     28  CZ  ARG A   1     -39.327  22.611   2.307  0.00  0.00    +0.189 C 
ATOM     29 HH11 ARG A   1     -38.700  20.692   2.681  0.00  0.00    +0.159 HD
ATOM     30 HH12 ARG A   1     -40.142  20.803   1.776  0.00  0.00    +0.159 HD
ATOM     31 HH21 ARG A   1     -40.451  24.187   1.616  0.00  0.00    +0.159 HD
ATOM     32 HH22 ARG A   1     -41.066  22.649   1.214  0.00  0.00    +0.159 HD
ENDBRANCH  25  28
ENDBRANCH  24  25
ENDBRANCH  23  24
ENDBRANCH  22  23
ENDBRANCH  17  22
ENDBRANCH   2  17
TORSDOF 11
ENDMDL
MODEL 2
REMARK VINA RESULT:      -6.2      0.498      2.027
REMARK  Name = 53360475
REMARK  11 active torsions:
REMARK  status: ('A' for Active; 'I' for Inactive)
REMARK    1  A    between atoms: N_2  and  CA_17
REMARK    2  A    between atoms: C_3  and  C_5
REMARK    3  A    between atoms: C_6  and  C_9
REMARK    4  A    between atoms: C_12  and  O_15
REMARK    5  A    between atoms: CA_17  and  C_19
REMARK    6  A    between atoms: CA_17  and  CB_22
REMARK    7  A    between atoms: C_19  and  O_20
REMARK    8  A    between atoms: CB_22  and  CG_23
REMARK    9  A    between atoms: CG_23  and  CD_24
REMARK   10  A    between atoms: CD_24  and  NE_25
REMARK   11  A    between atoms: NE_25  and  CZ_28
REMARK                            x       y       z     vdW  Elec       q    Type
REMARK                         _______ _______ _______ _____ _____    ______ ____
ROOT
ATOM      1  O   UNK A   0     -35.919  22.207   6.312  0.00  0.00    -0.270 OA
ATOM      2  N   ARG A   1     -35.280  23.564   4.536  0.00  0.00    -0.293 N 
ATOM      3  C   UNK A   0     -35.534  22.349   5.156  0.00  0.00    +0.246 C 
ATOM      4  H   ARG A   1     -34.974  23.556   3.601  0.00  0.00    +0.150 HD
ENDROOT
BRANCH   3   5
ATOM      5  C   UNK A   0     -35.285  21.195   4.246  0.00  0.00    +0.058 C 
ATOM      6  C   UNK A   0     -35.508  21.322   2.929  0.00  0.00    +0.005 C 
BRANCH   6   9
ATOM      7 BR   UNK A   0     -32.090  17.889   0.736  0.00  0.00    -0.046 Br
ATOM      8 BR   UNK A   0     -37.581  18.276  -0.905  0.00  0.00    -0.046 Br
ATOM      9  C   UNK A   0     -35.287  20.255   1.938  0.00  0.00    +0.001 C 
ATOM     10  C   UNK A   0     -36.337  19.832   1.123  0.00  0.00    +0.010 C 
ATOM     11  C   UNK A   0     -34.027  19.669   1.812  0.00  0.00    +0.010 C 
ATOM     12  C   UNK A   0     -34.867  18.236   0.058  0.00  0.00    +0.151 C 
ATOM     13  C   UNK A   0     -33.817  18.660   0.873  0.00  0.00    +0.069 C 
ATOM     14  C   UNK A   0     -36.128  18.822   0.184  0.00  0.00    +0.069 C 
BRANCH  12  15
ATOM     15  O   UNK A   0     -34.663  17.248  -0.862  0.00  0.00    -0.470 OA
ATOM     16  C   UNK A   0     -34.841  15.906  -0.417  0.00  0.00    +0.253 C 
ENDBRANCH  12  15
ENDBRANCH   6   9
ENDBRANCH   3   5
BRANCH   2  17
ATOM     17  CA  ARG A   1     -35.442  24.835   5.194  0.00  0.00    +0.172 C 
BRANCH  17  19
ATOM     18  OXT ARG A   1     -33.278  25.420   4.238  0.00  0.00    -0.248 OA
ATOM     19  C   ARG A   1     -34.127  25.587   5.103  0.00  0.00    +0.332 C 
BRANCH  19  20
ATOM     20  O   ARG A   1     -34.007  26.518   6.085  0.00  0.00    -0.479 OA
ATOM     21  H   ARG A   1     -34.047  27.430   5.875  0.00  0.00    +0.295 HD
ENDBRANCH  19  20
ENDBRANCH  17  19
BRANCH  17  22
ATOM     22  CB  ARG A   1     -36.615  25.644   4.635  0.00  0.00    +0.033 C 
BRANCH  22  23
ATOM     23  CG  ARG A   1     -37.056  25.221   3.228  0.00  0.00    +0.029 C 
BRANCH  23  24
ATOM     24  CD  ARG A   1     -38.432  24.563   3.257  0.00  0.00    +0.129 C 
BRANCH  24  25
ATOM     25  NE  ARG A   1     -38.295  23.153   2.890  0.00  0.00    -0.240 NA
BRANCH  25  28
ATOM     26  NH1 ARG A   1     -39.445  21.238   2.270  0.00  0.00    -0.370 N 
ATOM     27  NH2 ARG A   1     -40.327  23.234   1.612  0.00  0.00    -0.370 N 
ATOM     28  CZ  ARG A   1     -39.304  22.605   2.286  0.00  0.00    +0.189 C 
ATOM     29 HH11 ARG A   1     -38.778  20.669   2.719  0.00  0.00    +0.159 HD
ATOM     30 HH12 ARG A   1     -40.213  20.827   1.810  0.00  0.00    +0.159 HD
ATOM     31 HH21 ARG A   1     -40.345  24.216   1.548  0.00  0.00    +0.159 HD
ATOM     32 HH22 ARG A   1     -41.040  22.701   1.192  0.00  0.00    +0.159 HD
ENDBRANCH  25  28
ENDBRANCH  24  25
ENDBRANCH  23  24
ENDBRANCH  22  23
ENDBRANCH  17  22
ENDBRANCH   2  17
TORSDOF 11
ENDMDL
MODEL 3
REMARK VINA RESULT:      -6.1      4.436      6.813
REMARK  Name = 53360475
REMARK  11 active torsions:
REMARK  status: ('A' for Active; 'I' for Inactive)
REMARK    1  A    between atoms: N_2  and  CA_17
REMARK    2  A    between atoms: C_3  and  C_5
REMARK    3  A    between atoms: C_6  and  C_9
REMARK    4  A    between atoms: C_12  and  O_15
REMARK    5  A    between atoms: CA_17  and  C_19
REMARK    6  A    between atoms: CA_17  and  CB_22
REMARK    7  A    between atoms: C_19  and  O_20
REMARK    8  A    between atoms: CB_22  and  CG_23
REMARK    9  A    between atoms: CG_23  and  CD_24
REMARK   10  A    between atoms: CD_24  and  NE_25
REMARK   11  A    between atoms: NE_25  and  CZ_28
REMARK                            x       y       z     vdW  Elec       q    Type
REMARK                         _______ _______ _______ _____ _____    ______ ____
ROOT
ATOM      1  O   UNK A   0     -32.955  26.775   7.429  0.00  0.00    -0.270 OA
ATOM      2  N   ARG A   1     -32.512  28.185   5.635  0.00  0.00    -0.293 N 
ATOM      3  C   UNK A   0     -33.057  27.062   6.241  0.00  0.00    +0.246 C 
ATOM      4  H   ARG A   1     -32.658  28.313   4.670  0.00  0.00    +0.150 HD
ENDROOT
BRANCH   3   5
ATOM      5  C   UNK A   0     -33.804  26.212   5.271  0.00  0.00    +0.058 C 
ATOM      6  C   UNK A   0     -34.971  25.656   5.629  0.00  0.00    +0.005 C 
BRANCH   6   9
ATOM      7 BR   UNK A   0     -35.447  21.060   2.997  0.00  0.00    -0.046 Br
ATOM      8 BR   UNK A   0     -39.517  25.112   2.925  0.00  0.00    -0.046 Br
ATOM      9  C   UNK A   0     -35.798  24.810   4.752  0.00  0.00    +0.001 C 
ATOM     10  C   UNK A   0     -37.045  25.262   4.321  0.00  0.00    +0.010 C 
ATOM     11  C   UNK A   0     -35.334  23.557   4.350  0.00  0.00    +0.010 C 
ATOM     12  C   UNK A   0     -37.363  23.208   3.088  0.00  0.00    +0.151 C 
ATOM     13  C   UNK A   0     -36.115  22.756   3.518  0.00  0.00    +0.069 C 
ATOM     14  C   UNK A   0     -37.828  24.461   3.489  0.00  0.00    +0.069 C 
BRANCH  12  15
ATOM     15  O   UNK A   0     -38.130  22.425   2.273  0.00  0.00    -0.470 OA
ATOM     16  C   UNK A   0     -37.945  22.584   0.868  0.00  0.00    +0.253 C 
ENDBRANCH  12  15
ENDBRANCH   6   9
ENDBRANCH   3   5
BRANCH   2  17
ATOM     17  CA  ARG A   1     -31.742  29.172   6.349  0.00  0.00    +0.172 C 
BRANCH  17  19
ATOM     18  OXT ARG A   1     -29.777  27.981   5.536  0.00  0.00    -0.248 OA
ATOM     19  C   ARG A   1     -30.292  28.724   6.361  0.00  0.00    +0.332 C 
BRANCH  19  20
ATOM     20  O   ARG A   1     -29.599  29.280   7.389  0.00  0.00    -0.479 OA
ATOM     21  H   ARG A   1     -29.813  29.058   8.273  0.00  0.00    +0.295 HD
ENDBRANCH  19  20
ENDBRANCH  17  19
BRANCH  17  22
ATOM     22  CB  ARG A   1     -31.911  30.581   5.774  0.00  0.00    +0.033 C 
BRANCH  22  23
ATOM     23  CG  ARG A   1     -31.483  30.716   4.307  0.00  0.00    +0.029 C 
BRANCH  23  24
ATOM     24  CD  ARG A   1     -32.677  31.033   3.412  0.00  0.00    +0.129 C 
BRANCH  24  25
ATOM     25  NE  ARG A   1     -33.345  29.782   3.048  0.00  0.00    -0.240 NA
BRANCH  25  28
ATOM     26  NH1 ARG A   1     -35.308  28.550   3.081  0.00  0.00    -0.370 N 
ATOM     27  NH2 ARG A   1     -35.483  30.787   3.481  0.00  0.00    -0.370 N 
ATOM     28  CZ  ARG A   1     -34.632  29.741   3.200  0.00  0.00    +0.189 C 
ATOM     29 HH11 ARG A   1     -34.815  27.722   2.880  0.00  0.00    +0.159 HD
ATOM     30 HH12 ARG A   1     -36.286  28.525   3.196  0.00  0.00    +0.159 HD
ATOM     31 HH21 ARG A   1     -35.125  31.698   3.592  0.00  0.00    +0.159 HD
ATOM     32 HH22 ARG A   1     -36.449  30.625   3.571  0.00  0.00    +0.159 HD
ENDBRANCH  25  28
ENDBRANCH  24  25
ENDBRANCH  23  24
ENDBRANCH  22  23
ENDBRANCH  17  22
ENDBRANCH   2  17
TORSDOF 11
ENDMDL
MODEL 4
REMARK VINA RESULT:      -6.0      4.447      6.623
REMARK  Name = 53360475
REMARK  11 active torsions:
REMARK  status: ('A' for Active; 'I' for Inactive)
REMARK    1  A    between atoms: N_2  and  CA_17
REMARK    2  A    between atoms: C_3  and  C_5
REMARK    3  A    between atoms: C_6  and  C_9
REMARK    4  A    between atoms: C_12  and  O_15
REMARK    5  A    between atoms: CA_17  and  C_19
REMARK    6  A    between atoms: CA_17  and  CB_22
REMARK    7  A    between atoms: C_19  and  O_20
REMARK    8  A    between atoms: CB_22  and  CG_23
REMARK    9  A    between atoms: CG_23  and  CD_24
REMARK   10  A    between atoms: CD_24  and  NE_25
REMARK   11  A    between atoms: NE_25  and  CZ_28
REMARK                            x       y       z     vdW  Elec       q    Type
REMARK                         _______ _______ _______ _____ _____    ______ ____
ROOT
ATOM      1  O   UNK A   0     -32.950  26.753   7.376  0.00  0.00    -0.270 OA
ATOM      2  N   ARG A   1     -32.514  28.199   5.608  0.00  0.00    -0.293 N 
ATOM      3  C   UNK A   0     -33.064  27.069   6.196  0.00  0.00    +0.246 C 
ATOM      4  H   ARG A   1     -32.672  28.351   4.649  0.00  0.00    +0.150 HD
ENDROOT
BRANCH   3   5
ATOM      5  C   UNK A   0     -33.834  26.250   5.217  0.00  0.00    +0.058 C 
ATOM      6  C   UNK A   0     -34.910  25.560   5.623  0.00  0.00    +0.005 C 
BRANCH   6   9
ATOM      7 BR   UNK A   0     -39.491  25.069   2.967  0.00  0.00    -0.046 Br
ATOM      8 BR   UNK A   0     -35.437  21.000   2.938  0.00  0.00    -0.046 Br
ATOM      9  C   UNK A   0     -35.751  24.729   4.743  0.00  0.00    +0.001 C 
ATOM     10  C   UNK A   0     -35.296  23.479   4.321  0.00  0.00    +0.010 C 
ATOM     11  C   UNK A   0     -37.002  25.190   4.333  0.00  0.00    +0.010 C 
ATOM     12  C   UNK A   0     -37.343  23.154   3.079  0.00  0.00    +0.151 C 
ATOM     13  C   UNK A   0     -37.798  24.403   3.502  0.00  0.00    +0.069 C 
ATOM     14  C   UNK A   0     -36.091  22.692   3.489  0.00  0.00    +0.069 C 
BRANCH  12  15
ATOM     15  O   UNK A   0     -38.122  22.382   2.265  0.00  0.00    -0.470 OA
ATOM     16  C   UNK A   0     -37.958  22.559   0.860  0.00  0.00    +0.253 C 
ENDBRANCH  12  15
ENDBRANCH   6   9
ENDBRANCH   3   5
BRANCH   2  17
ATOM     17  CA  ARG A   1     -31.723  29.160   6.334  0.00  0.00    +0.172 C 
BRANCH  17  19
ATOM     18  OXT ARG A   1     -29.779  27.957   5.486  0.00  0.00    -0.248 OA
ATOM     19  C   ARG A   1     -30.282  28.684   6.333  0.00  0.00    +0.332 C 
BRANCH  19  20
ATOM     20  O   ARG A   1     -29.579  29.195   7.378  0.00  0.00    -0.479 OA
ATOM     21  H   ARG A   1     -28.653  29.064   7.430  0.00  0.00    +0.295 HD
ENDBRANCH  19  20
ENDBRANCH  17  19
BRANCH  17  22
ATOM     22  CB  ARG A   1     -31.867  30.580   5.781  0.00  0.00    +0.033 C 
BRANCH  22  23
ATOM     23  CG  ARG A   1     -31.482  30.721   4.303  0.00  0.00    +0.029 C 
BRANCH  23  24
ATOM     24  CD  ARG A   1     -32.688  31.115   3.456  0.00  0.00    +0.129 C 
BRANCH  24  25
ATOM     25  NE  ARG A   1     -33.352  29.901   2.978  0.00  0.00    -0.240 NA
BRANCH  25  28
ATOM     26  NH1 ARG A   1     -35.271  28.604   3.076  0.00  0.00    -0.370 N 
ATOM     27  NH2 ARG A   1     -35.502  30.829   3.513  0.00  0.00    -0.370 N 
ATOM     28  CZ  ARG A   1     -34.630  29.816   3.182  0.00  0.00    +0.189 C 
ATOM     29 HH11 ARG A   1     -34.759  27.795   2.844  0.00  0.00    +0.159 HD
ATOM     30 HH12 ARG A   1     -36.241  28.544   3.231  0.00  0.00    +0.159 HD
ATOM     31 HH21 ARG A   1     -35.171  31.750   3.620  0.00  0.00    +0.159 HD
ATOM     32 HH22 ARG A   1     -36.458  30.633   3.641  0.00  0.00    +0.159 HD
ENDBRANCH  25  28
ENDBRANCH  24  25
ENDBRANCH  23  24
ENDBRANCH  22  23
ENDBRANCH  17  22
ENDBRANCH   2  17
TORSDOF 11
ENDMDL
MODEL 5
REMARK VINA RESULT:      -6.0      2.001      3.522
REMARK  Name = 53360475
REMARK  11 active torsions:
REMARK  status: ('A' for Active; 'I' for Inactive)
REMARK    1  A    between atoms: N_2  and  CA_17
REMARK    2  A    between atoms: C_3  and  C_5
REMARK    3  A    between atoms: C_6  and  C_9
REMARK    4  A    between atoms: C_12  and  O_15
REMARK    5  A    between atoms: CA_17  and  C_19
REMARK    6  A    between atoms: CA_17  and  CB_22
REMARK    7  A    between atoms: C_19  and  O_20
REMARK    8  A    between atoms: CB_22  and  CG_23
REMARK    9  A    between atoms: CG_23  and  CD_24
REMARK   10  A    between atoms: CD_24  and  NE_25
REMARK   11  A    between atoms: NE_25  and  CZ_28
REMARK                            x       y       z     vdW  Elec       q    Type
REMARK                         _______ _______ _______ _____ _____    ______ ____
ROOT
ATOM      1  O   UNK A   0     -36.008  22.232   6.379  0.00  0.00    -0.270 OA
ATOM      2  N   ARG A   1     -35.209  23.668   4.735  0.00  0.00    -0.293 N 
ATOM      3  C   UNK A   0     -35.522  22.427   5.269  0.00  0.00    +0.246 C 
ATOM      4  H   ARG A   1     -34.822  23.704   3.831  0.00  0.00    +0.150 HD
ENDROOT
BRANCH   3   5
ATOM      5  C   UNK A   0     -35.200  21.317   4.328  0.00  0.00    +0.058 C 
ATOM      6  C   UNK A   0     -35.666  21.349   3.071  0.00  0.00    +0.005 C 
BRANCH   6   9
ATOM      7 BR   UNK A   0     -32.122  18.079   0.829  0.00  0.00    -0.046 Br
ATOM      8 BR   UNK A   0     -37.604  18.343  -0.864  0.00  0.00    -0.046 Br
ATOM      9  C   UNK A   0     -35.402  20.315   2.055  0.00  0.00    +0.001 C 
ATOM     10  C   UNK A   0     -36.430  19.882   1.217  0.00  0.00    +0.010 C 
ATOM     11  C   UNK A   0     -34.124  19.771   1.929  0.00  0.00    +0.010 C 
ATOM     12  C   UNK A   0     -34.901  18.359   0.129  0.00  0.00    +0.151 C 
ATOM     13  C   UNK A   0     -33.873  18.793   0.966  0.00  0.00    +0.069 C 
ATOM     14  C   UNK A   0     -36.180  18.904   0.255  0.00  0.00    +0.069 C 
BRANCH  12  15
ATOM     15  O   UNK A   0     -34.657  17.403  -0.814  0.00  0.00    -0.470 OA
ATOM     16  C   UNK A   0     -34.810  16.045  -0.409  0.00  0.00    +0.253 C 
ENDBRANCH  12  15
ENDBRANCH   6   9
ENDBRANCH   3   5
BRANCH   2  17
ATOM     17  CA  ARG A   1     -35.423  24.907   5.439  0.00  0.00    +0.172 C 
BRANCH  17  19
ATOM     18  OXT ARG A   1     -33.799  26.536   6.245  0.00  0.00    -0.248 OA
ATOM     19  C   ARG A   1     -34.125  25.692   5.420  0.00  0.00    +0.332 C 
BRANCH  19  20
ATOM     20  O   ARG A   1     -33.324  25.323   4.386  0.00  0.00    -0.479 OA
ATOM     21  H   ARG A   1     -33.122  24.419   4.248  0.00  0.00    +0.295 HD
ENDBRANCH  19  20
ENDBRANCH  17  19
BRANCH  17  22
ATOM     22  CB  ARG A   1     -36.598  25.711   4.875  0.00  0.00    +0.033 C 
BRANCH  22  23
ATOM     23  CG  ARG A   1     -36.925  25.401   3.409  0.00  0.00    +0.029 C 
BRANCH  23  24
ATOM     24  CD  ARG A   1     -36.730  26.632   2.529  0.00  0.00    +0.129 C 
BRANCH  24  25
ATOM     25  NE  ARG A   1     -35.305  26.965   2.485  0.00  0.00    -0.240 NA
BRANCH  25  28
ATOM     26  NH1 ARG A   1     -33.883  28.414   3.604  0.00  0.00    -0.370 N 
ATOM     27  NH2 ARG A   1     -35.612  29.347   2.449  0.00  0.00    -0.370 N 
ATOM     28  CZ  ARG A   1     -34.979  28.178   2.808  0.00  0.00    +0.189 C 
ATOM     29 HH11 ARG A   1     -33.341  27.659   3.931  0.00  0.00    +0.159 HD
ATOM     30 HH12 ARG A   1     -33.640  29.336   3.848  0.00  0.00    +0.159 HD
ATOM     31 HH21 ARG A   1     -36.414  29.319   1.878  0.00  0.00    +0.159 HD
ATOM     32 HH22 ARG A   1     -35.263  30.212   2.764  0.00  0.00    +0.159 HD
ENDBRANCH  25  28
ENDBRANCH  24  25
ENDBRANCH  23  24
ENDBRANCH  22  23
ENDBRANCH  17  22
ENDBRANCH   2  17
TORSDOF 11
ENDMDL
MODEL 6
REMARK VINA RESULT:      -6.0      5.453      8.327
REMARK  Name = 53360475
REMARK  11 active torsions:
REMARK  status: ('A' for Active; 'I' for Inactive)
REMARK    1  A    between atoms: N_2  and  CA_17
REMARK    2  A    between atoms: C_3  and  C_5
REMARK    3  A    between atoms: C_6  and  C_9
REMARK    4  A    between atoms: C_12  and  O_15
REMARK    5  A    between atoms: CA_17  and  C_19
REMARK    6  A    between atoms: CA_17  and  CB_22
REMARK    7  A    between atoms: C_19  and  O_20
REMARK    8  A    between atoms: CB_22  and  CG_23
REMARK    9  A    between atoms: CG_23  and  CD_24
REMARK   10  A    between atoms: CD_24  and  NE_25
REMARK   11  A    between atoms: NE_25  and  CZ_28
REMARK                            x       y       z     vdW  Elec       q    Type
REMARK                         _______ _______ _______ _____ _____    ______ ____
ROOT
ATOM      1  O   UNK A   0     -31.909  29.465   7.106  0.00  0.00    -0.270 OA
ATOM      2  N   ARG A   1     -30.435  27.765   6.523  0.00  0.00    -0.293 N 
ATOM      3  C   UNK A   0     -31.688  28.309   6.762  0.00  0.00    +0.246 C 
ATOM      4  H   ARG A   1     -30.379  26.821   6.251  0.00  0.00    +0.150 HD
ENDROOT
BRANCH   3   5
ATOM      5  C   UNK A   0     -32.778  27.313   6.551  0.00  0.00    +0.058 C 
ATOM      6  C   UNK A   0     -33.214  27.051   5.310  0.00  0.00    +0.005 C 
BRANCH   6   9
ATOM      7 BR   UNK A   0     -35.194  22.170   6.042  0.00  0.00    -0.046 Br
ATOM      8 BR   UNK A   0     -37.670  26.038   2.592  0.00  0.00    -0.046 Br
ATOM      9  C   UNK A   0     -34.273  26.081   4.984  0.00  0.00    +0.001 C 
ATOM     10  C   UNK A   0     -35.296  26.436   4.103  0.00  0.00    +0.010 C 
ATOM     11  C   UNK A   0     -34.255  24.808   5.554  0.00  0.00    +0.010 C 
ATOM     12  C   UNK A   0     -36.280  24.244   4.364  0.00  0.00    +0.151 C 
ATOM     13  C   UNK A   0     -35.257  23.890   5.244  0.00  0.00    +0.069 C 
ATOM     14  C   UNK A   0     -36.299  25.517   3.794  0.00  0.00    +0.069 C 
BRANCH  12  15
ATOM     15  O   UNK A   0     -37.262  23.345   4.060  0.00  0.00    -0.470 OA
ATOM     16  C   UNK A   0     -37.033  22.499   2.935  0.00  0.00    +0.253 C 
ENDBRANCH  12  15
ENDBRANCH   6   9
ENDBRANCH   3   5
BRANCH   2  17
ATOM     17  CA  ARG A   1     -29.212  28.515   6.654  0.00  0.00    +0.172 C 
BRANCH  17  19
ATOM     18  OXT ARG A   1     -27.948  26.431   6.706  0.00  0.00    -0.248 OA
ATOM     19  C   ARG A   1     -28.124  27.568   7.125  0.00  0.00    +0.332 C 
BRANCH  19  20
ATOM     20  O   ARG A   1     -27.319  28.144   8.057  0.00  0.00    -0.479 OA
ATOM     21  H   ARG A   1     -26.762  27.612   8.589  0.00  0.00    +0.295 HD
ENDBRANCH  19  20
ENDBRANCH  17  19
BRANCH  17  22
ATOM     22  CB  ARG A   1     -28.828  29.247   5.365  0.00  0.00    +0.033 C 
BRANCH  22  23
ATOM     23  CG  ARG A   1     -29.031  30.766   5.422  0.00  0.00    +0.029 C 
BRANCH  23  24
ATOM     24  CD  ARG A   1     -30.267  31.186   4.631  0.00  0.00    +0.129 C 
BRANCH  24  25
ATOM     25  NE  ARG A   1     -30.754  30.039   3.863  0.00  0.00    -0.240 NA
BRANCH  25  28
ATOM     26  NH1 ARG A   1     -32.945  30.571   4.401  0.00  0.00    -0.370 N 
ATOM     27  NH2 ARG A   1     -32.588  29.562   2.388  0.00  0.00    -0.370 N 
ATOM     28  CZ  ARG A   1     -32.010  30.043   3.542  0.00  0.00    +0.189 C 
ATOM     29 HH11 ARG A   1     -32.662  30.950   5.264  0.00  0.00    +0.159 HD
ATOM     30 HH12 ARG A   1     -33.898  30.571   4.152  0.00  0.00    +0.159 HD
ATOM     31 HH21 ARG A   1     -32.028  29.157   1.687  0.00  0.00    +0.159 HD
ATOM     32 HH22 ARG A   1     -33.563  29.624   2.263  0.00  0.00    +0.159 HD
ENDBRANCH  25  28
ENDBRANCH  24  25
ENDBRANCH  23  24
ENDBRANCH  22  23
ENDBRANCH  17  22
ENDBRANCH   2  17
TORSDOF 11
ENDMDL
MODEL 7
REMARK VINA RESULT:      -6.0      5.493      8.215
REMARK  Name = 53360475
REMARK  11 active torsions:
REMARK  status: ('A' for Active; 'I' for Inactive)
REMARK    1  A    between atoms: N_2  and  CA_17
REMARK    2  A    between atoms: C_3  and  C_5
REMARK    3  A    between atoms: C_6  and  C_9
REMARK    4  A    between atoms: C_12  and  O_15
REMARK    5  A    between atoms: CA_17  and  C_19
REMARK    6  A    between atoms: CA_17  and  CB_22
REMARK    7  A    between atoms: C_19  and  O_20
REMARK    8  A    between atoms: CB_22  and  CG_23
REMARK    9  A    between atoms: CG_23  and  CD_24
REMARK   10  A    between atoms: CD_24  and  NE_25
REMARK   11  A    between atoms: NE_25  and  CZ_28
REMARK                            x       y       z     vdW  Elec       q    Type
REMARK                         _______ _______ _______ _____ _____    ______ ____
ROOT
ATOM      1  O   UNK A   0     -31.919  29.463   7.155  0.00  0.00    -0.270 OA
ATOM      2  N   ARG A   1     -30.390  27.831   6.518  0.00  0.00    -0.293 N 
ATOM      3  C   UNK A   0     -31.660  28.323   6.782  0.00  0.00    +0.246 C 
ATOM      4  H   ARG A   1     -30.303  26.896   6.224  0.00  0.00    +0.150 HD
ENDROOT
BRANCH   3   5
ATOM      5  C   UNK A   0     -32.715  27.293   6.559  0.00  0.00    +0.058 C 
ATOM      6  C   UNK A   0     -33.275  27.161   5.347  0.00  0.00    +0.005 C 
BRANCH   6   9
ATOM      7 BR   UNK A   0     -37.658  26.055   2.548  0.00  0.00    -0.046 Br
ATOM      8 BR   UNK A   0     -35.211  22.267   6.104  0.00  0.00    -0.046 Br
ATOM      9  C   UNK A   0     -34.314  26.173   5.010  0.00  0.00    +0.001 C 
ATOM     10  C   UNK A   0     -34.292  24.909   5.600  0.00  0.00    +0.010 C 
ATOM     11  C   UNK A   0     -35.322  26.502   4.104  0.00  0.00    +0.010 C 
ATOM     12  C   UNK A   0     -36.285  24.303   4.374  0.00  0.00    +0.151 C 
ATOM     13  C   UNK A   0     -36.307  25.568   3.786  0.00  0.00    +0.069 C 
ATOM     14  C   UNK A   0     -35.277  23.973   5.281  0.00  0.00    +0.069 C 
BRANCH  12  15
ATOM     15  O   UNK A   0     -37.249  23.387   4.064  0.00  0.00    -0.470 OA
ATOM     16  C   UNK A   0     -37.008  22.557   2.930  0.00  0.00    +0.253 C 
ENDBRANCH  12  15
ENDBRANCH   6   9
ENDBRANCH   3   5
BRANCH   2  17
ATOM     17  CA  ARG A   1     -29.194  28.621   6.655  0.00  0.00    +0.172 C 
BRANCH  17  19
ATOM     18  OXT ARG A   1     -27.334  27.970   8.090  0.00  0.00    -0.248 OA
ATOM     19  C   ARG A   1     -28.083  27.717   7.155  0.00  0.00    +0.332 C 
BRANCH  19  20
ATOM     20  O   ARG A   1     -28.030  26.548   6.463  0.00  0.00    -0.479 OA
ATOM     21  H   ARG A   1     -27.203  26.154   6.271  0.00  0.00    +0.295 HD
ENDBRANCH  19  20
ENDBRANCH  17  19
BRANCH  17  22
ATOM     22  CB  ARG A   1     -28.815  29.347   5.360  0.00  0.00    +0.033 C 
BRANCH  22  23
ATOM     23  CG  ARG A   1     -29.052  30.861   5.397  0.00  0.00    +0.029 C 
BRANCH  23  24
ATOM     24  CD  ARG A   1     -30.199  31.261   4.474  0.00  0.00    +0.129 C 
BRANCH  24  25
ATOM     25  NE  ARG A   1     -30.795  30.053   3.903  0.00  0.00    -0.240 NA
BRANCH  25  28
ATOM     26  NH1 ARG A   1     -32.969  30.629   4.466  0.00  0.00    -0.370 N 
ATOM     27  NH2 ARG A   1     -32.640  29.721   2.401  0.00  0.00    -0.370 N 
ATOM     28  CZ  ARG A   1     -32.050  30.117   3.580  0.00  0.00    +0.189 C 
ATOM     29 HH11 ARG A   1     -32.675  30.949   5.349  0.00  0.00    +0.159 HD
ATOM     30 HH12 ARG A   1     -33.920  30.674   4.216  0.00  0.00    +0.159 HD
ATOM     31 HH21 ARG A   1     -32.092  29.335   1.680  0.00  0.00    +0.159 HD
ATOM     32 HH22 ARG A   1     -33.611  29.822   2.278  0.00  0.00    +0.159 HD
ENDBRANCH  25  28
ENDBRANCH  24  25
ENDBRANCH  23  24
ENDBRANCH  22  23
ENDBRANCH  17  22
ENDBRANCH   2  17
TORSDOF 11
ENDMDL
MODEL 8
REMARK VINA RESULT:      -5.9      1.972      2.800
REMARK  Name = 53360475
REMARK  11 active torsions:
REMARK  status: ('A' for Active; 'I' for Inactive)
REMARK    1  A    between atoms: N_2  and  CA_17
REMARK    2  A    between atoms: C_3  and  C_5
REMARK    3  A    between atoms: C_6  and  C_9
REMARK    4  A    between atoms: C_12  and  O_15
REMARK    5  A    between atoms: CA_17  and  C_19
REMARK    6  A    between atoms: CA_17  and  CB_22
REMARK    7  A    between atoms: C_19  and  O_20
REMARK    8  A    between atoms: CB_22  and  CG_23
REMARK    9  A    between atoms: CG_23  and  CD_24
REMARK   10  A    between atoms: CD_24  and  NE_25
REMARK   11  A    between atoms: NE_25  and  CZ_28
REMARK                            x       y       z     vdW  Elec       q    Type
REMARK                         _______ _______ _______ _____ _____    ______ ____
ROOT
ATOM      1  O   UNK A   0     -35.968  22.281   6.469  0.00  0.00    -0.270 OA
ATOM      2  N   ARG A   1     -35.199  23.702   4.797  0.00  0.00    -0.293 N 
ATOM      3  C   UNK A   0     -35.513  22.466   5.345  0.00  0.00    +0.246 C 
ATOM      4  H   ARG A   1     -34.839  23.729   3.882  0.00  0.00    +0.150 HD
ENDROOT
BRANCH   3   5
ATOM      5  C   UNK A   0     -35.234  21.349   4.398  0.00  0.00    +0.058 C 
ATOM      6  C   UNK A   0     -35.655  21.429   3.127  0.00  0.00    +0.005 C 
BRANCH   6   9
ATOM      7 BR   UNK A   0     -37.722  18.430  -0.748  0.00  0.00    -0.046 Br
ATOM      8 BR   UNK A   0     -32.197  18.131   0.793  0.00  0.00    -0.046 Br
ATOM      9  C   UNK A   0     -35.426  20.393   2.105  0.00  0.00    +0.001 C 
ATOM     10  C   UNK A   0     -34.155  19.839   1.945  0.00  0.00    +0.010 C 
ATOM     11  C   UNK A   0     -36.479  19.964   1.297  0.00  0.00    +0.010 C 
ATOM     12  C   UNK A   0     -34.992  18.430   0.170  0.00  0.00    +0.151 C 
ATOM     13  C   UNK A   0     -36.263  18.983   0.330  0.00  0.00    +0.069 C 
ATOM     14  C   UNK A   0     -33.938  18.858   0.977  0.00  0.00    +0.069 C 
BRANCH  12  15
ATOM     15  O   UNK A   0     -34.780  17.468  -0.776  0.00  0.00    -0.470 OA
ATOM     16  C   UNK A   0     -34.936  16.113  -0.363  0.00  0.00    +0.253 C 
ENDBRANCH  12  15
ENDBRANCH   6   9
ENDBRANCH   3   5
BRANCH   2  17
ATOM     17  CA  ARG A   1     -35.375  24.945   5.503  0.00  0.00    +0.172 C 
BRANCH  17  19
ATOM     18  OXT ARG A   1     -33.719  26.604   6.171  0.00  0.00    -0.248 OA
ATOM     19  C   ARG A   1     -34.089  25.742   5.385  0.00  0.00    +0.332 C 
BRANCH  19  20
ATOM     20  O   ARG A   1     -33.354  25.361   4.308  0.00  0.00    -0.479 OA
ATOM     21  H   ARG A   1     -32.446  25.585   4.257  0.00  0.00    +0.295 HD
ENDBRANCH  19  20
ENDBRANCH  17  19
BRANCH  17  22
ATOM     22  CB  ARG A   1     -36.595  25.733   5.017  0.00  0.00    +0.033 C 
BRANCH  22  23
ATOM     23  CG  ARG A   1     -37.225  25.183   3.731  0.00  0.00    +0.029 C 
BRANCH  23  24
ATOM     24  CD  ARG A   1     -37.133  26.199   2.596  0.00  0.00    +0.129 C 
BRANCH  24  25
ATOM     25  NE  ARG A   1     -35.732  26.584   2.413  0.00  0.00    -0.240 NA
BRANCH  25  28
ATOM     26  NH1 ARG A   1     -35.651  28.555   1.194  0.00  0.00    -0.370 N 
ATOM     27  NH2 ARG A   1     -35.028  28.665   3.384  0.00  0.00    -0.370 N 
ATOM     28  CZ  ARG A   1     -35.478  27.855   2.365  0.00  0.00    +0.189 C 
ATOM     29 HH11 ARG A   1     -35.970  28.091   0.387  0.00  0.00    +0.159 HD
ATOM     30 HH12 ARG A   1     -35.456  29.519   1.164  0.00  0.00    +0.159 HD
ATOM     31 HH21 ARG A   1     -34.863  28.287   4.279  0.00  0.00    +0.159 HD
ATOM     32 HH22 ARG A   1     -34.871  29.622   3.219  0.00  0.00    +0.159 HD
ENDBRANCH  25  28
ENDBRANCH  24  25
ENDBRANCH  23  24
ENDBRANCH  22  23
ENDBRANCH  17  22
ENDBRANCH   2  17
TORSDOF 11
ENDMDL
MODEL 9
REMARK VINA RESULT:      -5.8      2.692      4.844
REMARK  Name = 53360475
REMARK  11 active torsions:
REMARK  status: ('A' for Active; 'I' for Inactive)
REMARK    1  A    between atoms: N_2  and  CA_17
REMARK    2  A    between atoms: C_3  and  C_5
REMARK    3  A    between atoms: C_6  and  C_9
REMARK    4  A    between atoms: C_12  and  O_15
REMARK    5  A    between atoms: CA_17  and  C_19
REMARK    6  A    between atoms: CA_17  and  CB_22
REMARK    7  A    between atoms: C_19  and  O_20
REMARK    8  A    between atoms: CB_22  and  CG_23
REMARK    9  A    between atoms: CG_23  and  CD_24
REMARK   10  A    between atoms: CD_24  and  NE_25
REMARK   11  A    between atoms: NE_25  and  CZ_28
REMARK                            x       y       z     vdW  Elec       q    Type
REMARK                         _______ _______ _______ _____ _____    ______ ____
ROOT
ATOM      1  O   UNK A   0     -36.831  21.938   1.730  0.00  0.00    -0.270 OA
ATOM      2  N   ARG A   1     -35.202  21.595   3.353  0.00  0.00    -0.293 N 
ATOM      3  C   UNK A   0     -35.800  21.398   2.117  0.00  0.00    +0.246 C 
ATOM      4  H   ARG A   1     -34.373  21.105   3.555  0.00  0.00    +0.150 HD
ENDROOT
BRANCH   3   5
ATOM      5  C   UNK A   0     -35.037  20.431   1.276  0.00  0.00    +0.058 C 
ATOM      6  C   UNK A   0     -34.206  19.552   1.855  0.00  0.00    +0.005 C 
BRANCH   6   9
ATOM      7 BR   UNK A   0     -29.377  17.723   0.585  0.00  0.00    -0.046 Br
ATOM      8 BR   UNK A   0     -34.217  15.275  -1.305  0.00  0.00    -0.046 Br
ATOM      9  C   UNK A   0     -33.413  18.547   1.127  0.00  0.00    +0.001 C 
ATOM     10  C   UNK A   0     -34.056  17.556   0.384  0.00  0.00    +0.010 C 
ATOM     11  C   UNK A   0     -32.020  18.585   1.178  0.00  0.00    +0.010 C 
ATOM     12  C   UNK A   0     -31.911  16.643  -0.255  0.00  0.00    +0.151 C 
ATOM     13  C   UNK A   0     -31.269  17.635   0.487  0.00  0.00    +0.069 C 
ATOM     14  C   UNK A   0     -33.305  16.604  -0.307  0.00  0.00    +0.069 C 
BRANCH  12  15
ATOM     15  O   UNK A   0     -31.177  15.713  -0.932  0.00  0.00    -0.470 OA
ATOM     16  C   UNK A   0     -30.815  16.030  -2.274  0.00  0.00    +0.253 C 
ENDBRANCH  12  15
ENDBRANCH   6   9
ENDBRANCH   3   5
BRANCH   2  17
ATOM     17  CA  ARG A   1     -35.737  22.481   4.355  0.00  0.00    +0.172 C 
BRANCH  17  19
ATOM     18  OXT ARG A   1     -35.318  22.565   6.755  0.00  0.00    -0.248 OA
ATOM     19  C   ARG A   1     -35.393  21.915   5.720  0.00  0.00    +0.332 C 
BRANCH  19  20
ATOM     20  O   ARG A   1     -35.210  20.569   5.679  0.00  0.00    -0.479 OA
ATOM     21  H   ARG A   1     -35.205  20.121   4.857  0.00  0.00    +0.295 HD
ENDBRANCH  19  20
ENDBRANCH  17  19
BRANCH  17  22
ATOM     22  CB  ARG A   1     -35.254  23.924   4.185  0.00  0.00    +0.033 C 
BRANCH  22  23
ATOM     23  CG  ARG A   1     -36.314  24.983   4.513  0.00  0.00    +0.029 C 
BRANCH  23  24
ATOM     24  CD  ARG A   1     -35.729  26.097   5.377  0.00  0.00    +0.129 C 
BRANCH  24  25
ATOM     25  NE  ARG A   1     -34.390  25.704   5.819  0.00  0.00    -0.240 NA
BRANCH  25  28
ATOM     26  NH1 ARG A   1     -33.268  27.545   4.968  0.00  0.00    -0.370 N 
ATOM     27  NH2 ARG A   1     -32.779  26.934   7.109  0.00  0.00    -0.370 N 
ATOM     28  CZ  ARG A   1     -33.527  26.658   5.986  0.00  0.00    +0.189 C 
ATOM     29 HH11 ARG A   1     -33.738  27.458   4.107  0.00  0.00    +0.159 HD
ATOM     30 HH12 ARG A   1     -32.611  28.267   5.099  0.00  0.00    +0.159 HD
ATOM     31 HH21 ARG A   1     -32.870  26.372   7.913  0.00  0.00    +0.159 HD
ATOM     32 HH22 ARG A   1     -32.153  27.693   7.109  0.00  0.00    +0.159 HD
ENDBRANCH  25  28
ENDBRANCH  24  25
ENDBRANCH  23  24
ENDBRANCH  22  23
ENDBRANCH  17  22
ENDBRANCH   2  17
TORSDOF 11
ENDMDL
