MODEL 1
REMARK VINA RESULT:      -5.4      0.000      0.000
REMARK  Name = 5355259
REMARK  12 active torsions:
REMARK  status: ('A' for Active; 'I' for Inactive)
REMARK    1  A    between atoms: C_3  and  O_10
REMARK    2  A    between atoms: C_6  and  C_17
REMARK    3  A    between atoms: O_10  and  C_12
REMARK    4  A    between atoms: C_12  and  C_13
REMARK    5  A    between atoms: C_17  and  O_18
REMARK    6  A    between atoms: O_18  and  C_20
REMARK    7  A    between atoms: C_20  and  C_21
REMARK    8  A    between atoms: C_21  and  C_22
REMARK    9  A    between atoms: C_21  and  O_27
REMARK   10  A    between atoms: C_21  and  C_29
REMARK   11  A    between atoms: C_22  and  O_25
REMARK   12  A    between atoms: C_29  and  O_31
REMARK                            x       y       z     vdW  Elec       q    Type
REMARK                         _______ _______ _______ _____ _____    ______ ____
ROOT
ATOM      1  N   UNL     1     -36.614  20.705   0.211  0.00  0.00    +0.396 N 
ATOM      2  C   UNL     1     -37.241  21.098   1.511  0.00  0.00    +0.006 C 
ATOM      3  C   UNL     1     -36.387  22.242   2.061  0.00  0.00    +0.152 C 
ATOM      4  C   UNL     1     -35.105  22.159   1.249  0.00  0.00    +0.019 C 
ATOM      5  C   UNL     1     -35.618  21.738  -0.113  0.00  0.00    -0.073 C 
ATOM      6  C   UNL     1     -38.659  21.458   1.186  0.00  0.00    -0.023 C 
ATOM      7  C   UNL     1     -37.709  20.650  -0.781  0.00  0.00    -0.050 C 
ATOM      8  C   UNL     1     -38.915  21.204  -0.100  0.00  0.00    -0.056 C 
ATOM      9  H   UNL     1     -36.143  19.800   0.233  0.00  0.00    -0.079 HD
ENDROOT
BRANCH   3  10
ATOM     10  O   UNL     1     -36.123  22.057   3.440  0.00  0.00    -0.451 OA
BRANCH  10  12
ATOM     11  O   UNL     1     -37.099  24.033   4.109  0.00  0.00    -0.245 OA
ATOM     12  C   UNL     1     -36.245  23.166   4.232  0.00  0.00    +0.337 C 
BRANCH  12  13
ATOM     13  C   UNL     1     -35.175  23.169   5.276  0.00  0.00    +0.049 C 
ATOM     14  C   UNL     1     -35.310  22.225   6.435  0.00  0.00    +0.037 C 
ATOM     15  C   UNL     1     -34.181  24.057   5.095  0.00  0.00    -0.024 C 
ATOM     16  C   UNL     1     -34.032  25.034   3.972  0.00  0.00    +0.031 C 
ENDBRANCH  12  13
ENDBRANCH  10  12
ENDBRANCH   3  10
BRANCH   6  17
ATOM     17  C   UNL     1     -39.608  21.969   2.208  0.00  0.00    +0.229 C 
BRANCH  17  18
ATOM     18  O   UNL     1     -40.317  23.104   1.703  0.00  0.00    -0.442 OA
BRANCH  18  20
ATOM     19  O   UNL     1     -39.935  24.390   3.568  0.00  0.00    -0.247 OA
ATOM     20  C   UNL     1     -40.100  24.280   2.358  0.00  0.00    +0.346 C 
BRANCH  20  21
ATOM     21  C   UNL     1     -40.095  25.463   1.377  0.00  0.00    +0.225 C 
BRANCH  21  22
ATOM     22  C   UNL     1     -38.696  26.160   1.304  0.00  0.00    +0.123 C 
ATOM     23  C   UNL     1     -37.607  25.201   0.791  0.00  0.00    +0.032 C 
ATOM     24  C   UNL     1     -38.714  27.398   0.388  0.00  0.00    +0.032 C 
BRANCH  22  25
ATOM     25  O   UNL     1     -38.297  26.600   2.604  0.00  0.00    -0.384 OA
ATOM     26  H   UNL     1     -37.365  26.869   2.583  0.00  0.00    +0.210 HD
ENDBRANCH  22  25
ENDBRANCH  21  22
BRANCH  21  27
ATOM     27  O   UNL     1     -40.303  24.837   0.094  0.00  0.00    -0.373 OA
ATOM     28  H   UNL     1     -39.572  24.226  -0.091  0.00  0.00    +0.211 HD
ENDBRANCH  21  27
BRANCH  21  29
ATOM     29  C   UNL     1     -41.319  26.398   1.593  0.00  0.00    +0.152 C 
ATOM     30  C   UNL     1     -42.703  25.763   1.639  0.00  0.00    +0.035 C 
BRANCH  29  31
ATOM     31  O   UNL     1     -41.139  27.149   2.802  0.00  0.00    -0.351 OA
ATOM     32  C   UNL     1     -42.275  27.044   3.641  0.00  0.00    +0.174 C 
ENDBRANCH  29  31
ENDBRANCH  21  29
ENDBRANCH  20  21
ENDBRANCH  18  20
ENDBRANCH  17  18
ENDBRANCH   6  17
TORSDOF 12
ENDMDL
MODEL 2
REMARK VINA RESULT:      -5.4      2.738      4.999
REMARK  Name = 5355259
REMARK  12 active torsions:
REMARK  status: ('A' for Active; 'I' for Inactive)
REMARK    1  A    between atoms: C_3  and  O_10
REMARK    2  A    between atoms: C_6  and  C_17
REMARK    3  A    between atoms: O_10  and  C_12
REMARK    4  A    between atoms: C_12  and  C_13
REMARK    5  A    between atoms: C_17  and  O_18
REMARK    6  A    between atoms: O_18  and  C_20
REMARK    7  A    between atoms: C_20  and  C_21
REMARK    8  A    between atoms: C_21  and  C_22
REMARK    9  A    between atoms: C_21  and  O_27
REMARK   10  A    between atoms: C_21  and  C_29
REMARK   11  A    between atoms: C_22  and  O_25
REMARK   12  A    between atoms: C_29  and  O_31
REMARK                            x       y       z     vdW  Elec       q    Type
REMARK                         _______ _______ _______ _____ _____    ______ ____
ROOT
ATOM      1  N   UNL     1     -40.262  23.142   1.840  0.00  0.00    +0.396 N 
ATOM      2  C   UNL     1     -39.203  23.857   2.618  0.00  0.00    +0.006 C 
ATOM      3  C   UNL     1     -37.937  23.010   2.481  0.00  0.00    +0.152 C 
ATOM      4  C   UNL     1     -38.450  21.671   1.978  0.00  0.00    +0.019 C 
ATOM      5  C   UNL     1     -39.587  22.088   1.068  0.00  0.00    -0.073 C 
ATOM      6  C   UNL     1     -39.120  25.231   2.025  0.00  0.00    -0.023 C 
ATOM      7  C   UNL     1     -40.897  24.156   0.970  0.00  0.00    -0.050 C 
ATOM      8  C   UNL     1     -40.072  25.393   1.102  0.00  0.00    -0.056 C 
ATOM      9  H   UNL     1     -40.981  22.707   2.418  0.00  0.00    -0.079 HD
ENDROOT
BRANCH   3  10
ATOM     10  O   UNL     1     -37.289  22.864   3.733  0.00  0.00    -0.451 OA
BRANCH  10  12
ATOM     11  O   UNL     1     -35.176  23.227   2.891  0.00  0.00    -0.245 OA
ATOM     12  C   UNL     1     -35.995  23.301   3.798  0.00  0.00    +0.337 C 
BRANCH  12  13
ATOM     13  C   UNL     1     -35.718  23.881   5.147  0.00  0.00    +0.049 C 
ATOM     14  C   UNL     1     -35.906  25.358   5.337  0.00  0.00    +0.037 C 
ATOM     15  C   UNL     1     -35.287  23.016   6.082  0.00  0.00    -0.024 C 
ATOM     16  C   UNL     1     -35.056  21.546   5.919  0.00  0.00    +0.031 C 
ENDBRANCH  12  13
ENDBRANCH  10  12
ENDBRANCH   3  10
BRANCH   6  17
ATOM     17  C   UNL     1     -38.130  26.240   2.482  0.00  0.00    +0.229 C 
BRANCH  17  18
ATOM     18  O   UNL     1     -37.026  26.297   1.574  0.00  0.00    -0.442 OA
BRANCH  18  20
ATOM     19  O   UNL     1     -36.956  28.583   1.362  0.00  0.00    -0.247 OA
ATOM     20  C   UNL     1     -36.393  27.501   1.485  0.00  0.00    +0.346 C 
BRANCH  20  21
ATOM     21  C   UNL     1     -34.867  27.327   1.550  0.00  0.00    +0.225 C 
BRANCH  21  22
ATOM     22  C   UNL     1     -34.238  28.111   2.748  0.00  0.00    +0.123 C 
ATOM     23  C   UNL     1     -33.233  27.248   3.532  0.00  0.00    +0.032 C 
ATOM     24  C   UNL     1     -33.512  29.389   2.285  0.00  0.00    +0.032 C 
BRANCH  22  25
ATOM     25  O   UNL     1     -35.258  28.513   3.665  0.00  0.00    -0.384 OA
ATOM     26  H   UNL     1     -36.062  27.996   3.501  0.00  0.00    +0.210 HD
ENDBRANCH  22  25
ENDBRANCH  21  22
BRANCH  21  27
ATOM     27  O   UNL     1     -34.702  25.925   1.852  0.00  0.00    -0.373 OA
ATOM     28  H   UNL     1     -34.149  25.510   1.171  0.00  0.00    +0.211 HD
ENDBRANCH  21  27
BRANCH  21  29
ATOM     29  C   UNL     1     -34.200  27.540   0.161  0.00  0.00    +0.152 C 
ATOM     30  C   UNL     1     -33.017  26.654  -0.206  0.00  0.00    +0.035 C 
BRANCH  29  31
ATOM     31  O   UNL     1     -35.190  27.403  -0.869  0.00  0.00    -0.351 OA
ATOM     32  C   UNL     1     -34.821  26.400  -1.798  0.00  0.00    +0.174 C 
ENDBRANCH  29  31
ENDBRANCH  21  29
ENDBRANCH  20  21
ENDBRANCH  18  20
ENDBRANCH  17  18
ENDBRANCH   6  17
TORSDOF 12
ENDMDL
MODEL 3
REMARK VINA RESULT:      -5.3      2.592      4.673
REMARK  Name = 5355259
REMARK  12 active torsions:
REMARK  status: ('A' for Active; 'I' for Inactive)
REMARK    1  A    between atoms: C_3  and  O_10
REMARK    2  A    between atoms: C_6  and  C_17
REMARK    3  A    between atoms: O_10  and  C_12
REMARK    4  A    between atoms: C_12  and  C_13
REMARK    5  A    between atoms: C_17  and  O_18
REMARK    6  A    between atoms: O_18  and  C_20
REMARK    7  A    between atoms: C_20  and  C_21
REMARK    8  A    between atoms: C_21  and  C_22
REMARK    9  A    between atoms: C_21  and  O_27
REMARK   10  A    between atoms: C_21  and  C_29
REMARK   11  A    between atoms: C_22  and  O_25
REMARK   12  A    between atoms: C_29  and  O_31
REMARK                            x       y       z     vdW  Elec       q    Type
REMARK                         _______ _______ _______ _____ _____    ______ ____
ROOT
ATOM      1  N   UNL     1     -38.940  20.320  -0.851  0.00  0.00    +0.396 N 
ATOM      2  C   UNL     1     -38.161  20.385   0.424  0.00  0.00    +0.006 C 
ATOM      3  C   UNL     1     -36.689  20.448   0.014  0.00  0.00    +0.152 C 
ATOM      4  C   UNL     1     -36.698  20.009  -1.440  0.00  0.00    +0.019 C 
ATOM      5  C   UNL     1     -37.997  20.605  -1.944  0.00  0.00    -0.073 C 
ATOM      6  C   UNL     1     -38.674  21.591   1.153  0.00  0.00    -0.023 C 
ATOM      7  C   UNL     1     -40.002  21.343  -0.745  0.00  0.00    -0.050 C 
ATOM      8  C   UNL     1     -39.706  22.123   0.493  0.00  0.00    -0.056 C 
ATOM      9  H   UNL     1     -39.373  19.413  -1.029  0.00  0.00    -0.079 HD
ENDROOT
BRANCH   3  10
ATOM     10  O   UNL     1     -35.907  19.567   0.802  0.00  0.00    -0.451 OA
BRANCH  10  12
ATOM     11  O   UNL     1     -35.153  20.354   2.831  0.00  0.00    -0.245 OA
ATOM     12  C   UNL     1     -34.993  20.152   1.635  0.00  0.00    +0.337 C 
BRANCH  12  13
ATOM     13  C   UNL     1     -33.762  20.515   0.868  0.00  0.00    +0.049 C 
ATOM     14  C   UNL     1     -33.693  21.873   0.236  0.00  0.00    +0.037 C 
ATOM     15  C   UNL     1     -32.818  19.559   0.787  0.00  0.00    -0.024 C 
ATOM     16  C   UNL     1     -32.867  18.185   1.375  0.00  0.00    +0.031 C 
ENDBRANCH  12  13
ENDBRANCH  10  12
ENDBRANCH   3  10
BRANCH   6  17
ATOM     17  C   UNL     1     -38.104  22.044   2.447  0.00  0.00    +0.229 C 
BRANCH  17  18
ATOM     18  O   UNL     1     -37.443  23.302   2.285  0.00  0.00    -0.442 OA
BRANCH  18  20
ATOM     19  O   UNL     1     -38.880  24.500   3.618  0.00  0.00    -0.247 OA
ATOM     20  C   UNL     1     -37.751  24.257   3.208  0.00  0.00    +0.346 C 
BRANCH  20  21
ATOM     21  C   UNL     1     -36.489  25.004   3.668  0.00  0.00    +0.225 C 
BRANCH  21  22
ATOM     22  C   UNL     1     -35.842  25.832   2.508  0.00  0.00    +0.123 C 
ATOM     23  C   UNL     1     -35.414  27.234   2.976  0.00  0.00    +0.032 C 
ATOM     24  C   UNL     1     -34.606  25.128   1.916  0.00  0.00    +0.032 C 
BRANCH  22  25
ATOM     25  O   UNL     1     -36.780  26.006   1.444  0.00  0.00    -0.384 OA
ATOM     26  H   UNL     1     -37.184  25.151   1.226  0.00  0.00    +0.210 HD
ENDBRANCH  22  25
ENDBRANCH  21  22
BRANCH  21  27
ATOM     27  O   UNL     1     -36.995  25.966   4.618  0.00  0.00    -0.373 OA
ATOM     28  H   UNL     1     -36.283  26.227   5.224  0.00  0.00    +0.211 HD
ENDBRANCH  21  27
BRANCH  21  29
ATOM     29  C   UNL     1     -35.530  24.081   4.472  0.00  0.00    +0.152 C 
ATOM     30  C   UNL     1     -34.572  24.734   5.459  0.00  0.00    +0.035 C 
BRANCH  29  31
ATOM     31  O   UNL     1     -36.299  23.102   5.187  0.00  0.00    -0.351 OA
ATOM     32  C   UNL     1     -35.495  22.408   6.123  0.00  0.00    +0.174 C 
ENDBRANCH  29  31
ENDBRANCH  21  29
ENDBRANCH  20  21
ENDBRANCH  18  20
ENDBRANCH  17  18
ENDBRANCH   6  17
TORSDOF 12
ENDMDL
MODEL 4
REMARK VINA RESULT:      -5.3      4.766      8.178
REMARK  Name = 5355259
REMARK  12 active torsions:
REMARK  status: ('A' for Active; 'I' for Inactive)
REMARK    1  A    between atoms: C_3  and  O_10
REMARK    2  A    between atoms: C_6  and  C_17
REMARK    3  A    between atoms: O_10  and  C_12
REMARK    4  A    between atoms: C_12  and  C_13
REMARK    5  A    between atoms: C_17  and  O_18
REMARK    6  A    between atoms: O_18  and  C_20
REMARK    7  A    between atoms: C_20  and  C_21
REMARK    8  A    between atoms: C_21  and  C_22
REMARK    9  A    between atoms: C_21  and  O_27
REMARK   10  A    between atoms: C_21  and  C_29
REMARK   11  A    between atoms: C_22  and  O_25
REMARK   12  A    between atoms: C_29  and  O_31
REMARK                            x       y       z     vdW  Elec       q    Type
REMARK                         _______ _______ _______ _____ _____    ______ ____
ROOT
ATOM      1  N   UNL     1     -33.412  25.215   0.496  0.00  0.00    +0.396 N 
ATOM      2  C   UNL     1     -34.070  25.656   1.765  0.00  0.00    +0.006 C 
ATOM      3  C   UNL     1     -34.753  24.413   2.338  0.00  0.00    +0.152 C 
ATOM      4  C   UNL     1     -34.786  23.445   1.167  0.00  0.00    +0.019 C 
ATOM      5  C   UNL     1     -33.474  23.745   0.470  0.00  0.00    -0.073 C 
ATOM      6  C   UNL     1     -32.974  26.231   2.612  0.00  0.00    -0.023 C 
ATOM      7  C   UNL     1     -32.023  25.717   0.549  0.00  0.00    -0.050 C 
ATOM      8  C   UNL     1     -31.830  26.263   1.925  0.00  0.00    -0.056 C 
ATOM      9  H   UNL     1     -33.860  25.571  -0.350  0.00  0.00    -0.079 HD
ENDROOT
BRANCH   3  10
ATOM     10  O   UNL     1     -36.064  24.715   2.779  0.00  0.00    -0.451 OA
BRANCH  10  12
ATOM     11  O   UNL     1     -37.374  23.011   3.606  0.00  0.00    -0.245 OA
ATOM     12  C   UNL     1     -36.569  23.917   3.769  0.00  0.00    +0.337 C 
BRANCH  12  13
ATOM     13  C   UNL     1     -35.994  24.316   5.090  0.00  0.00    +0.049 C 
ATOM     14  C   UNL     1     -36.134  25.745   5.524  0.00  0.00    +0.037 C 
ATOM     15  C   UNL     1     -35.362  23.344   5.773  0.00  0.00    -0.024 C 
ATOM     16  C   UNL     1     -35.175  21.919   5.357  0.00  0.00    +0.031 C 
ENDBRANCH  12  13
ENDBRANCH  10  12
ENDBRANCH   3  10
BRANCH   6  17
ATOM     17  C   UNL     1     -33.209  26.725   3.993  0.00  0.00    +0.229 C 
BRANCH  17  18
ATOM     18  O   UNL     1     -31.992  27.229   4.552  0.00  0.00    -0.442 OA
BRANCH  18  20
ATOM     19  O   UNL     1     -32.829  27.502   6.673  0.00  0.00    -0.247 OA
ATOM     20  C   UNL     1     -32.110  27.868   5.751  0.00  0.00    +0.346 C 
BRANCH  20  21
ATOM     21  C   UNL     1     -31.223  29.122   5.795  0.00  0.00    +0.225 C 
BRANCH  21  22
ATOM     22  C   UNL     1     -31.570  30.127   4.647  0.00  0.00    +0.123 C 
ATOM     23  C   UNL     1     -31.232  31.577   5.035  0.00  0.00    +0.032 C 
ATOM     24  C   UNL     1     -30.822  29.794   3.342  0.00  0.00    +0.032 C 
BRANCH  22  25
ATOM     25  O   UNL     1     -32.969  30.079   4.357  0.00  0.00    -0.384 OA
ATOM     26  H   UNL     1     -33.099  29.791   3.440  0.00  0.00    +0.210 HD
ENDBRANCH  22  25
ENDBRANCH  21  22
BRANCH  21  27
ATOM     27  O   UNL     1     -31.612  29.765   7.027  0.00  0.00    -0.373 OA
ATOM     28  H   UNL     1     -32.295  29.235   7.468  0.00  0.00    +0.211 HD
ENDBRANCH  21  27
BRANCH  21  29
ATOM     29  C   UNL     1     -29.719  28.762   5.963  0.00  0.00    +0.152 C 
ATOM     30  C   UNL     1     -28.866  29.660   6.849  0.00  0.00    +0.035 C 
BRANCH  29  31
ATOM     31  O   UNL     1     -29.602  27.419   6.455  0.00  0.00    -0.351 OA
ATOM     32  C   UNL     1     -28.288  27.157   6.910  0.00  0.00    +0.174 C 
ENDBRANCH  29  31
ENDBRANCH  21  29
ENDBRANCH  20  21
ENDBRANCH  18  20
ENDBRANCH  17  18
ENDBRANCH   6  17
TORSDOF 12
ENDMDL
MODEL 5
REMARK VINA RESULT:      -5.2      3.633      6.182
REMARK  Name = 5355259
REMARK  12 active torsions:
REMARK  status: ('A' for Active; 'I' for Inactive)
REMARK    1  A    between atoms: C_3  and  O_10
REMARK    2  A    between atoms: C_6  and  C_17
REMARK    3  A    between atoms: O_10  and  C_12
REMARK    4  A    between atoms: C_12  and  C_13
REMARK    5  A    between atoms: C_17  and  O_18
REMARK    6  A    between atoms: O_18  and  C_20
REMARK    7  A    between atoms: C_20  and  C_21
REMARK    8  A    between atoms: C_21  and  C_22
REMARK    9  A    between atoms: C_21  and  O_27
REMARK   10  A    between atoms: C_21  and  C_29
REMARK   11  A    between atoms: C_22  and  O_25
REMARK   12  A    between atoms: C_29  and  O_31
REMARK                            x       y       z     vdW  Elec       q    Type
REMARK                         _______ _______ _______ _____ _____    ______ ____
ROOT
ATOM      1  N   UNL     1     -31.071  25.507   0.620  0.00  0.00    +0.396 N 
ATOM      2  C   UNL     1     -32.263  25.704   1.502  0.00  0.00    +0.006 C 
ATOM      3  C   UNL     1     -31.951  26.929   2.363  0.00  0.00    +0.152 C 
ATOM      4  C   UNL     1     -30.451  27.110   2.206  0.00  0.00    +0.019 C 
ATOM      5  C   UNL     1     -30.231  26.707   0.762  0.00  0.00    -0.073 C 
ATOM      6  C   UNL     1     -33.433  25.853   0.577  0.00  0.00    -0.023 C 
ATOM      7  C   UNL     1     -31.590  25.346  -0.755  0.00  0.00    -0.050 C 
ATOM      8  C   UNL     1     -33.050  25.651  -0.687  0.00  0.00    -0.056 C 
ATOM      9  H   UNL     1     -30.507  24.690   0.858  0.00  0.00    -0.079 HD
ENDROOT
BRANCH   3  10
ATOM     10  O   UNL     1     -32.292  26.694   3.717  0.00  0.00    -0.451 OA
BRANCH  10  12
ATOM     11  O   UNL     1     -34.052  28.167   3.921  0.00  0.00    -0.245 OA
ATOM     12  C   UNL     1     -33.010  27.679   4.339  0.00  0.00    +0.337 C 
BRANCH  12  13
ATOM     13  C   UNL     1     -32.334  28.081   5.610  0.00  0.00    +0.049 C 
ATOM     14  C   UNL     1     -32.572  27.249   6.835  0.00  0.00    +0.037 C 
ATOM     15  C   UNL     1     -31.579  29.193   5.547  0.00  0.00    -0.024 C 
ATOM     16  C   UNL     1     -31.347  30.064   4.353  0.00  0.00    +0.031 C 
ENDBRANCH  12  13
ENDBRANCH  10  12
ENDBRANCH   3  10
BRANCH   6  17
ATOM     17  C   UNL     1     -34.807  26.133   1.066  0.00  0.00    +0.229 C 
BRANCH  17  18
ATOM     18  O   UNL     1     -35.065  25.398   2.266  0.00  0.00    -0.442 OA
BRANCH  18  20
ATOM     19  O   UNL     1     -37.178  26.290   2.389  0.00  0.00    -0.247 OA
ATOM     20  C   UNL     1     -36.342  25.465   2.739  0.00  0.00    +0.346 C 
BRANCH  20  21
ATOM     21  C   UNL     1     -36.599  24.369   3.786  0.00  0.00    +0.225 C 
BRANCH  21  22
ATOM     22  C   UNL     1     -35.513  24.367   4.911  0.00  0.00    +0.123 C 
ATOM     23  C   UNL     1     -35.605  25.621   5.798  0.00  0.00    +0.032 C 
ATOM     24  C   UNL     1     -35.626  23.128   5.821  0.00  0.00    +0.032 C 
BRANCH  22  25
ATOM     25  O   UNL     1     -34.205  24.349   4.334  0.00  0.00    -0.384 OA
ATOM     26  H   UNL     1     -33.681  23.641   4.742  0.00  0.00    +0.210 HD
ENDBRANCH  22  25
ENDBRANCH  21  22
BRANCH  21  27
ATOM     27  O   UNL     1     -37.831  24.785   4.412  0.00  0.00    -0.373 OA
ATOM     28  H   UNL     1     -37.746  25.703   4.715  0.00  0.00    +0.211 HD
ENDBRANCH  21  27
BRANCH  21  29
ATOM     29  C   UNL     1     -36.906  22.996   3.122  0.00  0.00    +0.152 C 
ATOM     30  C   UNL     1     -38.137  22.894   2.231  0.00  0.00    +0.035 C 
BRANCH  29  31
ATOM     31  O   UNL     1     -35.770  22.573   2.355  0.00  0.00    -0.351 OA
ATOM     32  C   UNL     1     -35.430  21.230   2.648  0.00  0.00    +0.174 C 
ENDBRANCH  29  31
ENDBRANCH  21  29
ENDBRANCH  20  21
ENDBRANCH  18  20
ENDBRANCH  17  18
ENDBRANCH   6  17
TORSDOF 12
ENDMDL
MODEL 6
REMARK VINA RESULT:      -5.2      2.584      4.857
REMARK  Name = 5355259
REMARK  12 active torsions:
REMARK  status: ('A' for Active; 'I' for Inactive)
REMARK    1  A    between atoms: C_3  and  O_10
REMARK    2  A    between atoms: C_6  and  C_17
REMARK    3  A    between atoms: O_10  and  C_12
REMARK    4  A    between atoms: C_12  and  C_13
REMARK    5  A    between atoms: C_17  and  O_18
REMARK    6  A    between atoms: O_18  and  C_20
REMARK    7  A    between atoms: C_20  and  C_21
REMARK    8  A    between atoms: C_21  and  C_22
REMARK    9  A    between atoms: C_21  and  O_27
REMARK   10  A    between atoms: C_21  and  C_29
REMARK   11  A    between atoms: C_22  and  O_25
REMARK   12  A    between atoms: C_29  and  O_31
REMARK                            x       y       z     vdW  Elec       q    Type
REMARK                         _______ _______ _______ _____ _____    ______ ____
ROOT
ATOM      1  N   UNL     1     -39.421  20.885   0.225  0.00  0.00    +0.396 N 
ATOM      2  C   UNL     1     -38.370  20.978   1.285  0.00  0.00    +0.006 C 
ATOM      3  C   UNL     1     -37.040  20.693   0.585  0.00  0.00    +0.152 C 
ATOM      4  C   UNL     1     -37.453  20.062  -0.734  0.00  0.00    +0.019 C 
ATOM      5  C   UNL     1     -38.721  20.822  -1.067  0.00  0.00    -0.073 C 
ATOM      6  C   UNL     1     -38.503  22.352   1.871  0.00  0.00    -0.023 C 
ATOM      7  C   UNL     1     -40.253  22.100   0.354  0.00  0.00    -0.050 C 
ATOM      8  C   UNL     1     -39.561  22.975   1.345  0.00  0.00    -0.056 C 
ATOM      9  H   UNL     1     -40.021  20.063   0.305  0.00  0.00    -0.079 HD
ENDROOT
BRANCH   3  10
ATOM     10  O   UNL     1     -36.250  19.798   1.347  0.00  0.00    -0.451 OA
BRANCH  10  12
ATOM     11  O   UNL     1     -35.150  20.506   3.243  0.00  0.00    -0.245 OA
ATOM     12  C   UNL     1     -35.201  20.350   2.031  0.00  0.00    +0.337 C 
BRANCH  12  13
ATOM     13  C   UNL     1     -34.120  20.744   1.077  0.00  0.00    +0.049 C 
ATOM     14  C   UNL     1     -34.155  22.127   0.494  0.00  0.00    +0.037 C 
ATOM     15  C   UNL     1     -33.209  19.795   0.797  0.00  0.00    -0.024 C 
ATOM     16  C   UNL     1     -33.162  18.398   1.332  0.00  0.00    +0.031 C 
ENDBRANCH  12  13
ENDBRANCH  10  12
ENDBRANCH   3  10
BRANCH   6  17
ATOM     17  C   UNL     1     -37.587  22.865   2.921  0.00  0.00    +0.229 C 
BRANCH  17  18
ATOM     18  O   UNL     1     -36.637  23.770   2.351  0.00  0.00    -0.442 OA
BRANCH  18  20
ATOM     19  O   UNL     1     -37.649  25.776   2.829  0.00  0.00    -0.247 OA
ATOM     20  C   UNL     1     -36.666  25.044   2.837  0.00  0.00    +0.346 C 
BRANCH  20  21
ATOM     21  C   UNL     1     -35.293  25.451   3.394  0.00  0.00    +0.225 C 
BRANCH  21  22
ATOM     22  C   UNL     1     -35.328  25.666   4.943  0.00  0.00    +0.123 C 
ATOM     23  C   UNL     1     -35.627  24.357   5.695  0.00  0.00    +0.032 C 
ATOM     24  C   UNL     1     -34.000  26.233   5.479  0.00  0.00    +0.032 C 
BRANCH  22  25
ATOM     25  O   UNL     1     -36.356  26.598   5.288  0.00  0.00    -0.384 OA
ATOM     26  H   UNL     1     -36.696  27.017   4.482  0.00  0.00    +0.210 HD
ENDBRANCH  22  25
ENDBRANCH  21  22
BRANCH  21  27
ATOM     27  O   UNL     1     -34.477  24.283   3.166  0.00  0.00    -0.373 OA
ATOM     28  H   UNL     1     -34.223  23.893   4.018  0.00  0.00    +0.211 HD
ENDBRANCH  21  27
BRANCH  21  29
ATOM     29  C   UNL     1     -34.643  26.589   2.556  0.00  0.00    +0.152 C 
ATOM     30  C   UNL     1     -34.519  26.386   1.052  0.00  0.00    +0.035 C 
BRANCH  29  31
ATOM     31  O   UNL     1     -35.359  27.813   2.778  0.00  0.00    -0.351 OA
ATOM     32  C   UNL     1     -34.472  28.916   2.845  0.00  0.00    +0.174 C 
ENDBRANCH  29  31
ENDBRANCH  21  29
ENDBRANCH  20  21
ENDBRANCH  18  20
ENDBRANCH  17  18
ENDBRANCH   6  17
TORSDOF 12
ENDMDL
MODEL 7
REMARK VINA RESULT:      -5.2      2.268      4.543
REMARK  Name = 5355259
REMARK  12 active torsions:
REMARK  status: ('A' for Active; 'I' for Inactive)
REMARK    1  A    between atoms: C_3  and  O_10
REMARK    2  A    between atoms: C_6  and  C_17
REMARK    3  A    between atoms: O_10  and  C_12
REMARK    4  A    between atoms: C_12  and  C_13
REMARK    5  A    between atoms: C_17  and  O_18
REMARK    6  A    between atoms: O_18  and  C_20
REMARK    7  A    between atoms: C_20  and  C_21
REMARK    8  A    between atoms: C_21  and  C_22
REMARK    9  A    between atoms: C_21  and  O_27
REMARK   10  A    between atoms: C_21  and  C_29
REMARK   11  A    between atoms: C_22  and  O_25
REMARK   12  A    between atoms: C_29  and  O_31
REMARK                            x       y       z     vdW  Elec       q    Type
REMARK                         _______ _______ _______ _____ _____    ______ ____
ROOT
ATOM      1  N   UNL     1     -33.494  27.144   3.488  0.00  0.00    +0.396 N 
ATOM      2  C   UNL     1     -34.441  26.206   2.809  0.00  0.00    +0.006 C 
ATOM      3  C   UNL     1     -34.936  25.249   3.894  0.00  0.00    +0.152 C 
ATOM      4  C   UNL     1     -33.943  25.441   5.027  0.00  0.00    +0.019 C 
ATOM      5  C   UNL     1     -33.639  26.922   4.936  0.00  0.00    -0.073 C 
ATOM      6  C   UNL     1     -35.497  27.072   2.190  0.00  0.00    -0.023 C 
ATOM      7  C   UNL     1     -33.897  28.508   3.087  0.00  0.00    -0.050 C 
ATOM      8  C   UNL     1     -35.186  28.361   2.349  0.00  0.00    -0.056 C 
ATOM      9  H   UNL     1     -32.516  27.001   3.238  0.00  0.00    -0.079 HD
ENDROOT
BRANCH   3  10
ATOM     10  O   UNL     1     -34.921  23.910   3.432  0.00  0.00    -0.451 OA
BRANCH  10  12
ATOM     11  O   UNL     1     -37.122  23.518   3.987  0.00  0.00    -0.245 OA
ATOM     12  C   UNL     1     -35.976  23.127   3.814  0.00  0.00    +0.337 C 
BRANCH  12  13
ATOM     13  C   UNL     1     -35.524  21.714   3.995  0.00  0.00    +0.049 C 
ATOM     14  C   UNL     1     -35.475  20.822   2.789  0.00  0.00    +0.037 C 
ATOM     15  C   UNL     1     -35.223  21.350   5.255  0.00  0.00    -0.024 C 
ATOM     16  C   UNL     1     -35.292  22.201   6.484  0.00  0.00    +0.031 C 
ENDBRANCH  12  13
ENDBRANCH  10  12
ENDBRANCH   3  10
BRANCH   6  17
ATOM     17  C   UNL     1     -36.669  26.512   1.471  0.00  0.00    +0.229 C 
BRANCH  17  18
ATOM     18  O   UNL     1     -37.863  26.714   2.234  0.00  0.00    -0.442 OA
BRANCH  18  20
ATOM     19  O   UNL     1     -39.224  27.473   0.546  0.00  0.00    -0.247 OA
ATOM     20  C   UNL     1     -39.023  26.755   1.520  0.00  0.00    +0.346 C 
BRANCH  20  21
ATOM     21  C   UNL     1     -40.062  25.783   2.102  0.00  0.00    +0.225 C 
BRANCH  21  22
ATOM     22  C   UNL     1     -40.183  24.476   1.252  0.00  0.00    +0.123 C 
ATOM     23  C   UNL     1     -39.930  23.217   2.099  0.00  0.00    +0.032 C 
ATOM     24  C   UNL     1     -41.571  24.341   0.595  0.00  0.00    +0.032 C 
BRANCH  22  25
ATOM     25  O   UNL     1     -39.217  24.482   0.199  0.00  0.00    -0.384 OA
ATOM     26  H   UNL     1     -38.502  23.861   0.412  0.00  0.00    +0.210 HD
ENDBRANCH  22  25
ENDBRANCH  21  22
BRANCH  21  27
ATOM     27  O   UNL     1     -39.485  25.392   3.366  0.00  0.00    -0.373 OA
ATOM     28  H   UNL     1     -40.187  25.083   3.961  0.00  0.00    +0.211 HD
ENDBRANCH  21  27
BRANCH  21  29
ATOM     29  C   UNL     1     -41.395  26.503   2.452  0.00  0.00    +0.152 C 
ATOM     30  C   UNL     1     -41.725  26.719   3.924  0.00  0.00    +0.035 C 
BRANCH  29  31
ATOM     31  O   UNL     1     -41.433  27.781   1.801  0.00  0.00    -0.351 OA
ATOM     32  C   UNL     1     -42.670  27.979   1.140  0.00  0.00    +0.174 C 
ENDBRANCH  29  31
ENDBRANCH  21  29
ENDBRANCH  20  21
ENDBRANCH  18  20
ENDBRANCH  17  18
ENDBRANCH   6  17
TORSDOF 12
ENDMDL
MODEL 8
REMARK VINA RESULT:      -5.2      2.776      5.402
REMARK  Name = 5355259
REMARK  12 active torsions:
REMARK  status: ('A' for Active; 'I' for Inactive)
REMARK    1  A    between atoms: C_3  and  O_10
REMARK    2  A    between atoms: C_6  and  C_17
REMARK    3  A    between atoms: O_10  and  C_12
REMARK    4  A    between atoms: C_12  and  C_13
REMARK    5  A    between atoms: C_17  and  O_18
REMARK    6  A    between atoms: O_18  and  C_20
REMARK    7  A    between atoms: C_20  and  C_21
REMARK    8  A    between atoms: C_21  and  C_22
REMARK    9  A    between atoms: C_21  and  O_27
REMARK   10  A    between atoms: C_21  and  C_29
REMARK   11  A    between atoms: C_22  and  O_25
REMARK   12  A    between atoms: C_29  and  O_31
REMARK                            x       y       z     vdW  Elec       q    Type
REMARK                         _______ _______ _______ _____ _____    ______ ____
ROOT
ATOM      1  N   UNL     1     -35.933  26.745   0.095  0.00  0.00    +0.396 N 
ATOM      2  C   UNL     1     -36.311  25.461   0.761  0.00  0.00    +0.006 C 
ATOM      3  C   UNL     1     -36.386  25.769   2.258  0.00  0.00    +0.152 C 
ATOM      4  C   UNL     1     -35.657  27.096   2.391  0.00  0.00    +0.019 C 
ATOM      5  C   UNL     1     -36.050  27.804   1.110  0.00  0.00    -0.073 C 
ATOM      6  C   UNL     1     -37.604  25.040   0.130  0.00  0.00    -0.023 C 
ATOM      7  C   UNL     1     -36.883  26.932  -1.022  0.00  0.00    -0.050 C 
ATOM      8  C   UNL     1     -37.919  25.868  -0.870  0.00  0.00    -0.056 C 
ATOM      9  H   UNL     1     -34.982  26.758  -0.275  0.00  0.00    -0.079 HD
ENDROOT
BRANCH   3  10
ATOM     10  O   UNL     1     -35.740  24.761   3.014  0.00  0.00    -0.451 OA
BRANCH  10  12
ATOM     11  O   UNL     1     -37.437  24.423   4.533  0.00  0.00    -0.245 OA
ATOM     12  C   UNL     1     -36.249  24.522   4.261  0.00  0.00    +0.337 C 
BRANCH  12  13
ATOM     13  C   UNL     1     -35.137  24.400   5.252  0.00  0.00    +0.049 C 
ATOM     14  C   UNL     1     -34.476  25.657   5.737  0.00  0.00    +0.037 C 
ATOM     15  C   UNL     1     -34.800  23.147   5.607  0.00  0.00    -0.024 C 
ATOM     16  C   UNL     1     -35.412  21.872   5.119  0.00  0.00    +0.031 C 
ENDBRANCH  12  13
ENDBRANCH  10  12
ENDBRANCH   3  10
BRANCH   6  17
ATOM     17  C   UNL     1     -38.350  23.833   0.566  0.00  0.00    +0.229 C 
BRANCH  17  18
ATOM     18  O   UNL     1     -37.524  22.670   0.450  0.00  0.00    -0.442 OA
BRANCH  18  20
ATOM     19  O   UNL     1     -38.179  21.997   2.546  0.00  0.00    -0.247 OA
ATOM     20  C   UNL     1     -37.569  21.803   1.500  0.00  0.00    +0.346 C 
BRANCH  20  21
ATOM     21  C   UNL     1     -36.742  20.541   1.207  0.00  0.00    +0.225 C 
BRANCH  21  22
ATOM     22  C   UNL     1     -35.213  20.855   1.094  0.00  0.00    +0.123 C 
ATOM     23  C   UNL     1     -34.359  19.814   1.840  0.00  0.00    +0.032 C 
ATOM     24  C   UNL     1     -34.740  20.901  -0.372  0.00  0.00    +0.032 C 
BRANCH  22  25
ATOM     25  O   UNL     1     -34.929  22.131   1.671  0.00  0.00    -0.384 OA
ATOM     26  H   UNL     1     -35.224  22.832   1.068  0.00  0.00    +0.210 HD
ENDBRANCH  22  25
ENDBRANCH  21  22
BRANCH  21  27
ATOM     27  O   UNL     1     -36.905  19.747   2.402  0.00  0.00    -0.373 OA
ATOM     28  H   UNL     1     -37.476  18.986   2.209  0.00  0.00    +0.211 HD
ENDBRANCH  21  27
BRANCH  21  29
ATOM     29  C   UNL     1     -37.359  19.699   0.054  0.00  0.00    +0.152 C 
ATOM     30  C   UNL     1     -37.035  18.212   0.004  0.00  0.00    +0.035 C 
BRANCH  29  31
ATOM     31  O   UNL     1     -38.787  19.838   0.074  0.00  0.00    -0.351 OA
ATOM     32  C   UNL     1     -39.303  19.972  -1.238  0.00  0.00    +0.174 C 
ENDBRANCH  29  31
ENDBRANCH  21  29
ENDBRANCH  20  21
ENDBRANCH  18  20
ENDBRANCH  17  18
ENDBRANCH   6  17
TORSDOF 12
ENDMDL
MODEL 9
REMARK VINA RESULT:      -5.1      2.322      4.912
REMARK  Name = 5355259
REMARK  12 active torsions:
REMARK  status: ('A' for Active; 'I' for Inactive)
REMARK    1  A    between atoms: C_3  and  O_10
REMARK    2  A    between atoms: C_6  and  C_17
REMARK    3  A    between atoms: O_10  and  C_12
REMARK    4  A    between atoms: C_12  and  C_13
REMARK    5  A    between atoms: C_17  and  O_18
REMARK    6  A    between atoms: O_18  and  C_20
REMARK    7  A    between atoms: C_20  and  C_21
REMARK    8  A    between atoms: C_21  and  C_22
REMARK    9  A    between atoms: C_21  and  O_27
REMARK   10  A    between atoms: C_21  and  C_29
REMARK   11  A    between atoms: C_22  and  O_25
REMARK   12  A    between atoms: C_29  and  O_31
REMARK                            x       y       z     vdW  Elec       q    Type
REMARK                         _______ _______ _______ _____ _____    ______ ____
ROOT
ATOM      1  N   UNL     1     -37.406  26.461   0.638  0.00  0.00    +0.396 N 
ATOM      2  C   UNL     1     -37.213  25.264   1.514  0.00  0.00    +0.006 C 
ATOM      3  C   UNL     1     -36.229  25.695   2.603  0.00  0.00    +0.152 C 
ATOM      4  C   UNL     1     -35.615  26.971   2.053  0.00  0.00    +0.019 C 
ATOM      5  C   UNL     1     -36.788  27.602   1.331  0.00  0.00    -0.073 C 
ATOM      6  C   UNL     1     -38.581  24.891   2.000  0.00  0.00    -0.023 C 
ATOM      7  C   UNL     1     -38.866  26.628   0.474  0.00  0.00    -0.050 C 
ATOM      8  C   UNL     1     -39.503  25.658   1.412  0.00  0.00    -0.056 C 
ATOM      9  H   UNL     1     -36.978  26.376  -0.285  0.00  0.00    -0.079 HD
ENDROOT
BRANCH   3  10
ATOM     10  O   UNL     1     -35.237  24.704   2.807  0.00  0.00    -0.451 OA
BRANCH  10  12
ATOM     11  O   UNL     1     -33.310  24.953   4.044  0.00  0.00    -0.245 OA
ATOM     12  C   UNL     1     -34.521  24.797   3.969  0.00  0.00    +0.337 C 
BRANCH  12  13
ATOM     13  C   UNL     1     -35.436  24.674   5.144  0.00  0.00    +0.049 C 
ATOM     14  C   UNL     1     -35.922  25.933   5.801  0.00  0.00    +0.037 C 
ATOM     15  C   UNL     1     -35.725  23.420   5.536  0.00  0.00    -0.024 C 
ATOM     16  C   UNL     1     -35.233  22.145   4.927  0.00  0.00    +0.031 C 
ENDBRANCH  12  13
ENDBRANCH  10  12
ENDBRANCH   3  10
BRANCH   6  17
ATOM     17  C   UNL     1     -38.813  23.779   2.957  0.00  0.00    +0.229 C 
BRANCH  17  18
ATOM     18  O   UNL     1     -38.103  22.609   2.539  0.00  0.00    -0.442 OA
BRANCH  18  20
ATOM     19  O   UNL     1     -39.999  21.367   2.173  0.00  0.00    -0.247 OA
ATOM     20  C   UNL     1     -38.843  21.664   1.894  0.00  0.00    +0.346 C 
BRANCH  20  21
ATOM     21  C   UNL     1     -38.033  21.006   0.766  0.00  0.00    +0.225 C 
BRANCH  21  22
ATOM     22  C   UNL     1     -36.746  20.297   1.304  0.00  0.00    +0.123 C 
ATOM     23  C   UNL     1     -36.409  19.033   0.495  0.00  0.00    +0.032 C 
ATOM     24  C   UNL     1     -35.518  21.227   1.273  0.00  0.00    +0.032 C 
BRANCH  22  25
ATOM     25  O   UNL     1     -36.938  19.895   2.662  0.00  0.00    -0.384 OA
ATOM     26  H   UNL     1     -36.420  20.471   3.246  0.00  0.00    +0.210 HD
ENDBRANCH  22  25
ENDBRANCH  21  22
BRANCH  21  27
ATOM     27  O   UNL     1     -38.905  19.958   0.293  0.00  0.00    -0.373 OA
ATOM     28  H   UNL     1     -39.487  19.671   1.014  0.00  0.00    +0.211 HD
ENDBRANCH  21  27
BRANCH  21  29
ATOM     29  C   UNL     1     -37.835  21.967  -0.441  0.00  0.00    +0.152 C 
ATOM     30  C   UNL     1     -37.499  21.353  -1.794  0.00  0.00    +0.035 C 
BRANCH  29  31
ATOM     31  O   UNL     1     -39.009  22.776  -0.604  0.00  0.00    -0.351 OA
ATOM     32  C   UNL     1     -39.444  22.776  -1.952  0.00  0.00    +0.174 C 
ENDBRANCH  29  31
ENDBRANCH  21  29
ENDBRANCH  20  21
ENDBRANCH  18  20
ENDBRANCH  17  18
ENDBRANCH   6  17
TORSDOF 12
ENDMDL
