MODEL 1
REMARK VINA RESULT:      -5.9      0.000      0.000
REMARK  Name = 21121842
REMARK  6 active torsions:
REMARK  status: ('A' for Active; 'I' for Inactive)
REMARK    1  A    between atoms: C_2  and  C_18
REMARK    2  A    between atoms: C_3  and  O_16
REMARK    3  A    between atoms: C_4  and  N_7
REMARK    4  A    between atoms: C_5  and  C_21
REMARK    5  A    between atoms: C_18  and  O_19
REMARK    6  A    between atoms: C_21  and  O_22
REMARK                            x       y       z     vdW  Elec       q    Type
REMARK                         _______ _______ _______ _____ _____    ______ ____
ROOT
ATOM      1  O   UNL     1     -35.333  25.066   2.951  0.00  0.00    -0.334 OA
ATOM      2  C   UNL     1     -36.240  24.354   5.019  0.00  0.00    +0.106 C 
ATOM      3  C   UNL     1     -35.613  25.727   5.232  0.00  0.00    +0.147 C 
ATOM      4  C   UNL     1     -36.444  24.353   3.504  0.00  0.00    +0.211 C 
ATOM      5  C   UNL     1     -34.888  26.034   3.919  0.00  0.00    +0.173 C 
ENDROOT
BRANCH   4   7
ATOM      6  O   UNL     1     -38.836  23.008   2.880  0.00  0.00    -0.193 OA
ATOM      7  N   UNL     1     -36.529  23.054   2.907  0.00  0.00    -0.180 N 
ATOM      8  N   UNL     1     -37.779  21.183   2.042  0.00  0.00    -0.306 NA
ATOM      9  N   UNL     1     -36.690  19.314   1.187  0.00  0.00    -0.332 N 
ATOM     10  C   UNL     1     -35.354  22.385   2.604  0.00  0.00    +0.083 C 
ATOM     11  C   UNL     1     -37.773  22.440   2.621  0.00  0.00    +0.275 C 
ATOM     12  C   UNL     1     -35.338  21.176   2.049  0.00  0.00    +0.065 C 
ATOM     13  C   UNL     1     -36.662  20.564   1.761  0.00  0.00    +0.193 C 
ATOM     14  H   UNL     1     -37.552  18.884   0.985  0.00  0.00    +0.145 HD
ATOM     15  H   UNL     1     -35.847  18.850   0.977  0.00  0.00    +0.145 HD
ENDBRANCH   4   7
BRANCH   3  16
ATOM     16  O   UNL     1     -36.648  26.692   5.432  0.00  0.00    -0.382 OA
ATOM     17  H   UNL     1     -36.428  27.507   4.954  0.00  0.00    +0.210 HD
ENDBRANCH   3  16
BRANCH   2  18
ATOM     18  C   UNL     1     -35.317  23.240   5.516  0.00  0.00    +0.144 C 
BRANCH  18  19
ATOM     19  O   UNL     1     -36.108  22.225   6.111  0.00  0.00    -0.382 OA
ATOM     20  H   UNL     1     -36.263  22.439   7.044  0.00  0.00    +0.210 HD
ENDBRANCH  18  19
ENDBRANCH   2  18
BRANCH   5  21
ATOM     21  C   UNL     1     -33.374  25.942   4.025  0.00  0.00    +0.169 C 
BRANCH  21  22
ATOM     22  O   UNL     1     -32.970  26.468   5.278  0.00  0.00    -0.379 OA
ATOM     23  H   UNL     1     -32.741  27.405   5.177  0.00  0.00    +0.211 HD
ENDBRANCH  21  22
ENDBRANCH   5  21
TORSDOF 6
ENDMDL
MODEL 2
REMARK VINA RESULT:      -5.6      2.853      5.654
REMARK  Name = 21121842
REMARK  6 active torsions:
REMARK  status: ('A' for Active; 'I' for Inactive)
REMARK    1  A    between atoms: C_2  and  C_18
REMARK    2  A    between atoms: C_3  and  O_16
REMARK    3  A    between atoms: C_4  and  N_7
REMARK    4  A    between atoms: C_5  and  C_21
REMARK    5  A    between atoms: C_18  and  O_19
REMARK    6  A    between atoms: C_21  and  O_22
REMARK                            x       y       z     vdW  Elec       q    Type
REMARK                         _______ _______ _______ _____ _____    ______ ____
ROOT
ATOM      1  O   UNL     1     -34.495  23.554   3.559  0.00  0.00    -0.334 OA
ATOM      2  C   UNL     1     -35.917  24.506   5.196  0.00  0.00    +0.106 C 
ATOM      3  C   UNL     1     -36.355  23.063   4.978  0.00  0.00    +0.147 C 
ATOM      4  C   UNL     1     -34.484  24.464   4.665  0.00  0.00    +0.211 C 
ATOM      5  C   UNL     1     -35.527  22.577   3.786  0.00  0.00    +0.173 C 
ENDROOT
BRANCH   4   7
ATOM      6  O   UNL     1     -33.711  26.552   6.386  0.00  0.00    -0.193 OA
ATOM      7  N   UNL     1     -33.958  25.728   4.245  0.00  0.00    -0.180 N 
ATOM      8  N   UNL     1     -33.087  27.930   4.695  0.00  0.00    -0.306 NA
ATOM      9  N   UNL     1     -32.451  29.339   2.957  0.00  0.00    -0.332 N 
ATOM     10  C   UNL     1     -33.809  25.967   2.888  0.00  0.00    +0.083 C 
ATOM     11  C   UNL     1     -33.590  26.732   5.173  0.00  0.00    +0.275 C 
ATOM     12  C   UNL     1     -33.329  27.112   2.408  0.00  0.00    +0.065 C 
ATOM     13  C   UNL     1     -32.952  28.141   3.411  0.00  0.00    +0.193 C 
ATOM     14  H   UNL     1     -32.192  30.040   3.598  0.00  0.00    +0.145 HD
ATOM     15  H   UNL     1     -32.350  29.495   1.990  0.00  0.00    +0.145 HD
ENDBRANCH   4   7
BRANCH   3  16
ATOM     16  O   UNL     1     -36.016  22.288   6.131  0.00  0.00    -0.382 OA
ATOM     17  H   UNL     1     -36.772  22.264   6.738  0.00  0.00    +0.210 HD
ENDBRANCH   3  16
BRANCH   2  18
ATOM     18  C   UNL     1     -36.823  25.481   4.444  0.00  0.00    +0.144 C 
BRANCH  18  19
ATOM     19  O   UNL     1     -38.103  24.889   4.292  0.00  0.00    -0.382 OA
ATOM     20  H   UNL     1     -38.041  24.137   3.682  0.00  0.00    +0.210 HD
ENDBRANCH  18  19
ENDBRANCH   2  18
BRANCH   5  21
ATOM     21  C   UNL     1     -36.335  22.431   2.505  0.00  0.00    +0.169 C 
BRANCH  21  22
ATOM     22  O   UNL     1     -37.695  22.220   2.844  0.00  0.00    -0.379 OA
ATOM     23  H   UNL     1     -38.016  21.415   2.407  0.00  0.00    +0.211 HD
ENDBRANCH  21  22
ENDBRANCH   5  21
TORSDOF 6
ENDMDL
MODEL 3
REMARK VINA RESULT:      -5.3      2.436      5.168
REMARK  Name = 21121842
REMARK  6 active torsions:
REMARK  status: ('A' for Active; 'I' for Inactive)
REMARK    1  A    between atoms: C_2  and  C_18
REMARK    2  A    between atoms: C_3  and  O_16
REMARK    3  A    between atoms: C_4  and  N_7
REMARK    4  A    between atoms: C_5  and  C_21
REMARK    5  A    between atoms: C_18  and  O_19
REMARK    6  A    between atoms: C_21  and  O_22
REMARK                            x       y       z     vdW  Elec       q    Type
REMARK                         _______ _______ _______ _____ _____    ______ ____
ROOT
ATOM      1  O   UNL     1     -35.391  22.694   1.823  0.00  0.00    -0.334 OA
ATOM      2  C   UNL     1     -37.416  22.868   3.037  0.00  0.00    +0.106 C 
ATOM      3  C   UNL     1     -37.675  21.987   1.821  0.00  0.00    +0.147 C 
ATOM      4  C   UNL     1     -35.896  22.765   3.161  0.00  0.00    +0.211 C 
ATOM      5  C   UNL     1     -36.391  22.075   0.993  0.00  0.00    +0.173 C 
ENDROOT
BRANCH   4   7
ATOM      6  O   UNL     1     -35.938  23.143   5.949  0.00  0.00    -0.193 OA
ATOM      7  N   UNL     1     -35.271  23.850   3.856  0.00  0.00    -0.180 N 
ATOM      8  N   UNL     1     -34.706  25.048   5.870  0.00  0.00    -0.306 NA
ATOM      9  N   UNL     1     -33.445  27.000   5.782  0.00  0.00    -0.332 N 
ATOM     10  C   UNL     1     -34.586  24.803   3.119  0.00  0.00    +0.083 C 
ATOM     11  C   UNL     1     -35.335  23.973   5.265  0.00  0.00    +0.275 C 
ATOM     12  C   UNL     1     -33.976  25.843   3.681  0.00  0.00    +0.065 C 
ATOM     13  C   UNL     1     -34.063  25.939   5.161  0.00  0.00    +0.193 C 
ATOM     14  H   UNL     1     -33.485  27.090   6.761  0.00  0.00    +0.145 HD
ATOM     15  H   UNL     1     -32.961  27.670   5.246  0.00  0.00    +0.145 HD
ENDBRANCH   4   7
BRANCH   3  16
ATOM     16  O   UNL     1     -37.864  20.636   2.250  0.00  0.00    -0.382 OA
ATOM     17  H   UNL     1     -37.990  20.065   1.475  0.00  0.00    +0.210 HD
ENDBRANCH   3  16
BRANCH   2  18
ATOM     18  C   UNL     1     -37.919  24.294   2.805  0.00  0.00    +0.144 C 
BRANCH  18  19
ATOM     19  O   UNL     1     -38.559  24.750   3.986  0.00  0.00    -0.382 OA
ATOM     20  H   UNL     1     -39.495  24.499   3.964  0.00  0.00    +0.210 HD
ENDBRANCH  18  19
ENDBRANCH   2  18
BRANCH   5  21
ATOM     21  C   UNL     1     -36.541  22.906  -0.273  0.00  0.00    +0.169 C 
BRANCH  21  22
ATOM     22  O   UNL     1     -35.803  24.107  -0.122  0.00  0.00    -0.379 OA
ATOM     23  H   UNL     1     -34.897  23.897   0.156  0.00  0.00    +0.211 HD
ENDBRANCH  21  22
ENDBRANCH   5  21
TORSDOF 6
ENDMDL
MODEL 4
REMARK VINA RESULT:      -5.3      1.736      3.129
REMARK  Name = 21121842
REMARK  6 active torsions:
REMARK  status: ('A' for Active; 'I' for Inactive)
REMARK    1  A    between atoms: C_2  and  C_18
REMARK    2  A    between atoms: C_3  and  O_16
REMARK    3  A    between atoms: C_4  and  N_7
REMARK    4  A    between atoms: C_5  and  C_21
REMARK    5  A    between atoms: C_18  and  O_19
REMARK    6  A    between atoms: C_21  and  O_22
REMARK                            x       y       z     vdW  Elec       q    Type
REMARK                         _______ _______ _______ _____ _____    ______ ____
ROOT
ATOM      1  O   UNL     1     -37.983  24.091   3.267  0.00  0.00    -0.334 OA
ATOM      2  C   UNL     1     -35.733  24.695   3.685  0.00  0.00    +0.106 C 
ATOM      3  C   UNL     1     -36.606  25.909   3.983  0.00  0.00    +0.147 C 
ATOM      4  C   UNL     1     -36.755  23.563   3.782  0.00  0.00    +0.211 C 
ATOM      5  C   UNL     1     -38.006  25.508   3.512  0.00  0.00    +0.173 C 
ENDROOT
BRANCH   4   7
ATOM      6  O   UNL     1     -35.096  21.514   4.765  0.00  0.00    -0.193 OA
ATOM      7  N   UNL     1     -36.406  22.371   3.069  0.00  0.00    -0.180 N 
ATOM      8  N   UNL     1     -35.269  20.253   2.886  0.00  0.00    -0.306 NA
ATOM      9  N   UNL     1     -35.448  18.967   0.956  0.00  0.00    -0.332 N 
ATOM     10  C   UNL     1     -36.912  22.189   1.792  0.00  0.00    +0.083 C 
ATOM     11  C   UNL     1     -35.563  21.382   3.632  0.00  0.00    +0.275 C 
ATOM     12  C   UNL     1     -36.640  21.113   1.058  0.00  0.00    +0.065 C 
ATOM     13  C   UNL     1     -35.754  20.095   1.682  0.00  0.00    +0.193 C 
ATOM     14  H   UNL     1     -34.864  18.275   1.344  0.00  0.00    +0.145 HD
ATOM     15  H   UNL     1     -35.815  18.850   0.050  0.00  0.00    +0.145 HD
ENDBRANCH   4   7
BRANCH   3  16
ATOM     16  O   UNL     1     -36.632  26.136   5.394  0.00  0.00    -0.382 OA
ATOM     17  H   UNL     1     -37.173  25.453   5.821  0.00  0.00    +0.210 HD
ENDBRANCH   3  16
BRANCH   2  18
ATOM     18  C   UNL     1     -35.071  24.811   2.311  0.00  0.00    +0.144 C 
BRANCH  18  19
ATOM     19  O   UNL     1     -34.854  26.182   2.024  0.00  0.00    -0.382 OA
ATOM     20  H   UNL     1     -35.703  26.613   1.839  0.00  0.00    +0.210 HD
ENDBRANCH  18  19
ENDBRANCH   2  18
BRANCH   5  21
ATOM     21  C   UNL     1     -38.439  26.207   2.232  0.00  0.00    +0.169 C 
BRANCH  21  22
ATOM     22  O   UNL     1     -37.590  27.319   2.008  0.00  0.00    -0.379 OA
ATOM     23  H   UNL     1     -37.729  27.656   1.108  0.00  0.00    +0.211 HD
ENDBRANCH  21  22
ENDBRANCH   5  21
TORSDOF 6
ENDMDL
MODEL 5
REMARK VINA RESULT:      -5.1      1.605      1.798
REMARK  Name = 21121842
REMARK  6 active torsions:
REMARK  status: ('A' for Active; 'I' for Inactive)
REMARK    1  A    between atoms: C_2  and  C_18
REMARK    2  A    between atoms: C_3  and  O_16
REMARK    3  A    between atoms: C_4  and  N_7
REMARK    4  A    between atoms: C_5  and  C_21
REMARK    5  A    between atoms: C_18  and  O_19
REMARK    6  A    between atoms: C_21  and  O_22
REMARK                            x       y       z     vdW  Elec       q    Type
REMARK                         _______ _______ _______ _____ _____    ______ ____
ROOT
ATOM      1  O   UNL     1     -36.256  25.021   1.598  0.00  0.00    -0.334 OA
ATOM      2  C   UNL     1     -37.194  24.330   3.660  0.00  0.00    +0.106 C 
ATOM      3  C   UNL     1     -37.223  25.854   3.620  0.00  0.00    +0.147 C 
ATOM      4  C   UNL     1     -37.075  23.996   2.173  0.00  0.00    +0.211 C 
ATOM      5  C   UNL     1     -36.437  26.228   2.361  0.00  0.00    +0.173 C 
ENDROOT
BRANCH   4   7
ATOM      6  O   UNL     1     -38.480  21.560   2.246  0.00  0.00    -0.193 OA
ATOM      7  N   UNL     1     -36.514  22.711   1.885  0.00  0.00    -0.180 N 
ATOM      8  N   UNL     1     -36.677  20.317   1.650  0.00  0.00    -0.306 NA
ATOM      9  N   UNL     1     -34.825  19.050   1.040  0.00  0.00    -0.332 N 
ATOM     10  C   UNL     1     -35.174  22.634   1.541  0.00  0.00    +0.083 C 
ATOM     11  C   UNL     1     -37.286  21.526   1.942  0.00  0.00    +0.275 C 
ATOM     12  C   UNL     1     -34.569  21.483   1.257  0.00  0.00    +0.065 C 
ATOM     13  C   UNL     1     -35.412  20.261   1.326  0.00  0.00    +0.193 C 
ATOM     14  H   UNL     1     -35.359  18.223   1.077  0.00  0.00    +0.145 HD
ATOM     15  H   UNL     1     -33.872  19.010   0.797  0.00  0.00    +0.145 HD
ENDBRANCH   4   7
BRANCH   3  16
ATOM     16  O   UNL     1     -38.575  26.295   3.476  0.00  0.00    -0.382 OA
ATOM     17  H   UNL     1     -38.685  26.726   2.614  0.00  0.00    +0.210 HD
ENDBRANCH   3  16
BRANCH   2  18
ATOM     18  C   UNL     1     -36.021  23.820   4.500  0.00  0.00    +0.144 C 
BRANCH  18  19
ATOM     19  O   UNL     1     -36.420  22.634   5.167  0.00  0.00    -0.382 OA
ATOM     20  H   UNL     1     -37.389  22.576   5.172  0.00  0.00    +0.210 HD
ENDBRANCH  18  19
ENDBRANCH   2  18
BRANCH   5  21
ATOM     21  C   UNL     1     -35.066  26.817   2.654  0.00  0.00    +0.169 C 
BRANCH  21  22
ATOM     22  O   UNL     1     -35.178  27.717   3.743  0.00  0.00    -0.379 OA
ATOM     23  H   UNL     1     -34.376  27.668   4.288  0.00  0.00    +0.211 HD
ENDBRANCH  21  22
ENDBRANCH   5  21
TORSDOF 6
ENDMDL
MODEL 6
REMARK VINA RESULT:      -5.0      1.863      2.591
REMARK  Name = 21121842
REMARK  6 active torsions:
REMARK  status: ('A' for Active; 'I' for Inactive)
REMARK    1  A    between atoms: C_2  and  C_18
REMARK    2  A    between atoms: C_3  and  O_16
REMARK    3  A    between atoms: C_4  and  N_7
REMARK    4  A    between atoms: C_5  and  C_21
REMARK    5  A    between atoms: C_18  and  O_19
REMARK    6  A    between atoms: C_21  and  O_22
REMARK                            x       y       z     vdW  Elec       q    Type
REMARK                         _______ _______ _______ _____ _____    ______ ____
ROOT
ATOM      1  O   UNL     1     -34.617  24.624   3.443  0.00  0.00    -0.334 OA
ATOM      2  C   UNL     1     -36.461  25.487   2.235  0.00  0.00    +0.106 C 
ATOM      3  C   UNL     1     -35.860  26.628   3.048  0.00  0.00    +0.147 C 
ATOM      4  C   UNL     1     -35.288  24.509   2.183  0.00  0.00    +0.211 C 
ATOM      5  C   UNL     1     -34.807  25.962   3.938  0.00  0.00    +0.173 C 
ENDROOT
BRANCH   4   7
ATOM      6  O   UNL     1     -36.210  23.467  -0.262  0.00  0.00    -0.193 OA
ATOM      7  N   UNL     1     -35.650  23.143   1.952  0.00  0.00    -0.180 N 
ATOM      8  N   UNL     1     -36.438  21.356   0.539  0.00  0.00    -0.306 NA
ATOM      9  N   UNL     1     -36.671  19.196   1.367  0.00  0.00    -0.332 N 
ATOM     10  C   UNL     1     -35.548  22.243   3.001  0.00  0.00    +0.083 C 
ATOM     11  C   UNL     1     -36.107  22.692   0.690  0.00  0.00    +0.275 C 
ATOM     12  C   UNL     1     -35.862  20.956   2.877  0.00  0.00    +0.065 C 
ATOM     13  C   UNL     1     -36.336  20.518   1.538  0.00  0.00    +0.193 C 
ATOM     14  H   UNL     1     -36.987  18.876   0.491  0.00  0.00    +0.145 HD
ATOM     15  H   UNL     1     -36.593  18.566   2.121  0.00  0.00    +0.145 HD
ENDBRANCH   4   7
BRANCH   3  16
ATOM     16  O   UNL     1     -35.213  27.547   2.165  0.00  0.00    -0.382 OA
ATOM     17  H   UNL     1     -35.422  28.455   2.434  0.00  0.00    +0.210 HD
ENDBRANCH   3  16
BRANCH   2  18
ATOM     18  C   UNL     1     -37.707  24.918   2.916  0.00  0.00    +0.144 C 
BRANCH  18  19
ATOM     19  O   UNL     1     -38.367  25.964   3.608  0.00  0.00    -0.382 OA
ATOM     20  H   UNL     1     -39.319  25.778   3.645  0.00  0.00    +0.210 HD
ENDBRANCH  18  19
ENDBRANCH   2  18
BRANCH   5  21
ATOM     21  C   UNL     1     -35.215  25.875   5.401  0.00  0.00    +0.169 C 
BRANCH  21  22
ATOM     22  O   UNL     1     -36.408  26.619   5.588  0.00  0.00    -0.379 OA
ATOM     23  H   UNL     1     -37.156  26.132   5.208  0.00  0.00    +0.211 HD
ENDBRANCH  21  22
ENDBRANCH   5  21
TORSDOF 6
ENDMDL
MODEL 7
REMARK VINA RESULT:      -4.9      2.839      5.535
REMARK  Name = 21121842
REMARK  6 active torsions:
REMARK  status: ('A' for Active; 'I' for Inactive)
REMARK    1  A    between atoms: C_2  and  C_18
REMARK    2  A    between atoms: C_3  and  O_16
REMARK    3  A    between atoms: C_4  and  N_7
REMARK    4  A    between atoms: C_5  and  C_21
REMARK    5  A    between atoms: C_18  and  O_19
REMARK    6  A    between atoms: C_21  and  O_22
REMARK                            x       y       z     vdW  Elec       q    Type
REMARK                         _______ _______ _______ _____ _____    ______ ____
ROOT
ATOM      1  O   UNL     1     -35.945  20.789   2.789  0.00  0.00    -0.334 OA
ATOM      2  C   UNL     1     -37.017  21.813   0.943  0.00  0.00    +0.106 C 
ATOM      3  C   UNL     1     -36.590  20.413   0.518  0.00  0.00    +0.147 C 
ATOM      4  C   UNL     1     -37.025  21.671   2.465  0.00  0.00    +0.211 C 
ATOM      5  C   UNL     1     -35.746  19.890   1.683  0.00  0.00    +0.173 C 
ENDROOT
BRANCH   4   7
ATOM      6  O   UNL     1     -39.008  23.651   2.717  0.00  0.00    -0.193 OA
ATOM      7  N   UNL     1     -36.878  22.899   3.187  0.00  0.00    -0.180 N 
ATOM      8  N   UNL     1     -37.712  25.015   3.986  0.00  0.00    -0.306 NA
ATOM      9  N   UNL     1     -36.377  26.409   5.284  0.00  0.00    -0.332 N 
ATOM     10  C   UNL     1     -35.672  23.157   3.819  0.00  0.00    +0.083 C 
ATOM     11  C   UNL     1     -37.924  23.850   3.269  0.00  0.00    +0.275 C 
ATOM     12  C   UNL     1     -35.448  24.271   4.512  0.00  0.00    +0.065 C 
ATOM     13  C   UNL     1     -36.569  25.244   4.578  0.00  0.00    +0.193 C 
ATOM     14  H   UNL     1     -37.102  27.072   5.346  0.00  0.00    +0.145 HD
ATOM     15  H   UNL     1     -35.515  26.579   5.729  0.00  0.00    +0.145 HD
ENDBRANCH   4   7
BRANCH   3  16
ATOM     16  O   UNL     1     -37.750  19.590   0.373  0.00  0.00    -0.382 OA
ATOM     17  H   UNL     1     -37.662  18.804   0.936  0.00  0.00    +0.210 HD
ENDBRANCH   3  16
BRANCH   2  18
ATOM     18  C   UNL     1     -36.039  22.871   0.429  0.00  0.00    +0.144 C 
BRANCH  18  19
ATOM     19  O   UNL     1     -35.482  22.421  -0.795  0.00  0.00    -0.382 OA
ATOM     20  H   UNL     1     -34.905  23.109  -1.161  0.00  0.00    +0.210 HD
ENDBRANCH  18  19
ENDBRANCH   2  18
BRANCH   5  21
ATOM     21  C   UNL     1     -34.257  19.833   1.376  0.00  0.00    +0.169 C 
BRANCH  21  22
ATOM     22  O   UNL     1     -34.075  19.927  -0.026  0.00  0.00    -0.379 OA
ATOM     23  H   UNL     1     -34.588  19.231  -0.467  0.00  0.00    +0.211 HD
ENDBRANCH  21  22
ENDBRANCH   5  21
TORSDOF 6
ENDMDL
MODEL 8
REMARK VINA RESULT:      -4.8      3.054      4.727
REMARK  Name = 21121842
REMARK  6 active torsions:
REMARK  status: ('A' for Active; 'I' for Inactive)
REMARK    1  A    between atoms: C_2  and  C_18
REMARK    2  A    between atoms: C_3  and  O_16
REMARK    3  A    between atoms: C_4  and  N_7
REMARK    4  A    between atoms: C_5  and  C_21
REMARK    5  A    between atoms: C_18  and  O_19
REMARK    6  A    between atoms: C_21  and  O_22
REMARK                            x       y       z     vdW  Elec       q    Type
REMARK                         _______ _______ _______ _____ _____    ______ ____
ROOT
ATOM      1  O   UNL     1     -32.197  26.986   4.282  0.00  0.00    -0.334 OA
ATOM      2  C   UNL     1     -33.641  27.688   2.542  0.00  0.00    +0.106 C 
ATOM      3  C   UNL     1     -32.614  28.791   2.770  0.00  0.00    +0.147 C 
ATOM      4  C   UNL     1     -32.927  26.484   3.156  0.00  0.00    +0.211 C 
ATOM      5  C   UNL     1     -31.845  28.356   4.020  0.00  0.00    +0.173 C 
ENDROOT
BRANCH   4   7
ATOM      6  O   UNL     1     -34.155  24.624   1.440  0.00  0.00    -0.193 OA
ATOM      7  N   UNL     1     -33.788  25.419   3.574  0.00  0.00    -0.180 N 
ATOM      8  N   UNL     1     -35.192  23.512   3.125  0.00  0.00    -0.306 NA
ATOM      9  N   UNL     1     -36.253  22.378   4.856  0.00  0.00    -0.332 N 
ATOM     10  C   UNL     1     -34.053  25.272   4.926  0.00  0.00    +0.083 C 
ATOM     11  C   UNL     1     -34.370  24.519   2.649  0.00  0.00    +0.275 C 
ATOM     12  C   UNL     1     -34.840  24.312   5.404  0.00  0.00    +0.065 C 
ATOM     13  C   UNL     1     -35.433  23.385   4.404  0.00  0.00    +0.193 C 
ATOM     14  H   UNL     1     -36.659  21.749   4.217  0.00  0.00    +0.145 HD
ATOM     15  H   UNL     1     -36.433  22.285   5.820  0.00  0.00    +0.145 HD
ENDBRANCH   4   7
BRANCH   3  16
ATOM     16  O   UNL     1     -31.716  28.835   1.659  0.00  0.00    -0.382 OA
ATOM     17  H   UNL     1     -31.414  29.747   1.524  0.00  0.00    +0.210 HD
ENDBRANCH   3  16
BRANCH   2  18
ATOM     18  C   UNL     1     -34.973  28.022   3.217  0.00  0.00    +0.144 C 
BRANCH  18  19
ATOM     19  O   UNL     1     -35.121  29.432   3.260  0.00  0.00    -0.382 OA
ATOM     20  H   UNL     1     -35.396  29.756   2.388  0.00  0.00    +0.210 HD
ENDBRANCH  18  19
ENDBRANCH   2  18
BRANCH   5  21
ATOM     21  C   UNL     1     -32.179  29.178   5.256  0.00  0.00    +0.169 C 
BRANCH  21  22
ATOM     22  O   UNL     1     -32.862  30.353   4.852  0.00  0.00    -0.379 OA
ATOM     23  H   UNL     1     -33.391  30.164   4.061  0.00  0.00    +0.211 HD
ENDBRANCH  21  22
ENDBRANCH   5  21
TORSDOF 6
ENDMDL
MODEL 9
REMARK VINA RESULT:      -4.8      2.582      4.467
REMARK  Name = 21121842
REMARK  6 active torsions:
REMARK  status: ('A' for Active; 'I' for Inactive)
REMARK    1  A    between atoms: C_2  and  C_18
REMARK    2  A    between atoms: C_3  and  O_16
REMARK    3  A    between atoms: C_4  and  N_7
REMARK    4  A    between atoms: C_5  and  C_21
REMARK    5  A    between atoms: C_18  and  O_19
REMARK    6  A    between atoms: C_21  and  O_22
REMARK                            x       y       z     vdW  Elec       q    Type
REMARK                         _______ _______ _______ _____ _____    ______ ____
ROOT
ATOM      1  O   UNL     1     -36.953  25.010   1.880  0.00  0.00    -0.334 OA
ATOM      2  C   UNL     1     -38.148  23.080   1.206  0.00  0.00    +0.106 C 
ATOM      3  C   UNL     1     -38.665  24.258   0.389  0.00  0.00    +0.147 C 
ATOM      4  C   UNL     1     -36.785  23.605   1.656  0.00  0.00    +0.211 C 
ATOM      5  C   UNL     1     -37.992  25.487   1.006  0.00  0.00    +0.173 C 
ENDROOT
BRANCH   4   7
ATOM      6  O   UNL     1     -35.838  20.961   1.818  0.00  0.00    -0.193 OA
ATOM      7  N   UNL     1     -36.259  22.988   2.836  0.00  0.00    -0.180 N 
ATOM      8  N   UNL     1     -35.302  21.117   4.018  0.00  0.00    -0.306 NA
ATOM      9  N   UNL     1     -34.757  21.284   6.272  0.00  0.00    -0.332 N 
ATOM     10  C   UNL     1     -36.201  23.731   4.004  0.00  0.00    +0.083 C 
ATOM     11  C   UNL     1     -35.800  21.649   2.840  0.00  0.00    +0.275 C 
ATOM     12  C   UNL     1     -35.728  23.239   5.146  0.00  0.00    +0.065 C 
ATOM     13  C   UNL     1     -35.254  21.831   5.112  0.00  0.00    +0.193 C 
ATOM     14  H   UNL     1     -34.435  20.353   6.280  0.00  0.00    +0.145 HD
ATOM     15  H   UNL     1     -34.721  21.823   7.096  0.00  0.00    +0.145 HD
ENDBRANCH   4   7
BRANCH   3  16
ATOM     16  O   UNL     1     -38.232  24.118  -0.966  0.00  0.00    -0.382 OA
ATOM     17  H   UNL     1     -38.954  24.370  -1.564  0.00  0.00    +0.210 HD
ENDBRANCH   3  16
BRANCH   2  18
ATOM     18  C   UNL     1     -39.092  22.750   2.363  0.00  0.00    +0.144 C 
BRANCH  18  19
ATOM     19  O   UNL     1     -40.428  22.956   1.935  0.00  0.00    -0.382 OA
ATOM     20  H   UNL     1     -40.775  23.768   2.336  0.00  0.00    +0.210 HD
ENDBRANCH  18  19
ENDBRANCH   2  18
BRANCH   5  21
ATOM     21  C   UNL     1     -38.940  26.354   1.821  0.00  0.00    +0.169 C 
BRANCH  21  22
ATOM     22  O   UNL     1     -38.515  26.349   3.173  0.00  0.00    -0.379 OA
ATOM     23  H   UNL     1     -38.853  27.141   3.621  0.00  0.00    +0.211 HD
ENDBRANCH  21  22
ENDBRANCH   5  21
TORSDOF 6
ENDMDL
