MODEL 1
REMARK VINA RESULT:      -6.1      0.000      0.000
REMARK  Name = 191714
REMARK  11 active torsions:
REMARK  status: ('A' for Active; 'I' for Inactive)
REMARK    1  A    between atoms: CA_1  and  N_3
REMARK    2  A    between atoms: CA_1  and  C_14
REMARK    3  A    between atoms: CA_1  and  C_15
REMARK    4  A    between atoms: C_4  and  C_6
REMARK    5  A    between atoms: C_15  and  O_16
REMARK    6  A    between atoms: C_15  and  C_18
REMARK    7  A    between atoms: C_18  and  O_19
REMARK    8  A    between atoms: C_18  and  C_21
REMARK    9  A    between atoms: C_21  and  O_22
REMARK   10  A    between atoms: C_21  and  C_24
REMARK   11  A    between atoms: C_24  and  O_25
REMARK                            x       y       z     vdW  Elec       q    Type
REMARK                         _______ _______ _______ _____ _____    ______ ____
ROOT
ATOM      1  CA  UNL     1     -36.187  23.099   4.476  0.00  0.00    +0.167 C 
ENDROOT
BRANCH   1   3
ATOM      2  O   UNL     1     -36.899  21.590   2.140  0.00  0.00    -0.270 OA
ATOM      3  N   UNL     1     -35.281  22.461   3.555  0.00  0.00    -0.294 N 
ATOM      4  C   UNL     1     -35.721  21.749   2.448  0.00  0.00    +0.246 C 
ATOM      5  H   UNL     1     -34.312  22.532   3.717  0.00  0.00    +0.150 HD
BRANCH   4   6
ATOM      6  C   UNL     1     -34.662  21.128   1.610  0.00  0.00    +0.049 C 
ATOM      7  C   UNL     1     -34.047  21.861   0.616  0.00  0.00    -0.017 C 
ATOM      8  C   UNL     1     -34.329  19.812   1.865  0.00  0.00    +0.004 C 
ATOM      9  C   UNL     1     -33.056  21.255  -0.156  0.00  0.00    -0.004 C 
ATOM     10  C   UNL     1     -34.407  23.285   0.339  0.00  0.00    +0.031 C 
ATOM     11  C   UNL     1     -33.337  19.206   1.092  0.00  0.00    +0.000 C 
ATOM     12  C   UNL     1     -32.701  19.927   0.082  0.00  0.00    -0.000 C 
ENDBRANCH   4   6
ENDBRANCH   1   3
BRANCH   1  14
ATOM     13  O   UNL     1     -35.991  22.015   6.632  0.00  0.00    -0.286 OA
ATOM     14  C   UNL     1     -35.613  22.898   5.865  0.00  0.00    +0.229 C 
ENDBRANCH   1  14
BRANCH   1  15
ATOM     15  C   UNL     1     -36.419  24.585   4.170  0.00  0.00    +0.165 C 
BRANCH  15  16
ATOM     16  O   UNL     1     -37.820  24.860   4.314  0.00  0.00    -0.380 OA
ATOM     17  H   UNL     1     -37.951  25.509   5.021  0.00  0.00    +0.211 HD
ENDBRANCH  15  16
BRANCH  15  18
ATOM     18  C   UNL     1     -35.650  25.569   5.073  0.00  0.00    +0.168 C 
BRANCH  18  19
ATOM     19  O   UNL     1     -36.566  26.610   5.442  0.00  0.00    -0.379 OA
ATOM     20  H   UNL     1     -36.811  26.509   6.375  0.00  0.00    +0.211 HD
ENDBRANCH  18  19
BRANCH  18  21
ATOM     21  C   UNL     1     -34.396  26.203   4.448  0.00  0.00    +0.169 C 
BRANCH  21  22
ATOM     22  O   UNL     1     -33.781  27.097   5.378  0.00  0.00    -0.379 OA
ATOM     23  H   UNL     1     -33.865  28.008   5.055  0.00  0.00    +0.211 HD
ENDBRANCH  21  22
BRANCH  21  24
ATOM     24  C   UNL     1     -34.726  27.008   3.191  0.00  0.00    +0.169 C 
BRANCH  24  25
ATOM     25  O   UNL     1     -35.228  28.283   3.579  0.00  0.00    -0.379 OA
ATOM     26  H   UNL     1     -36.196  28.249   3.625  0.00  0.00    +0.211 HD
ENDBRANCH  24  25
ENDBRANCH  21  24
ENDBRANCH  18  21
ENDBRANCH  15  18
ENDBRANCH   1  15
TORSDOF 11
ENDMDL
MODEL 2
REMARK VINA RESULT:      -5.7      0.681      1.620
REMARK  Name = 191714
REMARK  11 active torsions:
REMARK  status: ('A' for Active; 'I' for Inactive)
REMARK    1  A    between atoms: CA_1  and  N_3
REMARK    2  A    between atoms: CA_1  and  C_14
REMARK    3  A    between atoms: CA_1  and  C_15
REMARK    4  A    between atoms: C_4  and  C_6
REMARK    5  A    between atoms: C_15  and  O_16
REMARK    6  A    between atoms: C_15  and  C_18
REMARK    7  A    between atoms: C_18  and  O_19
REMARK    8  A    between atoms: C_18  and  C_21
REMARK    9  A    between atoms: C_21  and  O_22
REMARK   10  A    between atoms: C_21  and  C_24
REMARK   11  A    between atoms: C_24  and  O_25
REMARK                            x       y       z     vdW  Elec       q    Type
REMARK                         _______ _______ _______ _____ _____    ______ ____
ROOT
ATOM      1  CA  UNL     1     -36.033  23.211   4.193  0.00  0.00    +0.167 C 
ENDROOT
BRANCH   1   3
ATOM      2  O   UNL     1     -36.576  22.412   1.491  0.00  0.00    -0.270 OA
ATOM      3  N   UNL     1     -35.062  22.858   3.189  0.00  0.00    -0.294 N 
ATOM      4  C   UNL     1     -35.422  22.482   1.903  0.00  0.00    +0.246 C 
ATOM      5  H   UNL     1     -34.105  22.883   3.425  0.00  0.00    +0.150 HD
BRANCH   4   6
ATOM      6  C   UNL     1     -34.304  22.121   0.993  0.00  0.00    +0.049 C 
ATOM      7  C   UNL     1     -33.881  20.810   0.900  0.00  0.00    -0.017 C 
ATOM      8  C   UNL     1     -33.716  23.134   0.261  0.00  0.00    +0.004 C 
ATOM      9  C   UNL     1     -32.829  20.499   0.038  0.00  0.00    -0.004 C 
ATOM     10  C   UNL     1     -34.515  19.713   1.692  0.00  0.00    +0.031 C 
ATOM     11  C   UNL     1     -32.664  22.822  -0.600  0.00  0.00    +0.000 C 
ATOM     12  C   UNL     1     -32.220  21.505  -0.711  0.00  0.00    -0.000 C 
ENDBRANCH   4   6
ENDBRANCH   1   3
BRANCH   1  14
ATOM     13  O   UNL     1     -36.048  22.062   6.324  0.00  0.00    -0.286 OA
ATOM     14  C   UNL     1     -35.455  22.789   5.530  0.00  0.00    +0.229 C 
ENDBRANCH   1  14
BRANCH   1  15
ATOM     15  C   UNL     1     -36.403  24.700   4.183  0.00  0.00    +0.165 C 
BRANCH  15  16
ATOM     16  O   UNL     1     -37.812  24.815   4.432  0.00  0.00    -0.380 OA
ATOM     17  H   UNL     1     -38.183  23.936   4.600  0.00  0.00    +0.211 HD
ENDBRANCH  15  16
BRANCH  15  18
ATOM     18  C   UNL     1     -35.669  25.567   5.224  0.00  0.00    +0.168 C 
BRANCH  18  19
ATOM     19  O   UNL     1     -36.538  26.659   5.556  0.00  0.00    -0.379 OA
ATOM     20  H   UNL     1     -36.803  27.121   4.745  0.00  0.00    +0.211 HD
ENDBRANCH  18  19
BRANCH  18  21
ATOM     21  C   UNL     1     -34.307  26.128   4.780  0.00  0.00    +0.169 C 
BRANCH  21  22
ATOM     22  O   UNL     1     -33.788  27.007   5.780  0.00  0.00    -0.379 OA
ATOM     23  H   UNL     1     -33.536  27.850   5.370  0.00  0.00    +0.211 HD
ENDBRANCH  21  22
BRANCH  21  24
ATOM     24  C   UNL     1     -34.410  26.924   3.480  0.00  0.00    +0.169 C 
BRANCH  24  25
ATOM     25  O   UNL     1     -35.138  28.122   3.730  0.00  0.00    -0.379 OA
ATOM     26  H   UNL     1     -35.424  28.139   4.656  0.00  0.00    +0.211 HD
ENDBRANCH  24  25
ENDBRANCH  21  24
ENDBRANCH  18  21
ENDBRANCH  15  18
ENDBRANCH   1  15
TORSDOF 11
ENDMDL
MODEL 3
REMARK VINA RESULT:      -5.7      3.238      7.184
REMARK  Name = 191714
REMARK  11 active torsions:
REMARK  status: ('A' for Active; 'I' for Inactive)
REMARK    1  A    between atoms: CA_1  and  N_3
REMARK    2  A    between atoms: CA_1  and  C_14
REMARK    3  A    between atoms: CA_1  and  C_15
REMARK    4  A    between atoms: C_4  and  C_6
REMARK    5  A    between atoms: C_15  and  O_16
REMARK    6  A    between atoms: C_15  and  C_18
REMARK    7  A    between atoms: C_18  and  O_19
REMARK    8  A    between atoms: C_18  and  C_21
REMARK    9  A    between atoms: C_21  and  O_22
REMARK   10  A    between atoms: C_21  and  C_24
REMARK   11  A    between atoms: C_24  and  O_25
REMARK                            x       y       z     vdW  Elec       q    Type
REMARK                         _______ _______ _______ _____ _____    ______ ____
ROOT
ATOM      1  CA  UNL     1     -34.498  26.582   4.245  0.00  0.00    +0.167 C 
ENDROOT
BRANCH   1   3
ATOM      2  O   UNL     1     -33.729  27.876   1.801  0.00  0.00    -0.270 OA
ATOM      3  N   UNL     1     -35.059  27.792   3.699  0.00  0.00    -0.294 N 
ATOM      4  C   UNL     1     -34.618  28.345   2.505  0.00  0.00    +0.246 C 
ATOM      5  H   UNL     1     -35.781  28.245   4.193  0.00  0.00    +0.150 HD
BRANCH   4   6
ATOM      6  C   UNL     1     -35.279  29.610   2.091  0.00  0.00    +0.049 C 
ATOM      7  C   UNL     1     -34.822  30.820   2.573  0.00  0.00    -0.017 C 
ATOM      8  C   UNL     1     -36.350  29.524   1.223  0.00  0.00    +0.004 C 
ATOM      9  C   UNL     1     -35.460  31.993   2.169  0.00  0.00    -0.004 C 
ATOM     10  C   UNL     1     -33.664  30.915   3.513  0.00  0.00    +0.031 C 
ATOM     11  C   UNL     1     -36.988  30.697   0.819  0.00  0.00    +0.000 C 
ATOM     12  C   UNL     1     -36.544  31.931   1.293  0.00  0.00    -0.000 C 
ENDBRANCH   4   6
ENDBRANCH   1   3
BRANCH   1  14
ATOM     13  O   UNL     1     -33.398  26.938   6.372  0.00  0.00    -0.286 OA
ATOM     14  C   UNL     1     -33.351  26.996   5.145  0.00  0.00    +0.229 C 
ENDBRANCH   1  14
BRANCH   1  15
ATOM     15  C   UNL     1     -35.524  25.723   4.997  0.00  0.00    +0.165 C 
BRANCH  15  16
ATOM     16  O   UNL     1     -36.519  26.595   5.554  0.00  0.00    -0.380 OA
ATOM     17  H   UNL     1     -36.255  26.857   6.449  0.00  0.00    +0.211 HD
ENDBRANCH  15  16
BRANCH  15  18
ATOM     18  C   UNL     1     -36.250  24.666   4.141  0.00  0.00    +0.168 C 
BRANCH  18  19
ATOM     19  O   UNL     1     -37.650  24.767   4.439  0.00  0.00    -0.379 OA
ATOM     20  H   UNL     1     -37.952  25.673   4.270  0.00  0.00    +0.211 HD
ENDBRANCH  18  19
BRANCH  18  21
ATOM     21  C   UNL     1     -35.795  23.213   4.353  0.00  0.00    +0.169 C 
BRANCH  21  22
ATOM     22  O   UNL     1     -36.862  22.314   4.044  0.00  0.00    -0.379 OA
ATOM     23  H   UNL     1     -37.266  22.568   3.200  0.00  0.00    +0.211 HD
ENDBRANCH  21  22
BRANCH  21  24
ATOM     24  C   UNL     1     -35.378  22.947   5.799  0.00  0.00    +0.169 C 
BRANCH  24  25
ATOM     25  O   UNL     1     -36.083  21.807   6.280  0.00  0.00    -0.379 OA
ATOM     26  H   UNL     1     -35.522  21.318   6.900  0.00  0.00    +0.211 HD
ENDBRANCH  24  25
ENDBRANCH  21  24
ENDBRANCH  18  21
ENDBRANCH  15  18
ENDBRANCH   1  15
TORSDOF 11
ENDMDL
MODEL 4
REMARK VINA RESULT:      -5.7      1.295      2.269
REMARK  Name = 191714
REMARK  11 active torsions:
REMARK  status: ('A' for Active; 'I' for Inactive)
REMARK    1  A    between atoms: CA_1  and  N_3
REMARK    2  A    between atoms: CA_1  and  C_14
REMARK    3  A    between atoms: CA_1  and  C_15
REMARK    4  A    between atoms: C_4  and  C_6
REMARK    5  A    between atoms: C_15  and  O_16
REMARK    6  A    between atoms: C_15  and  C_18
REMARK    7  A    between atoms: C_18  and  O_19
REMARK    8  A    between atoms: C_18  and  C_21
REMARK    9  A    between atoms: C_21  and  O_22
REMARK   10  A    between atoms: C_21  and  C_24
REMARK   11  A    between atoms: C_24  and  O_25
REMARK                            x       y       z     vdW  Elec       q    Type
REMARK                         _______ _______ _______ _____ _____    ______ ____
ROOT
ATOM      1  CA  UNL     1     -35.837  23.070   4.918  0.00  0.00    +0.167 C 
ENDROOT
BRANCH   1   3
ATOM      2  O   UNL     1     -36.805  22.647   2.248  0.00  0.00    -0.270 OA
ATOM      3  N   UNL     1     -35.040  22.851   3.738  0.00  0.00    -0.294 N 
ATOM      4  C   UNL     1     -35.601  22.654   2.484  0.00  0.00    +0.246 C 
ATOM      5  H   UNL     1     -34.058  22.839   3.825  0.00  0.00    +0.150 HD
BRANCH   4   6
ATOM      6  C   UNL     1     -34.643  22.414   1.373  0.00  0.00    +0.049 C 
ATOM      7  C   UNL     1     -34.239  21.129   1.072  0.00  0.00    -0.017 C 
ATOM      8  C   UNL     1     -34.183  23.511   0.671  0.00  0.00    +0.004 C 
ATOM      9  C   UNL     1     -33.339  20.932   0.024  0.00  0.00    -0.004 C 
ATOM     10  C   UNL     1     -34.735  19.942   1.831  0.00  0.00    +0.031 C 
ATOM     11  C   UNL     1     -33.283  23.313  -0.377  0.00  0.00    +0.000 C 
ATOM     12  C   UNL     1     -32.861  22.024  -0.699  0.00  0.00    -0.000 C 
ENDBRANCH   4   6
ENDBRANCH   1   3
BRANCH   1  14
ATOM     13  O   UNL     1     -35.049  20.912   5.680  0.00  0.00    -0.286 OA
ATOM     14  C   UNL     1     -35.373  22.066   5.954  0.00  0.00    +0.229 C 
ENDBRANCH   1  14
BRANCH   1  15
ATOM     15  C   UNL     1     -35.756  24.508   5.448  0.00  0.00    +0.165 C 
BRANCH  15  16
ATOM     16  O   UNL     1     -34.383  24.925   5.407  0.00  0.00    -0.380 OA
ATOM     17  H   UNL     1     -34.125  25.098   4.489  0.00  0.00    +0.211 HD
ENDBRANCH  15  16
BRANCH  15  18
ATOM     18  C   UNL     1     -36.586  25.544   4.665  0.00  0.00    +0.168 C 
BRANCH  18  19
ATOM     19  O   UNL     1     -37.747  24.866   4.164  0.00  0.00    -0.379 OA
ATOM     20  H   UNL     1     -37.606  24.626   3.235  0.00  0.00    +0.211 HD
ENDBRANCH  18  19
BRANCH  18  21
ATOM     21  C   UNL     1     -35.862  26.230   3.495  0.00  0.00    +0.169 C 
BRANCH  21  22
ATOM     22  O   UNL     1     -35.589  27.595   3.817  0.00  0.00    -0.379 OA
ATOM     23  H   UNL     1     -36.021  27.822   4.655  0.00  0.00    +0.211 HD
ENDBRANCH  21  22
BRANCH  21  24
ATOM     24  C   UNL     1     -36.699  26.220   2.216  0.00  0.00    +0.169 C 
BRANCH  24  25
ATOM     25  O   UNL     1     -37.846  27.041   2.411  0.00  0.00    -0.379 OA
ATOM     26  H   UNL     1     -37.881  27.717   1.716  0.00  0.00    +0.211 HD
ENDBRANCH  24  25
ENDBRANCH  21  24
ENDBRANCH  18  21
ENDBRANCH  15  18
ENDBRANCH   1  15
TORSDOF 11
ENDMDL
MODEL 5
REMARK VINA RESULT:      -5.6      1.274      1.777
REMARK  Name = 191714
REMARK  11 active torsions:
REMARK  status: ('A' for Active; 'I' for Inactive)
REMARK    1  A    between atoms: CA_1  and  N_3
REMARK    2  A    between atoms: CA_1  and  C_14
REMARK    3  A    between atoms: CA_1  and  C_15
REMARK    4  A    between atoms: C_4  and  C_6
REMARK    5  A    between atoms: C_15  and  O_16
REMARK    6  A    between atoms: C_15  and  C_18
REMARK    7  A    between atoms: C_18  and  O_19
REMARK    8  A    between atoms: C_18  and  C_21
REMARK    9  A    between atoms: C_21  and  O_22
REMARK   10  A    between atoms: C_21  and  C_24
REMARK   11  A    between atoms: C_24  and  O_25
REMARK                            x       y       z     vdW  Elec       q    Type
REMARK                         _______ _______ _______ _____ _____    ______ ____
ROOT
ATOM      1  CA  UNL     1     -35.935  23.103   5.119  0.00  0.00    +0.167 C 
ENDROOT
BRANCH   1   3
ATOM      2  O   UNL     1     -36.989  22.423   2.537  0.00  0.00    -0.270 OA
ATOM      3  N   UNL     1     -35.216  22.493   4.030  0.00  0.00    -0.294 N 
ATOM      4  C   UNL     1     -35.814  22.199   2.812  0.00  0.00    +0.246 C 
ATOM      5  H   UNL     1     -34.264  22.274   4.154  0.00  0.00    +0.150 HD
BRANCH   4   6
ATOM      6  C   UNL     1     -34.944  21.546   1.801  0.00  0.00    +0.049 C 
ATOM      7  C   UNL     1     -34.298  22.306   0.847  0.00  0.00    -0.017 C 
ATOM      8  C   UNL     1     -34.813  20.172   1.855  0.00  0.00    +0.004 C 
ATOM      9  C   UNL     1     -33.487  21.668  -0.091  0.00  0.00    -0.004 C 
ATOM     10  C   UNL     1     -34.439  23.793   0.786  0.00  0.00    +0.031 C 
ATOM     11  C   UNL     1     -34.002  19.534   0.916  0.00  0.00    +0.000 C 
ATOM     12  C   UNL     1     -33.339  20.281  -0.057  0.00  0.00    -0.000 C 
ENDBRANCH   4   6
ENDBRANCH   1   3
BRANCH   1  14
ATOM     13  O   UNL     1     -34.793  21.380   6.378  0.00  0.00    -0.286 OA
ATOM     14  C   UNL     1     -35.563  22.338   6.374  0.00  0.00    +0.229 C 
ENDBRANCH   1  14
BRANCH   1  15
ATOM     15  C   UNL     1     -35.654  24.604   5.268  0.00  0.00    +0.165 C 
BRANCH  15  16
ATOM     16  O   UNL     1     -34.348  24.871   4.736  0.00  0.00    -0.380 OA
ATOM     17  H   UNL     1     -34.193  24.310   3.962  0.00  0.00    +0.211 HD
ENDBRANCH  15  16
BRANCH  15  18
ATOM     18  C   UNL     1     -36.653  25.534   4.551  0.00  0.00    +0.168 C 
BRANCH  18  19
ATOM     19  O   UNL     1     -37.812  24.748   4.236  0.00  0.00    -0.379 OA
ATOM     20  H   UNL     1     -38.573  25.078   4.739  0.00  0.00    +0.211 HD
ENDBRANCH  18  19
BRANCH  18  21
ATOM     21  C   UNL     1     -36.136  26.201   3.266  0.00  0.00    +0.169 C 
BRANCH  21  22
ATOM     22  O   UNL     1     -35.561  27.474   3.570  0.00  0.00    -0.379 OA
ATOM     23  H   UNL     1     -36.056  28.171   3.112  0.00  0.00    +0.211 HD
ENDBRANCH  21  22
BRANCH  21  24
ATOM     24  C   UNL     1     -37.254  26.436   2.251  0.00  0.00    +0.169 C 
BRANCH  24  25
ATOM     25  O   UNL     1     -37.487  25.227   1.535  0.00  0.00    -0.379 OA
ATOM     26  H   UNL     1     -36.654  24.915   1.148  0.00  0.00    +0.211 HD
ENDBRANCH  24  25
ENDBRANCH  21  24
ENDBRANCH  18  21
ENDBRANCH  15  18
ENDBRANCH   1  15
TORSDOF 11
ENDMDL
MODEL 6
REMARK VINA RESULT:      -5.5      1.475      2.336
REMARK  Name = 191714
REMARK  11 active torsions:
REMARK  status: ('A' for Active; 'I' for Inactive)
REMARK    1  A    between atoms: CA_1  and  N_3
REMARK    2  A    between atoms: CA_1  and  C_14
REMARK    3  A    between atoms: CA_1  and  C_15
REMARK    4  A    between atoms: C_4  and  C_6
REMARK    5  A    between atoms: C_15  and  O_16
REMARK    6  A    between atoms: C_15  and  C_18
REMARK    7  A    between atoms: C_18  and  O_19
REMARK    8  A    between atoms: C_18  and  C_21
REMARK    9  A    between atoms: C_21  and  O_22
REMARK   10  A    between atoms: C_21  and  C_24
REMARK   11  A    between atoms: C_24  and  O_25
REMARK                            x       y       z     vdW  Elec       q    Type
REMARK                         _______ _______ _______ _____ _____    ______ ____
ROOT
ATOM      1  CA  UNL     1     -37.307  23.593   2.254  0.00  0.00    +0.167 C 
ENDROOT
BRANCH   1   3
ATOM      2  O   UNL     1     -36.718  22.031  -0.080  0.00  0.00    -0.270 OA
ATOM      3  N   UNL     1     -36.162  22.743   2.055  0.00  0.00    -0.294 N 
ATOM      4  C   UNL     1     -35.962  22.022   0.886  0.00  0.00    +0.246 C 
ATOM      5  H   UNL     1     -35.495  22.668   2.777  0.00  0.00    +0.150 HD
BRANCH   4   6
ATOM      6  C   UNL     1     -34.745  21.169   0.848  0.00  0.00    +0.049 C 
ATOM      7  C   UNL     1     -33.629  21.586   0.151  0.00  0.00    -0.017 C 
ATOM      8  C   UNL     1     -34.779  19.966   1.526  0.00  0.00    +0.004 C 
ATOM      9  C   UNL     1     -32.500  20.767   0.131  0.00  0.00    -0.004 C 
ATOM     10  C   UNL     1     -33.590  22.886  -0.584  0.00  0.00    +0.031 C 
ATOM     11  C   UNL     1     -33.650  19.148   1.505  0.00  0.00    +0.000 C 
ATOM     12  C   UNL     1     -32.511  19.547   0.807  0.00  0.00    -0.000 C 
ENDBRANCH   4   6
ENDBRANCH   1   3
BRANCH   1  14
ATOM     13  O   UNL     1     -39.641  22.951   2.292  0.00  0.00    -0.286 OA
ATOM     14  C   UNL     1     -38.477  22.685   2.582  0.00  0.00    +0.229 C 
ENDBRANCH   1  14
BRANCH   1  15
ATOM     15  C   UNL     1     -37.094  24.655   3.341  0.00  0.00    +0.165 C 
BRANCH  15  16
ATOM     16  O   UNL     1     -38.298  24.753   4.116  0.00  0.00    -0.380 OA
ATOM     17  H   UNL     1     -38.773  23.910   4.083  0.00  0.00    +0.211 HD
ENDBRANCH  15  16
BRANCH  15  18
ATOM     18  C   UNL     1     -35.930  24.376   4.312  0.00  0.00    +0.168 C 
BRANCH  18  19
ATOM     19  O   UNL     1     -36.321  23.269   5.137  0.00  0.00    -0.379 OA
ATOM     20  H   UNL     1     -35.947  23.379   6.025  0.00  0.00    +0.211 HD
ENDBRANCH  18  19
BRANCH  18  21
ATOM     21  C   UNL     1     -35.519  25.553   5.213  0.00  0.00    +0.169 C 
BRANCH  21  22
ATOM     22  O   UNL     1     -36.572  26.518   5.272  0.00  0.00    -0.379 OA
ATOM     23  H   UNL     1     -36.926  26.666   4.381  0.00  0.00    +0.211 HD
ENDBRANCH  21  22
BRANCH  21  24
ATOM     24  C   UNL     1     -34.273  26.268   4.692  0.00  0.00    +0.169 C 
BRANCH  24  25
ATOM     25  O   UNL     1     -33.287  26.282   5.720  0.00  0.00    -0.379 OA
ATOM     26  H   UNL     1     -33.721  26.359   6.583  0.00  0.00    +0.211 HD
ENDBRANCH  24  25
ENDBRANCH  21  24
ENDBRANCH  18  21
ENDBRANCH  15  18
ENDBRANCH   1  15
TORSDOF 11
ENDMDL
MODEL 7
REMARK VINA RESULT:      -5.5      2.675      6.988
REMARK  Name = 191714
REMARK  11 active torsions:
REMARK  status: ('A' for Active; 'I' for Inactive)
REMARK    1  A    between atoms: CA_1  and  N_3
REMARK    2  A    between atoms: CA_1  and  C_14
REMARK    3  A    between atoms: CA_1  and  C_15
REMARK    4  A    between atoms: C_4  and  C_6
REMARK    5  A    between atoms: C_15  and  O_16
REMARK    6  A    between atoms: C_15  and  C_18
REMARK    7  A    between atoms: C_18  and  O_19
REMARK    8  A    between atoms: C_18  and  C_21
REMARK    9  A    between atoms: C_21  and  O_22
REMARK   10  A    between atoms: C_21  and  C_24
REMARK   11  A    between atoms: C_24  and  O_25
REMARK                            x       y       z     vdW  Elec       q    Type
REMARK                         _______ _______ _______ _____ _____    ______ ____
ROOT
ATOM      1  CA  UNL     1     -36.112  21.572   1.153  0.00  0.00    +0.167 C 
ENDROOT
BRANCH   1   3
ATOM      2  O   UNL     1     -37.653  22.730   3.280  0.00  0.00    -0.270 OA
ATOM      3  N   UNL     1     -35.669  22.572   2.091  0.00  0.00    -0.294 N 
ATOM      4  C   UNL     1     -36.491  23.074   3.090  0.00  0.00    +0.246 C 
ATOM      5  H   UNL     1     -34.748  22.914   2.019  0.00  0.00    +0.150 HD
BRANCH   4   6
ATOM      6  C   UNL     1     -35.894  24.121   3.958  0.00  0.00    +0.049 C 
ATOM      7  C   UNL     1     -35.340  23.779   5.176  0.00  0.00    -0.017 C 
ATOM      8  C   UNL     1     -35.917  25.426   3.504  0.00  0.00    +0.004 C 
ATOM      9  C   UNL     1     -34.786  24.781   5.972  0.00  0.00    -0.004 C 
ATOM     10  C   UNL     1     -35.315  22.369   5.669  0.00  0.00    +0.031 C 
ATOM     11  C   UNL     1     -35.362  26.427   4.301  0.00  0.00    +0.000 C 
ATOM     12  C   UNL     1     -34.797  26.106   5.535  0.00  0.00    -0.000 C 
ENDBRANCH   4   6
ENDBRANCH   1   3
BRANCH   1  14
ATOM     13  O   UNL     1     -34.273  22.199  -0.290  0.00  0.00    -0.286 OA
ATOM     14  C   UNL     1     -35.459  21.896  -0.176  0.00  0.00    +0.229 C 
ENDBRANCH   1  14
BRANCH   1  15
ATOM     15  C   UNL     1     -35.800  20.138   1.602  0.00  0.00    +0.165 C 
BRANCH  15  16
ATOM     16  O   UNL     1     -36.823  19.720   2.518  0.00  0.00    -0.380 OA
ATOM     17  H   UNL     1     -37.551  19.312   2.025  0.00  0.00    +0.211 HD
ENDBRANCH  15  16
BRANCH  15  18
ATOM     18  C   UNL     1     -35.729  19.096   0.468  0.00  0.00    +0.168 C 
BRANCH  18  19
ATOM     19  O   UNL     1     -36.756  18.125   0.719  0.00  0.00    -0.379 OA
ATOM     20  H   UNL     1     -36.565  17.659   1.547  0.00  0.00    +0.211 HD
ENDBRANCH  18  19
BRANCH  18  21
ATOM     21  C   UNL     1     -34.381  18.371   0.315  0.00  0.00    +0.169 C 
BRANCH  21  22
ATOM     22  O   UNL     1     -34.558  16.963   0.480  0.00  0.00    -0.379 OA
ATOM     23  H   UNL     1     -35.358  16.680   0.010  0.00  0.00    +0.211 HD
ENDBRANCH  21  22
BRANCH  21  24
ATOM     24  C   UNL     1     -33.362  18.829   1.358  0.00  0.00    +0.169 C 
BRANCH  24  25
ATOM     25  O   UNL     1     -32.414  17.786   1.564  0.00  0.00    -0.379 OA
ATOM     26  H   UNL     1     -32.881  16.944   1.683  0.00  0.00    +0.211 HD
ENDBRANCH  24  25
ENDBRANCH  21  24
ENDBRANCH  18  21
ENDBRANCH  15  18
ENDBRANCH   1  15
TORSDOF 11
ENDMDL
MODEL 8
REMARK VINA RESULT:      -5.5      3.075      4.992
REMARK  Name = 191714
REMARK  11 active torsions:
REMARK  status: ('A' for Active; 'I' for Inactive)
REMARK    1  A    between atoms: CA_1  and  N_3
REMARK    2  A    between atoms: CA_1  and  C_14
REMARK    3  A    between atoms: CA_1  and  C_15
REMARK    4  A    between atoms: C_4  and  C_6
REMARK    5  A    between atoms: C_15  and  O_16
REMARK    6  A    between atoms: C_15  and  C_18
REMARK    7  A    between atoms: C_18  and  O_19
REMARK    8  A    between atoms: C_18  and  C_21
REMARK    9  A    between atoms: C_21  and  O_22
REMARK   10  A    between atoms: C_21  and  C_24
REMARK   11  A    between atoms: C_24  and  O_25
REMARK                            x       y       z     vdW  Elec       q    Type
REMARK                         _______ _______ _______ _____ _____    ______ ____
ROOT
ATOM      1  CA  UNL     1     -33.294  27.709   4.522  0.00  0.00    +0.167 C 
ENDROOT
BRANCH   1   3
ATOM      2  O   UNL     1     -35.908  26.572   4.863  0.00  0.00    -0.270 OA
ATOM      3  N   UNL     1     -33.622  26.307   4.578  0.00  0.00    -0.294 N 
ATOM      4  C   UNL     1     -34.922  25.851   4.747  0.00  0.00    +0.246 C 
ATOM      5  H   UNL     1     -32.895  25.646   4.495  0.00  0.00    +0.150 HD
BRANCH   4   6
ATOM      6  C   UNL     1     -35.090  24.376   4.812  0.00  0.00    +0.049 C 
ATOM      7  C   UNL     1     -35.225  23.642   3.650  0.00  0.00    -0.017 C 
ATOM      8  C   UNL     1     -35.107  23.783   6.059  0.00  0.00    +0.004 C 
ATOM      9  C   UNL     1     -35.382  22.259   3.739  0.00  0.00    -0.004 C 
ATOM     10  C   UNL     1     -35.209  24.281   2.300  0.00  0.00    +0.031 C 
ATOM     11  C   UNL     1     -35.264  22.400   6.148  0.00  0.00    +0.000 C 
ATOM     12  C   UNL     1     -35.402  21.638   4.988  0.00  0.00    -0.000 C 
ENDBRANCH   4   6
ENDBRANCH   1   3
BRANCH   1  14
ATOM     13  O   UNL     1     -30.909  27.844   4.913  0.00  0.00    -0.286 OA
ATOM     14  C   UNL     1     -32.050  27.902   5.367  0.00  0.00    +0.229 C 
ENDBRANCH   1  14
BRANCH   1  15
ATOM     15  C   UNL     1     -33.093  28.229   3.092  0.00  0.00    +0.165 C 
BRANCH  15  16
ATOM     16  O   UNL     1     -32.574  27.156   2.293  0.00  0.00    -0.380 OA
ATOM     17  H   UNL     1     -33.014  26.328   2.537  0.00  0.00    +0.211 HD
ENDBRANCH  15  16
BRANCH  15  18
ATOM     18  C   UNL     1     -34.364  28.759   2.401  0.00  0.00    +0.168 C 
BRANCH  18  19
ATOM     19  O   UNL     1     -35.303  29.087   3.436  0.00  0.00    -0.379 OA
ATOM     20  H   UNL     1     -36.134  29.387   3.035  0.00  0.00    +0.211 HD
ENDBRANCH  18  19
BRANCH  18  21
ATOM     21  C   UNL     1     -35.031  27.794   1.407  0.00  0.00    +0.169 C 
BRANCH  21  22
ATOM     22  O   UNL     1     -34.479  27.974   0.101  0.00  0.00    -0.379 OA
ATOM     23  H   UNL     1     -35.183  28.222  -0.517  0.00  0.00    +0.211 HD
ENDBRANCH  21  22
BRANCH  21  24
ATOM     24  C   UNL     1     -36.538  28.029   1.301  0.00  0.00    +0.169 C 
BRANCH  24  25
ATOM     25  O   UNL     1     -37.195  27.266   2.308  0.00  0.00    -0.379 OA
ATOM     26  H   UNL     1     -36.657  27.264   3.115  0.00  0.00    +0.211 HD
ENDBRANCH  24  25
ENDBRANCH  21  24
ENDBRANCH  18  21
ENDBRANCH  15  18
ENDBRANCH   1  15
TORSDOF 11
ENDMDL
MODEL 9
REMARK VINA RESULT:      -5.4      2.617      5.699
REMARK  Name = 191714
REMARK  11 active torsions:
REMARK  status: ('A' for Active; 'I' for Inactive)
REMARK    1  A    between atoms: CA_1  and  N_3
REMARK    2  A    between atoms: CA_1  and  C_14
REMARK    3  A    between atoms: CA_1  and  C_15
REMARK    4  A    between atoms: C_4  and  C_6
REMARK    5  A    between atoms: C_15  and  O_16
REMARK    6  A    between atoms: C_15  and  C_18
REMARK    7  A    between atoms: C_18  and  O_19
REMARK    8  A    between atoms: C_18  and  C_21
REMARK    9  A    between atoms: C_21  and  O_22
REMARK   10  A    between atoms: C_21  and  C_24
REMARK   11  A    between atoms: C_24  and  O_25
REMARK                            x       y       z     vdW  Elec       q    Type
REMARK                         _______ _______ _______ _____ _____    ______ ____
ROOT
ATOM      1  CA  UNL     1     -35.560  21.135   1.088  0.00  0.00    +0.167 C 
ENDROOT
BRANCH   1   3
ATOM      2  O   UNL     1     -35.976  23.974   1.155  0.00  0.00    -0.270 OA
ATOM      3  N   UNL     1     -35.296  22.017   2.196  0.00  0.00    -0.294 N 
ATOM      4  C   UNL     1     -35.530  23.383   2.134  0.00  0.00    +0.246 C 
ATOM      5  H   UNL     1     -34.935  21.636   3.030  0.00  0.00    +0.150 HD
BRANCH   4   6
ATOM      6  C   UNL     1     -35.181  24.159   3.352  0.00  0.00    +0.049 C 
ATOM      7  C   UNL     1     -34.147  25.072   3.320  0.00  0.00    -0.017 C 
ATOM      8  C   UNL     1     -35.922  23.930   4.496  0.00  0.00    +0.004 C 
ATOM      9  C   UNL     1     -33.840  25.787   4.477  0.00  0.00    -0.004 C 
ATOM     10  C   UNL     1     -33.344  25.320   2.084  0.00  0.00    +0.031 C 
ATOM     11  C   UNL     1     -35.614  24.646   5.653  0.00  0.00    +0.000 C 
ATOM     12  C   UNL     1     -34.573  25.573   5.644  0.00  0.00    -0.000 C 
ENDBRANCH   4   6
ENDBRANCH   1   3
BRANCH   1  14
ATOM     13  O   UNL     1     -33.979  19.462   1.837  0.00  0.00    -0.286 OA
ATOM     14  C   UNL     1     -34.352  20.228   0.952  0.00  0.00    +0.229 C 
ENDBRANCH   1  14
BRANCH   1  15
ATOM     15  C   UNL     1     -36.856  20.329   1.247  0.00  0.00    +0.165 C 
BRANCH  15  16
ATOM     16  O   UNL     1     -36.975  19.937   2.623  0.00  0.00    -0.380 OA
ATOM     17  H   UNL     1     -36.608  20.632   3.189  0.00  0.00    +0.211 HD
ENDBRANCH  15  16
BRANCH  15  18
ATOM     18  C   UNL     1     -38.146  21.076   0.856  0.00  0.00    +0.168 C 
BRANCH  18  19
ATOM     19  O   UNL     1     -37.773  22.114  -0.062  0.00  0.00    -0.379 OA
ATOM     20  H   UNL     1     -37.720  22.959   0.410  0.00  0.00    +0.211 HD
ENDBRANCH  18  19
BRANCH  18  21
ATOM     21  C   UNL     1     -38.934  21.697   2.022  0.00  0.00    +0.169 C 
BRANCH  21  22
ATOM     22  O   UNL     1     -39.984  20.817   2.429  0.00  0.00    -0.379 OA
ATOM     23  H   UNL     1     -40.134  20.152   1.740  0.00  0.00    +0.211 HD
ENDBRANCH  21  22
BRANCH  21  24
ATOM     24  C   UNL     1     -39.577  23.028   1.635  0.00  0.00    +0.169 C 
BRANCH  24  25
ATOM     25  O   UNL     1     -38.760  24.091   2.117  0.00  0.00    -0.379 OA
ATOM     26  H   UNL     1     -38.566  24.704   1.391  0.00  0.00    +0.211 HD
ENDBRANCH  24  25
ENDBRANCH  21  24
ENDBRANCH  18  21
ENDBRANCH  15  18
ENDBRANCH   1  15
TORSDOF 11
ENDMDL
