MODEL 1
REMARK VINA RESULT:      -5.9      0.000      0.000
REMARK  Name = 193315
REMARK  4 active torsions:
REMARK  status: ('A' for Active; 'I' for Inactive)
REMARK    1  A    between atoms: P_1  and  O_19
REMARK    2  A    between atoms: C_8  and  N_12
REMARK    3  A    between atoms: C_9  and  C_21
REMARK    4  A    between atoms: C_21  and  O_22
REMARK                            x       y       z     vdW  Elec       q    Type
REMARK                         _______ _______ _______ _____ _____    ______ ____
ROOT
ATOM      1  P   UNL     1     -33.962  26.045   4.156  0.00  0.00    +0.477 P 
ATOM      2  O   UNL     1     -36.694  23.087   4.194  0.00  0.00    -0.333 OA
ATOM      3  O   UNL     1     -35.368  25.706   3.411  0.00  0.00    -0.269 OA
ATOM      4  O   UNL     1     -34.295  25.311   5.570  0.00  0.00    -0.271 OA
ATOM      5  O   UNL     1     -32.713  25.615   3.450  0.00  0.00    -0.227 OA
ATOM      6  C   UNL     1     -36.364  25.428   4.407  0.00  0.00    +0.203 C 
ATOM      7  C   UNL     1     -35.599  24.734   5.519  0.00  0.00    +0.187 C 
ATOM      8  C   UNL     1     -37.337  24.353   3.972  0.00  0.00    +0.230 C 
ATOM      9  C   UNL     1     -35.541  23.289   5.030  0.00  0.00    +0.176 C 
ENDROOT
BRANCH   8  12
ATOM     10  O   UNL     1     -39.095  26.324   2.972  0.00  0.00    -0.252 OA
ATOM     11  O   UNL     1     -38.831  24.647  -1.314  0.00  0.00    -0.270 OA
ATOM     12  N   UNL     1     -37.743  24.454   2.602  0.00  0.00    -0.217 N 
ATOM     13  N   UNL     1     -38.963  25.487   0.838  0.00  0.00    -0.236 N 
ATOM     14  C   UNL     1     -38.631  25.482   2.200  0.00  0.00    +0.315 C 
ATOM     15  C   UNL     1     -37.266  23.544   1.663  0.00  0.00    +0.076 C 
ATOM     16  C   UNL     1     -37.590  23.563   0.369  0.00  0.00    +0.074 C 
ATOM     17  C   UNL     1     -38.511  24.602  -0.129  0.00  0.00    +0.254 C 
ATOM     18  H   UNL     1     -39.580  26.193   0.538  0.00  0.00    +0.159 HD
ENDBRANCH   8  12
BRANCH   1  19
ATOM     19  O   UNL     1     -34.085  27.616   4.506  0.00  0.00    -0.302 OA
ATOM     20  H   UNL     1     -33.468  27.837   5.221  0.00  0.00    +0.222 HD
ENDBRANCH   1  19
BRANCH   9  21
ATOM     21  C   UNL     1     -35.558  22.282   6.166  0.00  0.00    +0.169 C 
BRANCH  21  22
ATOM     22  O   UNL     1     -35.305  20.991   5.637  0.00  0.00    -0.379 OA
ATOM     23  H   UNL     1     -35.521  20.982   4.691  0.00  0.00    +0.211 HD
ENDBRANCH  21  22
ENDBRANCH   9  21
TORSDOF 4
ENDMDL
MODEL 2
REMARK VINA RESULT:      -5.8      3.839      5.314
REMARK  Name = 193315
REMARK  4 active torsions:
REMARK  status: ('A' for Active; 'I' for Inactive)
REMARK    1  A    between atoms: P_1  and  O_19
REMARK    2  A    between atoms: C_8  and  N_12
REMARK    3  A    between atoms: C_9  and  C_21
REMARK    4  A    between atoms: C_21  and  O_22
REMARK                            x       y       z     vdW  Elec       q    Type
REMARK                         _______ _______ _______ _____ _____    ______ ____
ROOT
ATOM      1  P   UNL     1     -35.892  23.392   4.793  0.00  0.00    +0.477 P 
ATOM      2  O   UNL     1     -37.144  21.550   1.439  0.00  0.00    -0.333 OA
ATOM      3  O   UNL     1     -35.217  22.726   3.471  0.00  0.00    -0.269 OA
ATOM      4  O   UNL     1     -37.263  23.911   4.086  0.00  0.00    -0.271 OA
ATOM      5  O   UNL     1     -36.043  22.500   5.987  0.00  0.00    -0.227 OA
ATOM      6  C   UNL     1     -35.810  23.313   2.303  0.00  0.00    +0.203 C 
ATOM      7  C   UNL     1     -37.253  23.565   2.702  0.00  0.00    +0.187 C 
ATOM      8  C   UNL     1     -35.964  22.322   1.169  0.00  0.00    +0.230 C 
ATOM      9  C   UNL     1     -37.904  22.203   2.472  0.00  0.00    +0.176 C 
ENDROOT
BRANCH   8  12
ATOM     10  O   UNL     1     -33.654  22.953  -0.329  0.00  0.00    -0.252 OA
ATOM     11  O   UNL     1     -31.710  18.879   0.606  0.00  0.00    -0.270 OA
ATOM     12  N   UNL     1     -34.841  21.447   1.005  0.00  0.00    -0.217 N 
ATOM     13  N   UNL     1     -32.687  20.924   0.137  0.00  0.00    -0.236 N 
ATOM     14  C   UNL     1     -33.728  21.858   0.232  0.00  0.00    +0.315 C 
ATOM     15  C   UNL     1     -34.842  20.191   1.606  0.00  0.00    +0.076 C 
ATOM     16  C   UNL     1     -33.843  19.313   1.507  0.00  0.00    +0.074 C 
ATOM     17  C   UNL     1     -32.647  19.666   0.717  0.00  0.00    +0.254 C 
ATOM     18  H   UNL     1     -31.904  21.190  -0.397  0.00  0.00    +0.159 HD
ENDBRANCH   8  12
BRANCH   1  19
ATOM     19  O   UNL     1     -35.043  24.749   5.013  0.00  0.00    -0.302 OA
ATOM     20  H   UNL     1     -34.106  24.576   4.831  0.00  0.00    +0.222 HD
ENDBRANCH   1  19
BRANCH   9  21
ATOM     21  C   UNL     1     -39.355  22.310   2.040  0.00  0.00    +0.169 C 
BRANCH  21  22
ATOM     22  O   UNL     1     -39.969  21.039   2.181  0.00  0.00    -0.379 OA
ATOM     23  H   UNL     1     -40.650  21.084   2.870  0.00  0.00    +0.211 HD
ENDBRANCH  21  22
ENDBRANCH   9  21
TORSDOF 4
ENDMDL
MODEL 3
REMARK VINA RESULT:      -5.8      1.868      2.066
REMARK  Name = 193315
REMARK  4 active torsions:
REMARK  status: ('A' for Active; 'I' for Inactive)
REMARK    1  A    between atoms: P_1  and  O_19
REMARK    2  A    between atoms: C_8  and  N_12
REMARK    3  A    between atoms: C_9  and  C_21
REMARK    4  A    between atoms: C_21  and  O_22
REMARK                            x       y       z     vdW  Elec       q    Type
REMARK                         _______ _______ _______ _____ _____    ______ ____
ROOT
ATOM      1  P   UNL     1     -34.502  26.079   4.293  0.00  0.00    +0.477 P 
ATOM      2  O   UNL     1     -35.686  22.243   3.986  0.00  0.00    -0.333 OA
ATOM      3  O   UNL     1     -35.217  25.134   3.178  0.00  0.00    -0.269 OA
ATOM      4  O   UNL     1     -35.116  25.346   5.610  0.00  0.00    -0.271 OA
ATOM      5  O   UNL     1     -33.010  26.191   4.215  0.00  0.00    -0.227 OA
ATOM      6  C   UNL     1     -36.365  24.507   3.770  0.00  0.00    +0.203 C 
ATOM      7  C   UNL     1     -35.957  24.265   5.212  0.00  0.00    +0.187 C 
ATOM      8  C   UNL     1     -36.585  23.098   3.262  0.00  0.00    +0.230 C 
ATOM      9  C   UNL     1     -35.168  22.961   5.120  0.00  0.00    +0.176 C 
ENDROOT
BRANCH   8  12
ATOM     10  O   UNL     1     -38.450  23.834   1.273  0.00  0.00    -0.252 OA
ATOM     11  O   UNL     1     -35.645  22.469  -2.121  0.00  0.00    -0.270 OA
ATOM     12  N   UNL     1     -36.368  22.947   1.854  0.00  0.00    -0.217 N 
ATOM     13  N   UNL     1     -37.052  23.153  -0.416  0.00  0.00    -0.236 N 
ATOM     14  C   UNL     1     -37.369  23.347   0.935  0.00  0.00    +0.315 C 
ATOM     15  C   UNL     1     -35.174  22.407   1.386  0.00  0.00    +0.076 C 
ATOM     16  C   UNL     1     -34.886  22.229   0.096  0.00  0.00    +0.074 C 
ATOM     17  C   UNL     1     -35.878  22.620  -0.925  0.00  0.00    +0.254 C 
ATOM     18  H   UNL     1     -37.735  23.424  -1.072  0.00  0.00    +0.159 HD
ENDBRANCH   8  12
BRANCH   1  19
ATOM     19  O   UNL     1     -35.331  27.462   4.208  0.00  0.00    -0.302 OA
ATOM     20  H   UNL     1     -35.342  27.887   5.080  0.00  0.00    +0.222 HD
ENDBRANCH   1  19
BRANCH   9  21
ATOM     21  C   UNL     1     -35.302  22.102   6.365  0.00  0.00    +0.169 C 
BRANCH  21  22
ATOM     22  O   UNL     1     -35.452  20.748   5.972  0.00  0.00    -0.379 OA
ATOM     23  H   UNL     1     -36.213  20.667   5.377  0.00  0.00    +0.211 HD
ENDBRANCH  21  22
ENDBRANCH   9  21
TORSDOF 4
ENDMDL
MODEL 4
REMARK VINA RESULT:      -5.7      1.983      3.613
REMARK  Name = 193315
REMARK  4 active torsions:
REMARK  status: ('A' for Active; 'I' for Inactive)
REMARK    1  A    between atoms: P_1  and  O_19
REMARK    2  A    between atoms: C_8  and  N_12
REMARK    3  A    between atoms: C_9  and  C_21
REMARK    4  A    between atoms: C_21  and  O_22
REMARK                            x       y       z     vdW  Elec       q    Type
REMARK                         _______ _______ _______ _____ _____    ______ ____
ROOT
ATOM      1  P   UNL     1     -35.572  22.221   5.383  0.00  0.00    +0.477 P 
ATOM      2  O   UNL     1     -36.149  25.808   3.648  0.00  0.00    -0.333 OA
ATOM      3  O   UNL     1     -36.474  22.834   4.175  0.00  0.00    -0.269 OA
ATOM      4  O   UNL     1     -34.297  23.219   5.216  0.00  0.00    -0.271 OA
ATOM      5  O   UNL     1     -36.215  22.166   6.734  0.00  0.00    -0.227 OA
ATOM      6  C   UNL     1     -35.612  23.529   3.261  0.00  0.00    +0.203 C 
ATOM      7  C   UNL     1     -34.535  24.131   4.146  0.00  0.00    +0.187 C 
ATOM      8  C   UNL     1     -36.263  24.761   2.671  0.00  0.00    +0.230 C 
ATOM      9  C   UNL     1     -35.197  25.410   4.650  0.00  0.00    +0.176 C 
ENDROOT
BRANCH   8  12
ATOM     10  O   UNL     1     -37.148  23.453   0.330  0.00  0.00    -0.252 OA
ATOM     11  O   UNL     1     -41.579  24.120   1.409  0.00  0.00    -0.270 OA
ATOM     12  N   UNL     1     -37.640  24.579   2.316  0.00  0.00    -0.217 N 
ATOM     13  N   UNL     1     -39.354  23.786   0.868  0.00  0.00    -0.236 N 
ATOM     14  C   UNL     1     -37.980  23.907   1.117  0.00  0.00    +0.315 C 
ATOM     15  C   UNL     1     -38.645  25.061   3.150  0.00  0.00    +0.076 C 
ATOM     16  C   UNL     1     -39.949  24.937   2.900  0.00  0.00    +0.074 C 
ATOM     17  C   UNL     1     -40.386  24.250   1.669  0.00  0.00    +0.254 C 
ATOM     18  H   UNL     1     -39.612  23.323   0.039  0.00  0.00    +0.159 HD
ENDBRANCH   8  12
BRANCH   1  19
ATOM     19  O   UNL     1     -35.036  20.819   4.785  0.00  0.00    -0.302 OA
ATOM     20  H   UNL     1     -34.770  20.237   5.514  0.00  0.00    +0.222 HD
ENDBRANCH   1  19
BRANCH   9  21
ATOM     21  C   UNL     1     -34.204  26.536   4.879  0.00  0.00    +0.169 C 
BRANCH  21  22
ATOM     22  O   UNL     1     -33.349  26.180   5.952  0.00  0.00    -0.379 OA
ATOM     23  H   UNL     1     -33.843  26.221   6.786  0.00  0.00    +0.211 HD
ENDBRANCH  21  22
ENDBRANCH   9  21
TORSDOF 4
ENDMDL
MODEL 5
REMARK VINA RESULT:      -5.6      2.549      5.488
REMARK  Name = 193315
REMARK  4 active torsions:
REMARK  status: ('A' for Active; 'I' for Inactive)
REMARK    1  A    between atoms: P_1  and  O_19
REMARK    2  A    between atoms: C_8  and  N_12
REMARK    3  A    between atoms: C_9  and  C_21
REMARK    4  A    between atoms: C_21  and  O_22
REMARK                            x       y       z     vdW  Elec       q    Type
REMARK                         _______ _______ _______ _____ _____    ______ ____
ROOT
ATOM      1  P   UNL     1     -39.997  25.874   2.296  0.00  0.00    +0.477 P 
ATOM      2  O   UNL     1     -37.286  22.955   2.885  0.00  0.00    -0.333 OA
ATOM      3  O   UNL     1     -38.427  25.765   2.712  0.00  0.00    -0.269 OA
ATOM      4  O   UNL     1     -40.048  24.559   1.339  0.00  0.00    -0.271 OA
ATOM      5  O   UNL     1     -40.983  25.929   3.422  0.00  0.00    -0.227 OA
ATOM      6  C   UNL     1     -37.741  24.977   1.728  0.00  0.00    +0.203 C 
ATOM      7  C   UNL     1     -38.764  23.939   1.300  0.00  0.00    +0.187 C 
ATOM      8  C   UNL     1     -36.650  24.117   2.329  0.00  0.00    +0.230 C 
ATOM      9  C   UNL     1     -38.634  22.877   2.388  0.00  0.00    +0.176 C 
ENDROOT
BRANCH   8  12
ATOM     10  O   UNL     1     -34.454  25.814   1.808  0.00  0.00    -0.252 OA
ATOM     11  O   UNL     1     -33.762  26.601   6.297  0.00  0.00    -0.270 OA
ATOM     12  N   UNL     1     -35.880  24.777   3.341  0.00  0.00    -0.217 N 
ATOM     13  N   UNL     1     -34.110  26.205   4.044  0.00  0.00    -0.236 N 
ATOM     14  C   UNL     1     -34.794  25.610   2.975  0.00  0.00    +0.315 C 
ATOM     15  C   UNL     1     -36.197  24.603   4.685  0.00  0.00    +0.076 C 
ATOM     16  C   UNL     1     -35.537  25.176   5.692  0.00  0.00    +0.074 C 
ATOM     17  C   UNL     1     -34.392  26.058   5.394  0.00  0.00    +0.254 C 
ATOM     18  H   UNL     1     -33.351  26.787   3.812  0.00  0.00    +0.159 HD
ENDBRANCH   8  12
BRANCH   1  19
ATOM     19  O   UNL     1     -40.030  27.105   1.251  0.00  0.00    -0.302 OA
ATOM     20  H   UNL     1     -39.334  27.741   1.478  0.00  0.00    +0.222 HD
ENDBRANCH   1  19
BRANCH   9  21
ATOM     21  C   UNL     1     -38.901  21.473   1.874  0.00  0.00    +0.169 C 
BRANCH  21  22
ATOM     22  O   UNL     1     -40.222  21.100   2.232  0.00  0.00    -0.379 OA
ATOM     23  H   UNL     1     -40.832  21.820   2.012  0.00  0.00    +0.211 HD
ENDBRANCH  21  22
ENDBRANCH   9  21
TORSDOF 4
ENDMDL
MODEL 6
REMARK VINA RESULT:      -5.5      3.313      5.669
REMARK  Name = 193315
REMARK  4 active torsions:
REMARK  status: ('A' for Active; 'I' for Inactive)
REMARK    1  A    between atoms: P_1  and  O_19
REMARK    2  A    between atoms: C_8  and  N_12
REMARK    3  A    between atoms: C_9  and  C_21
REMARK    4  A    between atoms: C_21  and  O_22
REMARK                            x       y       z     vdW  Elec       q    Type
REMARK                         _______ _______ _______ _____ _____    ______ ____
ROOT
ATOM      1  P   UNL     1     -34.694  20.372   1.061  0.00  0.00    +0.477 P 
ATOM      2  O   UNL     1     -37.458  23.087   2.156  0.00  0.00    -0.333 OA
ATOM      3  O   UNL     1     -34.857  21.519   2.203  0.00  0.00    -0.269 OA
ATOM      4  O   UNL     1     -36.267  19.972   0.944  0.00  0.00    -0.271 OA
ATOM      5  O   UNL     1     -34.005  20.783  -0.204  0.00  0.00    -0.227 OA
ATOM      6  C   UNL     1     -36.089  21.300   2.907  0.00  0.00    +0.203 C 
ATOM      7  C   UNL     1     -37.035  20.765   1.847  0.00  0.00    +0.187 C 
ATOM      8  C   UNL     1     -36.765  22.592   3.312  0.00  0.00    +0.230 C 
ATOM      9  C   UNL     1     -37.532  22.040   1.171  0.00  0.00    +0.176 C 
ENDROOT
BRANCH   8  12
ATOM     10  O   UNL     1     -35.934  22.817   6.002  0.00  0.00    -0.252 OA
ATOM     11  O   UNL     1     -33.294  26.481   5.073  0.00  0.00    -0.270 OA
ATOM     12  N   UNL     1     -35.863  23.593   3.800  0.00  0.00    -0.217 N 
ATOM     13  N   UNL     1     -34.620  24.642   5.538  0.00  0.00    -0.236 N 
ATOM     14  C   UNL     1     -35.508  23.621   5.170  0.00  0.00    +0.315 C 
ATOM     15  C   UNL     1     -35.333  24.540   2.927  0.00  0.00    +0.076 C 
ATOM     16  C   UNL     1     -34.489  25.506   3.291  0.00  0.00    +0.074 C 
ATOM     17  C   UNL     1     -34.070  25.603   4.704  0.00  0.00    +0.254 C 
ATOM     18  H   UNL     1     -34.361  24.680   6.486  0.00  0.00    +0.159 HD
ENDBRANCH   8  12
BRANCH   1  19
ATOM     19  O   UNL     1     -34.044  19.128   1.861  0.00  0.00    -0.302 OA
ATOM     20  H   UNL     1     -34.297  18.298   1.427  0.00  0.00    +0.222 HD
ENDBRANCH   1  19
BRANCH   9  21
ATOM     21  C   UNL     1     -38.958  21.922   0.666  0.00  0.00    +0.169 C 
BRANCH  21  22
ATOM     22  O   UNL     1     -39.368  20.568   0.766  0.00  0.00    -0.379 OA
ATOM     23  H   UNL     1     -40.171  20.432   0.239  0.00  0.00    +0.211 HD
ENDBRANCH  21  22
ENDBRANCH   9  21
TORSDOF 4
ENDMDL
MODEL 7
REMARK VINA RESULT:      -5.5      2.929      4.785
REMARK  Name = 193315
REMARK  4 active torsions:
REMARK  status: ('A' for Active; 'I' for Inactive)
REMARK    1  A    between atoms: P_1  and  O_19
REMARK    2  A    between atoms: C_8  and  N_12
REMARK    3  A    between atoms: C_9  and  C_21
REMARK    4  A    between atoms: C_21  and  O_22
REMARK                            x       y       z     vdW  Elec       q    Type
REMARK                         _______ _______ _______ _____ _____    ______ ____
ROOT
ATOM      1  P   UNL     1     -37.686  23.846   2.920  0.00  0.00    +0.477 P 
ATOM      2  O   UNL     1     -34.408  24.182   5.234  0.00  0.00    -0.333 OA
ATOM      3  O   UNL     1     -36.307  24.709   2.921  0.00  0.00    -0.269 OA
ATOM      4  O   UNL     1     -37.093  22.507   3.629  0.00  0.00    -0.271 OA
ATOM      5  O   UNL     1     -38.874  24.486   3.571  0.00  0.00    -0.227 OA
ATOM      6  C   UNL     1     -35.196  23.806   3.027  0.00  0.00    +0.203 C 
ATOM      7  C   UNL     1     -35.707  22.686   3.915  0.00  0.00    +0.187 C 
ATOM      8  C   UNL     1     -34.061  24.373   3.853  0.00  0.00    +0.230 C 
ATOM      9  C   UNL     1     -35.506  23.256   5.317  0.00  0.00    +0.176 C 
ENDROOT
BRANCH   8  12
ATOM     10  O   UNL     1     -35.140  26.494   5.374  0.00  0.00    -0.252 OA
ATOM     11  O   UNL     1     -32.985  29.667   2.817  0.00  0.00    -0.270 OA
ATOM     12  N   UNL     1     -33.799  25.760   3.607  0.00  0.00    -0.217 N 
ATOM     13  N   UNL     1     -34.067  28.073   4.099  0.00  0.00    -0.236 N 
ATOM     14  C   UNL     1     -34.390  26.750   4.429  0.00  0.00    +0.315 C 
ATOM     15  C   UNL     1     -32.962  26.137   2.561  0.00  0.00    +0.076 C 
ATOM     16  C   UNL     1     -32.663  27.401   2.259  0.00  0.00    +0.074 C 
ATOM     17  C   UNL     1     -33.240  28.493   3.069  0.00  0.00    +0.254 C 
ATOM     18  H   UNL     1     -34.468  28.777   4.658  0.00  0.00    +0.159 HD
ENDBRANCH   8  12
BRANCH   1  19
ATOM     19  O   UNL     1     -37.862  23.411   1.374  0.00  0.00    -0.302 OA
ATOM     20  H   UNL     1     -37.478  22.530   1.241  0.00  0.00    +0.222 HD
ENDBRANCH   1  19
BRANCH   9  21
ATOM     21  C   UNL     1     -35.187  22.187   6.347  0.00  0.00    +0.169 C 
BRANCH  21  22
ATOM     22  O   UNL     1     -35.531  20.919   5.812  0.00  0.00    -0.379 OA
ATOM     23  H   UNL     1     -34.795  20.583   5.278  0.00  0.00    +0.211 HD
ENDBRANCH  21  22
ENDBRANCH   9  21
TORSDOF 4
ENDMDL
MODEL 8
REMARK VINA RESULT:      -5.5      2.581      5.696
REMARK  Name = 193315
REMARK  4 active torsions:
REMARK  status: ('A' for Active; 'I' for Inactive)
REMARK    1  A    between atoms: P_1  and  O_19
REMARK    2  A    between atoms: C_8  and  N_12
REMARK    3  A    between atoms: C_9  and  C_21
REMARK    4  A    between atoms: C_21  and  O_22
REMARK                            x       y       z     vdW  Elec       q    Type
REMARK                         _______ _______ _______ _____ _____    ______ ____
ROOT
ATOM      1  P   UNL     1     -39.794  25.712   2.556  0.00  0.00    +0.477 P 
ATOM      2  O   UNL     1     -35.960  25.068   1.505  0.00  0.00    -0.333 OA
ATOM      3  O   UNL     1     -38.447  25.118   3.249  0.00  0.00    -0.269 OA
ATOM      4  O   UNL     1     -39.064  26.787   1.575  0.00  0.00    -0.271 OA
ATOM      5  O   UNL     1     -40.705  24.716   1.907  0.00  0.00    -0.227 OA
ATOM      6  C   UNL     1     -37.390  26.079   3.107  0.00  0.00    +0.203 C 
ATOM      7  C   UNL     1     -37.651  26.725   1.758  0.00  0.00    +0.187 C 
ATOM      8  C   UNL     1     -36.040  25.431   2.893  0.00  0.00    +0.230 C 
ATOM      9  C   UNL     1     -37.015  25.734   0.787  0.00  0.00    +0.176 C 
ENDROOT
BRANCH   8  12
ATOM     10  O   UNL     1     -35.578  25.508   5.678  0.00  0.00    -0.252 OA
ATOM     11  O   UNL     1     -35.179  20.923   5.926  0.00  0.00    -0.270 OA
ATOM     12  N   UNL     1     -35.813  24.275   3.709  0.00  0.00    -0.217 N 
ATOM     13  N   UNL     1     -35.379  23.225   5.800  0.00  0.00    -0.236 N 
ATOM     14  C   UNL     1     -35.591  24.420   5.099  0.00  0.00    +0.315 C 
ATOM     15  C   UNL     1     -35.812  23.006   3.135  0.00  0.00    +0.076 C 
ATOM     16  C   UNL     1     -35.610  21.877   3.815  0.00  0.00    +0.074 C 
ATOM     17  C   UNL     1     -35.370  21.944   5.270  0.00  0.00    +0.254 C 
ATOM     18  H   UNL     1     -35.222  23.304   6.768  0.00  0.00    +0.159 HD
ENDBRANCH   8  12
BRANCH   1  19
ATOM     19  O   UNL     1     -40.444  26.634   3.712  0.00  0.00    -0.302 OA
ATOM     20  H   UNL     1     -39.821  26.712   4.451  0.00  0.00    +0.222 HD
ENDBRANCH   1  19
BRANCH   9  21
ATOM     21  C   UNL     1     -36.439  26.405  -0.447  0.00  0.00    +0.169 C 
BRANCH  21  22
ATOM     22  O   UNL     1     -37.401  27.308  -0.966  0.00  0.00    -0.379 OA
ATOM     23  H   UNL     1     -37.879  26.887  -1.697  0.00  0.00    +0.211 HD
ENDBRANCH  21  22
ENDBRANCH   9  21
TORSDOF 4
ENDMDL
MODEL 9
REMARK VINA RESULT:      -5.5      2.802      5.313
REMARK  Name = 193315
REMARK  4 active torsions:
REMARK  status: ('A' for Active; 'I' for Inactive)
REMARK    1  A    between atoms: P_1  and  O_19
REMARK    2  A    between atoms: C_8  and  N_12
REMARK    3  A    between atoms: C_9  and  C_21
REMARK    4  A    between atoms: C_21  and  O_22
REMARK                            x       y       z     vdW  Elec       q    Type
REMARK                         _______ _______ _______ _____ _____    ______ ____
ROOT
ATOM      1  P   UNL     1     -31.593  26.234   1.761  0.00  0.00    +0.477 P 
ATOM      2  O   UNL     1     -34.769  27.710   3.748  0.00  0.00    -0.333 OA
ATOM      3  O   UNL     1     -32.952  25.654   2.442  0.00  0.00    -0.269 OA
ATOM      4  O   UNL     1     -32.187  27.682   1.313  0.00  0.00    -0.271 OA
ATOM      5  O   UNL     1     -30.367  26.243   2.621  0.00  0.00    -0.227 OA
ATOM      6  C   UNL     1     -34.078  26.372   1.914  0.00  0.00    +0.203 C 
ATOM      7  C   UNL     1     -33.556  27.782   1.701  0.00  0.00    +0.187 C 
ATOM      8  C   UNL     1     -35.166  26.589   2.943  0.00  0.00    +0.230 C 
ATOM      9  C   UNL     1     -33.690  28.398   3.091  0.00  0.00    +0.176 C 
ENDROOT
BRANCH   8  12
ATOM     10  O   UNL     1     -36.984  24.514   2.337  0.00  0.00    -0.252 OA
ATOM     11  O   UNL     1     -36.012  22.270   6.245  0.00  0.00    -0.270 OA
ATOM     12  N   UNL     1     -35.407  25.452   3.783  0.00  0.00    -0.217 N 
ATOM     13  N   UNL     1     -36.499  23.398   4.284  0.00  0.00    -0.236 N 
ATOM     14  C   UNL     1     -36.341  24.464   3.388  0.00  0.00    +0.315 C 
ATOM     15  C   UNL     1     -34.722  25.317   4.987  0.00  0.00    +0.076 C 
ATOM     16  C   UNL     1     -34.883  24.296   5.830  0.00  0.00    +0.074 C 
ATOM     17  C   UNL     1     -35.840  23.224   5.491  0.00  0.00    +0.254 C 
ATOM     18  H   UNL     1     -37.145  22.700   4.029  0.00  0.00    +0.159 HD
ENDBRANCH   8  12
BRANCH   1  19
ATOM     19  O   UNL     1     -31.489  25.421   0.369  0.00  0.00    -0.302 OA
ATOM     20  H   UNL     1     -32.380  25.226   0.041  0.00  0.00    +0.222 HD
ENDBRANCH   1  19
BRANCH   9  21
ATOM     21  C   UNL     1     -33.991  29.886   3.049  0.00  0.00    +0.169 C 
BRANCH  21  22
ATOM     22  O   UNL     1     -35.342  30.089   3.428  0.00  0.00    -0.379 OA
ATOM     23  H   UNL     1     -35.425  30.002   4.391  0.00  0.00    +0.211 HD
ENDBRANCH  21  22
ENDBRANCH   9  21
TORSDOF 4
ENDMDL
