MODEL 1
REMARK VINA RESULT:      -5.8      0.000      0.000
REMARK  Name = 5063989
REMARK  13 active torsions:
REMARK  status: ('A' for Active; 'I' for Inactive)
REMARK    1  A    between atoms: N_2  and  C_20
REMARK    2  A    between atoms: C_3  and  C_5
REMARK    3  A    between atoms: C_5  and  C_6
REMARK    4  A    between atoms: C_6  and  C_7
REMARK    5  A    between atoms: C_7  and  C_8
REMARK    6  A    between atoms: C_8  and  C_15
REMARK    7  A    between atoms: C_20  and  C_21
REMARK    8  A    between atoms: C_21  and  C_22
REMARK    9  A    between atoms: C_22  and  C_23
REMARK   10  A    between atoms: C_23  and  C_24
REMARK   11  A    between atoms: C_24  and  C_26
REMARK   12  A    between atoms: C_26  and  O_27
REMARK   13  A    between atoms: O_27  and  N_30
REMARK                            x       y       z     vdW  Elec       q    Type
REMARK                         _______ _______ _______ _____ _____    ______ ____
ROOT
ATOM      1  O   UNL     1     -36.933  26.205   2.678  0.00  0.00    -0.275 OA
ATOM      2  N   UNL     1     -38.301  24.994   4.107  0.00  0.00    -0.304 N 
ATOM      3  C   UNL     1     -37.142  25.674   3.766  0.00  0.00    +0.222 C 
ATOM      4  H   UNL     1     -38.376  24.600   5.006  0.00  0.00    +0.149 HD
ENDROOT
BRANCH   3   5
ATOM      5  C   UNL     1     -36.153  25.712   4.919  0.00  0.00    +0.085 C 
BRANCH   5   6
ATOM      6  C   UNL     1     -35.773  24.331   5.451  0.00  0.00    +0.010 C 
BRANCH   6   7
ATOM      7  C   UNL     1     -34.965  23.518   4.435  0.00  0.00    +0.001 C 
BRANCH   7   8
ATOM      8  C   UNL     1     -35.625  22.168   4.157  0.00  0.00    +0.013 C 
BRANCH   8  15
ATOM      9  S   UNL     1     -36.233  20.487   2.077  0.00  0.00    -0.138 S 
ATOM     10  O   UNL     1     -36.824  23.579  -1.506  0.00  0.00    -0.253 OA
ATOM     11  N   UNL     1     -36.522  23.615   0.818  0.00  0.00    -0.288 N 
ATOM     12  N   UNL     1     -35.095  22.409  -0.439  0.00  0.00    -0.288 N 
ATOM     13  C   UNL     1     -35.596  23.047   1.781  0.00  0.00    +0.102 C 
ATOM     14  C   UNL     1     -34.613  22.230   0.917  0.00  0.00    +0.103 C 
ATOM     15  C   UNL     1     -36.315  22.153   2.796  0.00  0.00    +0.067 C 
ATOM     16  C   UNL     1     -34.611  20.765   1.331  0.00  0.00    +0.079 C 
ATOM     17  C   UNL     1     -36.221  23.239  -0.496  0.00  0.00    +0.301 C 
ATOM     18  H   UNL     1     -37.277  24.198   1.061  0.00  0.00    +0.151 HD
ATOM     19  H   UNL     1     -34.679  21.995  -1.229  0.00  0.00    +0.151 HD
ENDBRANCH   8  15
ENDBRANCH   7   8
ENDBRANCH   6   7
ENDBRANCH   5   6
ENDBRANCH   3   5
BRANCH   2  20
ATOM     20  C   UNL     1     -39.402  24.843   3.185  0.00  0.00    +0.089 C 
BRANCH  20  21
ATOM     21  C   UNL     1     -40.586  25.740   3.536  0.00  0.00    +0.021 C 
BRANCH  21  22
ATOM     22  C   UNL     1     -41.349  26.214   2.296  0.00  0.00    +0.002 C 
BRANCH  22  23
ATOM     23  C   UNL     1     -42.777  26.639   2.655  0.00  0.00    +0.012 C 
BRANCH  23  24
ATOM     24  C   UNL     1     -42.964  28.156   2.611  0.00  0.00    +0.112 C 
BRANCH  24  26
ATOM     25  O   UNL     1     -42.015  28.820   4.750  0.00  0.00    -0.248 OA
ATOM     26  C   UNL     1     -42.968  28.796   3.982  0.00  0.00    +0.340 C 
BRANCH  26  27
ATOM     27  O   UNL     1     -44.192  29.365   4.200  0.00  0.00    -0.336 OA
BRANCH  27  30
ATOM     28  O   UNL     1     -45.437  27.653   6.140  0.00  0.00    -0.267 OA
ATOM     29  O   UNL     1     -43.587  31.831   5.541  0.00  0.00    -0.267 OA
ATOM     30  N   UNL     1     -44.392  29.649   5.569  0.00  0.00    -0.054 N 
ATOM     31  C   UNL     1     -44.995  29.387   7.768  0.00  0.00    +0.066 C 
ATOM     32  C   UNL     1     -44.380  30.774   7.570  0.00  0.00    +0.066 C 
ATOM     33  C   UNL     1     -44.990  28.758   6.401  0.00  0.00    +0.287 C 
ATOM     34  C   UNL     1     -44.061  30.855   6.101  0.00  0.00    +0.287 C 
ENDBRANCH  27  30
ENDBRANCH  26  27
ENDBRANCH  24  26
ENDBRANCH  23  24
ENDBRANCH  22  23
ENDBRANCH  21  22
ENDBRANCH  20  21
ENDBRANCH   2  20
TORSDOF 13
ENDMDL
MODEL 2
REMARK VINA RESULT:      -5.8      5.830      8.344
REMARK  Name = 5063989
REMARK  13 active torsions:
REMARK  status: ('A' for Active; 'I' for Inactive)
REMARK    1  A    between atoms: N_2  and  C_20
REMARK    2  A    between atoms: C_3  and  C_5
REMARK    3  A    between atoms: C_5  and  C_6
REMARK    4  A    between atoms: C_6  and  C_7
REMARK    5  A    between atoms: C_7  and  C_8
REMARK    6  A    between atoms: C_8  and  C_15
REMARK    7  A    between atoms: C_20  and  C_21
REMARK    8  A    between atoms: C_21  and  C_22
REMARK    9  A    between atoms: C_22  and  C_23
REMARK   10  A    between atoms: C_23  and  C_24
REMARK   11  A    between atoms: C_24  and  C_26
REMARK   12  A    between atoms: C_26  and  O_27
REMARK   13  A    between atoms: O_27  and  N_30
REMARK                            x       y       z     vdW  Elec       q    Type
REMARK                         _______ _______ _______ _____ _____    ______ ____
ROOT
ATOM      1  O   UNL     1     -37.133  23.527   1.079  0.00  0.00    -0.275 OA
ATOM      2  N   UNL     1     -37.338  23.151   3.359  0.00  0.00    -0.304 N 
ATOM      3  C   UNL     1     -37.036  22.788   2.055  0.00  0.00    +0.222 C 
ATOM      4  H   UNL     1     -37.229  22.487   4.077  0.00  0.00    +0.149 HD
ENDROOT
BRANCH   3   5
ATOM      5  C   UNL     1     -36.535  21.356   1.973  0.00  0.00    +0.085 C 
BRANCH   5   6
ATOM      6  C   UNL     1     -35.014  21.231   2.048  0.00  0.00    +0.010 C 
BRANCH   6   7
ATOM      7  C   UNL     1     -34.352  21.330   0.670  0.00  0.00    +0.001 C 
BRANCH   7   8
ATOM      8  C   UNL     1     -33.189  20.347   0.543  0.00  0.00    +0.013 C 
BRANCH   8  15
ATOM      9  S   UNL     1     -32.152  17.891   1.186  0.00  0.00    -0.138 S 
ATOM     10  O   UNL     1     -35.752  14.997   0.003  0.00  0.00    -0.253 OA
ATOM     11  N   UNL     1     -35.336  17.293   0.209  0.00  0.00    -0.288 N 
ATOM     12  N   UNL     1     -33.912  16.041  -1.005  0.00  0.00    -0.288 N 
ATOM     13  C   UNL     1     -34.347  18.244  -0.266  0.00  0.00    +0.102 C 
ATOM     14  C   UNL     1     -33.377  17.386  -1.106  0.00  0.00    +0.103 C 
ATOM     15  C   UNL     1     -33.616  18.926   0.896  0.00  0.00    +0.067 C 
ATOM     16  C   UNL     1     -31.958  17.476  -0.562  0.00  0.00    +0.079 C 
ATOM     17  C   UNL     1     -35.079  15.992  -0.234  0.00  0.00    +0.301 C 
ATOM     18  H   UNL     1     -36.101  17.538   0.778  0.00  0.00    +0.151 HD
ATOM     19  H   UNL     1     -33.501  15.254  -1.430  0.00  0.00    +0.151 HD
ENDBRANCH   8  15
ENDBRANCH   7   8
ENDBRANCH   6   7
ENDBRANCH   5   6
ENDBRANCH   3   5
BRANCH   2  20
ATOM     20  C   UNL     1     -37.811  24.473   3.696  0.00  0.00    +0.089 C 
BRANCH  20  21
ATOM     21  C   UNL     1     -36.825  25.241   4.572  0.00  0.00    +0.021 C 
BRANCH  21  22
ATOM     22  C   UNL     1     -35.810  24.321   5.256  0.00  0.00    +0.002 C 
BRANCH  22  23
ATOM     23  C   UNL     1     -34.409  24.944   5.254  0.00  0.00    +0.012 C 
BRANCH  23  24
ATOM     24  C   UNL     1     -34.015  25.488   3.880  0.00  0.00    +0.112 C 
BRANCH  24  26
ATOM     25  O   UNL     1     -34.563  27.856   3.785  0.00  0.00    -0.248 OA
ATOM     26  C   UNL     1     -33.722  26.973   3.889  0.00  0.00    +0.340 C 
BRANCH  26  27
ATOM     27  O   UNL     1     -32.379  27.157   4.064  0.00  0.00    -0.336 OA
BRANCH  27  30
ATOM     28  O   UNL     1     -31.811  29.878   3.343  0.00  0.00    -0.267 OA
ATOM     29  O   UNL     1     -32.140  26.992   6.921  0.00  0.00    -0.267 OA
ATOM     30  N   UNL     1     -32.116  28.226   4.949  0.00  0.00    -0.054 N 
ATOM     31  C   UNL     1     -31.670  30.344   5.713  0.00  0.00    +0.066 C 
ATOM     32  C   UNL     1     -31.779  29.386   6.901  0.00  0.00    +0.066 C 
ATOM     33  C   UNL     1     -31.865  29.481   4.495  0.00  0.00    +0.287 C 
ATOM     34  C   UNL     1     -32.030  28.033   6.291  0.00  0.00    +0.287 C 
ENDBRANCH  27  30
ENDBRANCH  26  27
ENDBRANCH  24  26
ENDBRANCH  23  24
ENDBRANCH  22  23
ENDBRANCH  21  22
ENDBRANCH  20  21
ENDBRANCH   2  20
TORSDOF 13
ENDMDL
MODEL 3
REMARK VINA RESULT:      -5.7      5.312      7.792
REMARK  Name = 5063989
REMARK  13 active torsions:
REMARK  status: ('A' for Active; 'I' for Inactive)
REMARK    1  A    between atoms: N_2  and  C_20
REMARK    2  A    between atoms: C_3  and  C_5
REMARK    3  A    between atoms: C_5  and  C_6
REMARK    4  A    between atoms: C_6  and  C_7
REMARK    5  A    between atoms: C_7  and  C_8
REMARK    6  A    between atoms: C_8  and  C_15
REMARK    7  A    between atoms: C_20  and  C_21
REMARK    8  A    between atoms: C_21  and  C_22
REMARK    9  A    between atoms: C_22  and  C_23
REMARK   10  A    between atoms: C_23  and  C_24
REMARK   11  A    between atoms: C_24  and  C_26
REMARK   12  A    between atoms: C_26  and  O_27
REMARK   13  A    between atoms: O_27  and  N_30
REMARK                            x       y       z     vdW  Elec       q    Type
REMARK                         _______ _______ _______ _____ _____    ______ ____
ROOT
ATOM      1  O   UNL     1     -38.091  25.580   3.524  0.00  0.00    -0.275 OA
ATOM      2  N   UNL     1     -36.277  26.928   3.002  0.00  0.00    -0.304 N 
ATOM      3  C   UNL     1     -36.998  26.061   3.809  0.00  0.00    +0.222 C 
ATOM      4  H   UNL     1     -35.407  27.263   3.318  0.00  0.00    +0.149 HD
ENDROOT
BRANCH   3   5
ATOM      5  C   UNL     1     -36.256  25.747   5.097  0.00  0.00    +0.085 C 
BRANCH   5   6
ATOM      6  C   UNL     1     -35.732  24.313   5.171  0.00  0.00    +0.010 C 
BRANCH   6   7
ATOM      7  C   UNL     1     -34.501  24.097   4.285  0.00  0.00    +0.001 C 
BRANCH   7   8
ATOM      8  C   UNL     1     -34.881  23.426   2.965  0.00  0.00    +0.013 C 
BRANCH   8  15
ATOM      9  S   UNL     1     -35.595  20.790   2.709  0.00  0.00    -0.138 S 
ATOM     10  O   UNL     1     -40.324  21.129   2.202  0.00  0.00    -0.253 OA
ATOM     11  N   UNL     1     -38.508  22.511   2.730  0.00  0.00    -0.288 N 
ATOM     12  N   UNL     1     -38.388  21.227   0.885  0.00  0.00    -0.288 N 
ATOM     13  C   UNL     1     -37.209  22.827   2.165  0.00  0.00    +0.102 C 
ATOM     14  C   UNL     1     -37.132  21.953   0.895  0.00  0.00    +0.103 C 
ATOM     15  C   UNL     1     -36.073  22.489   3.136  0.00  0.00    +0.067 C 
ATOM     16  C   UNL     1     -35.934  21.016   0.949  0.00  0.00    +0.079 C 
ATOM     17  C   UNL     1     -39.205  21.568   1.969  0.00  0.00    +0.301 C 
ATOM     18  H   UNL     1     -38.858  22.916   3.557  0.00  0.00    +0.151 HD
ATOM     19  H   UNL     1     -38.636  20.570   0.196  0.00  0.00    +0.151 HD
ENDBRANCH   8  15
ENDBRANCH   7   8
ENDBRANCH   6   7
ENDBRANCH   5   6
ENDBRANCH   3   5
BRANCH   2  20
ATOM     20  C   UNL     1     -36.763  27.358   1.712  0.00  0.00    +0.089 C 
BRANCH  20  21
ATOM     21  C   UNL     1     -35.644  27.509   0.686  0.00  0.00    +0.021 C 
BRANCH  21  22
ATOM     22  C   UNL     1     -34.613  26.380   0.773  0.00  0.00    +0.002 C 
BRANCH  22  23
ATOM     23  C   UNL     1     -33.185  26.926   0.661  0.00  0.00    +0.012 C 
BRANCH  23  24
ATOM     24  C   UNL     1     -32.858  27.935   1.762  0.00  0.00    +0.112 C 
BRANCH  24  26
ATOM     25  O   UNL     1     -31.895  26.363   3.348  0.00  0.00    -0.248 OA
ATOM     26  C   UNL     1     -32.655  27.294   3.118  0.00  0.00    +0.340 C 
BRANCH  26  27
ATOM     27  O   UNL     1     -33.430  27.946   4.036  0.00  0.00    -0.336 OA
BRANCH  27  30
ATOM     28  O   UNL     1     -32.605  30.665   3.617  0.00  0.00    -0.267 OA
ATOM     29  O   UNL     1     -32.208  27.080   6.486  0.00  0.00    -0.267 OA
ATOM     30  N   UNL     1     -32.645  28.732   4.908  0.00  0.00    -0.054 N 
ATOM     31  C   UNL     1     -31.517  30.534   5.774  0.00  0.00    +0.066 C 
ATOM     32  C   UNL     1     -31.385  29.344   6.727  0.00  0.00    +0.066 C 
ATOM     33  C   UNL     1     -32.318  30.016   4.610  0.00  0.00    +0.287 C 
ATOM     34  C   UNL     1     -32.119  28.217   6.050  0.00  0.00    +0.287 C 
ENDBRANCH  27  30
ENDBRANCH  26  27
ENDBRANCH  24  26
ENDBRANCH  23  24
ENDBRANCH  22  23
ENDBRANCH  21  22
ENDBRANCH  20  21
ENDBRANCH   2  20
TORSDOF 13
ENDMDL
MODEL 4
REMARK VINA RESULT:      -5.7      5.725     10.621
REMARK  Name = 5063989
REMARK  13 active torsions:
REMARK  status: ('A' for Active; 'I' for Inactive)
REMARK    1  A    between atoms: N_2  and  C_20
REMARK    2  A    between atoms: C_3  and  C_5
REMARK    3  A    between atoms: C_5  and  C_6
REMARK    4  A    between atoms: C_6  and  C_7
REMARK    5  A    between atoms: C_7  and  C_8
REMARK    6  A    between atoms: C_8  and  C_15
REMARK    7  A    between atoms: C_20  and  C_21
REMARK    8  A    between atoms: C_21  and  C_22
REMARK    9  A    between atoms: C_22  and  C_23
REMARK   10  A    between atoms: C_23  and  C_24
REMARK   11  A    between atoms: C_24  and  C_26
REMARK   12  A    between atoms: C_26  and  O_27
REMARK   13  A    between atoms: O_27  and  N_30
REMARK                            x       y       z     vdW  Elec       q    Type
REMARK                         _______ _______ _______ _____ _____    ______ ____
ROOT
ATOM      1  O   UNL     1     -35.013  29.204   1.189  0.00  0.00    -0.275 OA
ATOM      2  N   UNL     1     -35.150  28.712   3.451  0.00  0.00    -0.304 N 
ATOM      3  C   UNL     1     -35.219  29.549   2.349  0.00  0.00    +0.222 C 
ATOM      4  H   UNL     1     -35.332  29.083   4.345  0.00  0.00    +0.149 HD
ENDROOT
BRANCH   3   5
ATOM      5  C   UNL     1     -35.613  30.964   2.742  0.00  0.00    +0.085 C 
BRANCH   5   6
ATOM      6  C   UNL     1     -35.863  31.887   1.550  0.00  0.00    +0.010 C 
BRANCH   6   7
ATOM      7  C   UNL     1     -37.332  31.895   1.117  0.00  0.00    +0.001 C 
BRANCH   7   8
ATOM      8  C   UNL     1     -38.148  32.884   1.948  0.00  0.00    +0.013 C 
BRANCH   8  15
ATOM      9  S   UNL     1     -38.114  35.614   1.679  0.00  0.00    -0.138 S 
ATOM     10  O   UNL     1     -42.161  36.387  -0.720  0.00  0.00    -0.253 OA
ATOM     11  N   UNL     1     -40.838  34.577  -0.038  0.00  0.00    -0.288 N 
ATOM     12  N   UNL     1     -41.435  36.117   1.492  0.00  0.00    -0.288 N 
ATOM     13  C   UNL     1     -40.240  34.099   1.195  0.00  0.00    +0.102 C 
ATOM     14  C   UNL     1     -40.658  35.151   2.245  0.00  0.00    +0.103 C 
ATOM     15  C   UNL     1     -38.715  34.007   1.083  0.00  0.00    +0.067 C 
ATOM     16  C   UNL     1     -39.438  35.786   2.896  0.00  0.00    +0.079 C 
ATOM     17  C   UNL     1     -41.549  35.769   0.141  0.00  0.00    +0.301 C 
ATOM     18  H   UNL     1     -40.754  34.115  -0.903  0.00  0.00    +0.151 HD
ATOM     19  H   UNL     1     -41.835  36.925   1.886  0.00  0.00    +0.151 HD
ENDBRANCH   8  15
ENDBRANCH   7   8
ENDBRANCH   6   7
ENDBRANCH   5   6
ENDBRANCH   3   5
BRANCH   2  20
ATOM     20  C   UNL     1     -34.819  27.312   3.331  0.00  0.00    +0.089 C 
BRANCH  20  21
ATOM     21  C   UNL     1     -33.643  26.911   4.218  0.00  0.00    +0.021 C 
BRANCH  21  22
ATOM     22  C   UNL     1     -34.093  26.362   5.575  0.00  0.00    +0.002 C 
BRANCH  22  23
ATOM     23  C   UNL     1     -35.436  25.634   5.459  0.00  0.00    +0.012 C 
BRANCH  23  24
ATOM     24  C   UNL     1     -35.282  24.114   5.510  0.00  0.00    +0.112 C 
BRANCH  24  26
ATOM     25  O   UNL     1     -34.738  23.594   3.197  0.00  0.00    -0.248 OA
ATOM     26  C   UNL     1     -35.474  23.449   4.164  0.00  0.00    +0.340 C 
BRANCH  26  27
ATOM     27  O   UNL     1     -36.578  22.645   4.222  0.00  0.00    -0.336 OA
BRANCH  27  30
ATOM     28  O   UNL     1     -38.545  24.680   3.736  0.00  0.00    -0.267 OA
ATOM     29  O   UNL     1     -36.676  20.849   1.983  0.00  0.00    -0.267 OA
ATOM     30  N   UNL     1     -37.379  22.783   3.066  0.00  0.00    -0.054 N 
ATOM     31  C   UNL     1     -38.907  23.637   1.583  0.00  0.00    +0.066 C 
ATOM     32  C   UNL     1     -38.286  22.366   1.000  0.00  0.00    +0.066 C 
ATOM     33  C   UNL     1     -38.277  23.794   2.941  0.00  0.00    +0.287 C 
ATOM     34  C   UNL     1     -37.339  21.872   2.060  0.00  0.00    +0.287 C 
ENDBRANCH  27  30
ENDBRANCH  26  27
ENDBRANCH  24  26
ENDBRANCH  23  24
ENDBRANCH  22  23
ENDBRANCH  21  22
ENDBRANCH  20  21
ENDBRANCH   2  20
TORSDOF 13
ENDMDL
MODEL 5
REMARK VINA RESULT:      -5.7      2.582      4.325
REMARK  Name = 5063989
REMARK  13 active torsions:
REMARK  status: ('A' for Active; 'I' for Inactive)
REMARK    1  A    between atoms: N_2  and  C_20
REMARK    2  A    between atoms: C_3  and  C_5
REMARK    3  A    between atoms: C_5  and  C_6
REMARK    4  A    between atoms: C_6  and  C_7
REMARK    5  A    between atoms: C_7  and  C_8
REMARK    6  A    between atoms: C_8  and  C_15
REMARK    7  A    between atoms: C_20  and  C_21
REMARK    8  A    between atoms: C_21  and  C_22
REMARK    9  A    between atoms: C_22  and  C_23
REMARK   10  A    between atoms: C_23  and  C_24
REMARK   11  A    between atoms: C_24  and  C_26
REMARK   12  A    between atoms: C_26  and  O_27
REMARK   13  A    between atoms: O_27  and  N_30
REMARK                            x       y       z     vdW  Elec       q    Type
REMARK                         _______ _______ _______ _____ _____    ______ ____
ROOT
ATOM      1  O   UNL     1     -37.111  22.340   0.861  0.00  0.00    -0.275 OA
ATOM      2  N   UNL     1     -38.549  21.153   2.241  0.00  0.00    -0.304 N 
ATOM      3  C   UNL     1     -37.331  21.409   1.631  0.00  0.00    +0.222 C 
ATOM      4  H   UNL     1     -38.628  20.378   2.844  0.00  0.00    +0.149 HD
ENDROOT
BRANCH   3   5
ATOM      5  C   UNL     1     -36.270  20.404   2.051  0.00  0.00    +0.085 C 
BRANCH   5   6
ATOM      6  C   UNL     1     -35.099  21.026   2.808  0.00  0.00    +0.010 C 
BRANCH   6   7
ATOM      7  C   UNL     1     -35.234  20.867   4.325  0.00  0.00    +0.001 C 
BRANCH   7   8
ATOM      8  C   UNL     1     -35.368  22.224   5.015  0.00  0.00    +0.013 C 
BRANCH   8  15
ATOM      9  S   UNL     1     -34.111  24.611   4.519  0.00  0.00    -0.138 S 
ATOM     10  O   UNL     1     -37.271  26.782   1.682  0.00  0.00    -0.253 OA
ATOM     11  N   UNL     1     -36.925  24.672   2.641  0.00  0.00    -0.288 N 
ATOM     12  N   UNL     1     -36.849  26.488   3.969  0.00  0.00    -0.288 N 
ATOM     13  C   UNL     1     -36.663  24.131   3.962  0.00  0.00    +0.102 C 
ATOM     14  C   UNL     1     -36.621  25.377   4.873  0.00  0.00    +0.103 C 
ATOM     15  C   UNL     1     -35.334  23.370   4.007  0.00  0.00    +0.067 C 
ATOM     16  C   UNL     1     -35.279  25.488   5.583  0.00  0.00    +0.079 C 
ATOM     17  C   UNL     1     -37.039  26.066   2.648  0.00  0.00    +0.301 C 
ATOM     18  H   UNL     1     -37.013  24.119   1.831  0.00  0.00    +0.151 HD
ATOM     19  H   UNL     1     -36.867  27.430   4.252  0.00  0.00    +0.151 HD
ENDBRANCH   8  15
ENDBRANCH   7   8
ENDBRANCH   6   7
ENDBRANCH   5   6
ENDBRANCH   3   5
BRANCH   2  20
ATOM     20  C   UNL     1     -39.707  21.986   2.019  0.00  0.00    +0.089 C 
BRANCH  20  21
ATOM     21  C   UNL     1     -40.205  21.923   0.578  0.00  0.00    +0.021 C 
BRANCH  21  22
ATOM     22  C   UNL     1     -40.754  23.267   0.089  0.00  0.00    +0.002 C 
BRANCH  22  23
ATOM     23  C   UNL     1     -39.830  24.421   0.491  0.00  0.00    +0.012 C 
BRANCH  23  24
ATOM     24  C   UNL     1     -40.573  25.753   0.599  0.00  0.00    +0.112 C 
BRANCH  24  26
ATOM     25  O   UNL     1     -40.410  25.595   3.021  0.00  0.00    -0.248 OA
ATOM     26  C   UNL     1     -40.815  26.186   2.029  0.00  0.00    +0.340 C 
BRANCH  26  27
ATOM     27  O   UNL     1     -41.526  27.354   2.022  0.00  0.00    -0.336 OA
BRANCH  27  30
ATOM     28  O   UNL     1     -43.949  25.938   1.408  0.00  0.00    -0.267 OA
ATOM     29  O   UNL     1     -41.959  28.684   4.530  0.00  0.00    -0.267 OA
ATOM     30  N   UNL     1     -42.677  27.261   2.836  0.00  0.00    -0.054 N 
ATOM     31  C   UNL     1     -44.766  26.655   3.570  0.00  0.00    +0.066 C 
ATOM     32  C   UNL     1     -44.105  27.566   4.607  0.00  0.00    +0.066 C 
ATOM     33  C   UNL     1     -43.770  26.556   2.446  0.00  0.00    +0.287 C 
ATOM     34  C   UNL     1     -42.771  27.933   4.013  0.00  0.00    +0.287 C 
ENDBRANCH  27  30
ENDBRANCH  26  27
ENDBRANCH  24  26
ENDBRANCH  23  24
ENDBRANCH  22  23
ENDBRANCH  21  22
ENDBRANCH  20  21
ENDBRANCH   2  20
TORSDOF 13
ENDMDL
MODEL 6
REMARK VINA RESULT:      -5.7      4.126      8.792
REMARK  Name = 5063989
REMARK  13 active torsions:
REMARK  status: ('A' for Active; 'I' for Inactive)
REMARK    1  A    between atoms: N_2  and  C_20
REMARK    2  A    between atoms: C_3  and  C_5
REMARK    3  A    between atoms: C_5  and  C_6
REMARK    4  A    between atoms: C_6  and  C_7
REMARK    5  A    between atoms: C_7  and  C_8
REMARK    6  A    between atoms: C_8  and  C_15
REMARK    7  A    between atoms: C_20  and  C_21
REMARK    8  A    between atoms: C_21  and  C_22
REMARK    9  A    between atoms: C_22  and  C_23
REMARK   10  A    between atoms: C_23  and  C_24
REMARK   11  A    between atoms: C_24  and  C_26
REMARK   12  A    between atoms: C_26  and  O_27
REMARK   13  A    between atoms: O_27  and  N_30
REMARK                            x       y       z     vdW  Elec       q    Type
REMARK                         _______ _______ _______ _____ _____    ______ ____
ROOT
ATOM      1  O   UNL     1     -34.814  19.933   2.695  0.00  0.00    -0.275 OA
ATOM      2  N   UNL     1     -35.810  21.698   3.823  0.00  0.00    -0.304 N 
ATOM      3  C   UNL     1     -35.557  20.910   2.710  0.00  0.00    +0.222 C 
ATOM      4  H   UNL     1     -36.423  22.463   3.736  0.00  0.00    +0.149 HD
ENDROOT
BRANCH   3   5
ATOM      5  C   UNL     1     -36.340  21.384   1.497  0.00  0.00    +0.085 C 
BRANCH   5   6
ATOM      6  C   UNL     1     -35.609  22.438   0.667  0.00  0.00    +0.010 C 
BRANCH   6   7
ATOM      7  C   UNL     1     -36.266  23.818   0.767  0.00  0.00    +0.001 C 
BRANCH   7   8
ATOM      8  C   UNL     1     -37.787  23.716   0.661  0.00  0.00    +0.013 C 
BRANCH   8  15
ATOM      9  S   UNL     1     -37.489  25.956   2.216  0.00  0.00    -0.138 S 
ATOM     10  O   UNL     1     -41.972  27.566   2.437  0.00  0.00    -0.253 OA
ATOM     11  N   UNL     1     -40.745  25.929   1.296  0.00  0.00    -0.288 N 
ATOM     12  N   UNL     1     -40.581  26.034   3.538  0.00  0.00    -0.288 N 
ATOM     13  C   UNL     1     -39.832  24.852   1.634  0.00  0.00    +0.102 C 
ATOM     14  C   UNL     1     -39.729  24.919   3.173  0.00  0.00    +0.103 C 
ATOM     15  C   UNL     1     -38.460  25.048   0.979  0.00  0.00    +0.067 C 
ATOM     16  C   UNL     1     -38.288  25.136   3.613  0.00  0.00    +0.079 C 
ATOM     17  C   UNL     1     -41.190  26.624   2.425  0.00  0.00    +0.301 C 
ATOM     18  H   UNL     1     -41.019  26.145   0.375  0.00  0.00    +0.151 HD
ATOM     19  H   UNL     1     -40.715  26.341   4.464  0.00  0.00    +0.151 HD
ENDBRANCH   8  15
ENDBRANCH   7   8
ENDBRANCH   6   7
ENDBRANCH   5   6
ENDBRANCH   3   5
BRANCH   2  20
ATOM     20  C   UNL     1     -35.201  21.432   5.105  0.00  0.00    +0.089 C 
BRANCH  20  21
ATOM     21  C   UNL     1     -34.954  22.704   5.910  0.00  0.00    +0.021 C 
BRANCH  21  22
ATOM     22  C   UNL     1     -35.772  23.892   5.396  0.00  0.00    +0.002 C 
BRANCH  22  23
ATOM     23  C   UNL     1     -35.190  25.220   5.891  0.00  0.00    +0.012 C 
BRANCH  23  24
ATOM     24  C   UNL     1     -34.101  25.762   4.964  0.00  0.00    +0.112 C 
BRANCH  24  26
ATOM     25  O   UNL     1     -33.239  27.073   6.822  0.00  0.00    -0.248 OA
ATOM     26  C   UNL     1     -33.174  26.745   5.645  0.00  0.00    +0.340 C 
BRANCH  26  27
ATOM     27  O   UNL     1     -32.244  27.174   4.740  0.00  0.00    -0.336 OA
BRANCH  27  30
ATOM     28  O   UNL     1     -33.309  29.734   3.992  0.00  0.00    -0.267 OA
ATOM     29  O   UNL     1     -29.824  27.681   6.202  0.00  0.00    -0.267 OA
ATOM     30  N   UNL     1     -31.724  28.439   5.095  0.00  0.00    -0.054 N 
ATOM     31  C   UNL     1     -31.512  30.717   5.280  0.00  0.00    +0.066 C 
ATOM     32  C   UNL     1     -30.355  30.036   6.015  0.00  0.00    +0.066 C 
ATOM     33  C   UNL     1     -32.316  29.591   4.688  0.00  0.00    +0.287 C 
ATOM     34  C   UNL     1     -30.568  28.561   5.797  0.00  0.00    +0.287 C 
ENDBRANCH  27  30
ENDBRANCH  26  27
ENDBRANCH  24  26
ENDBRANCH  23  24
ENDBRANCH  22  23
ENDBRANCH  21  22
ENDBRANCH  20  21
ENDBRANCH   2  20
TORSDOF 13
ENDMDL
MODEL 7
REMARK VINA RESULT:      -5.7      6.128      8.360
REMARK  Name = 5063989
REMARK  13 active torsions:
REMARK  status: ('A' for Active; 'I' for Inactive)
REMARK    1  A    between atoms: N_2  and  C_20
REMARK    2  A    between atoms: C_3  and  C_5
REMARK    3  A    between atoms: C_5  and  C_6
REMARK    4  A    between atoms: C_6  and  C_7
REMARK    5  A    between atoms: C_7  and  C_8
REMARK    6  A    between atoms: C_8  and  C_15
REMARK    7  A    between atoms: C_20  and  C_21
REMARK    8  A    between atoms: C_21  and  C_22
REMARK    9  A    between atoms: C_22  and  C_23
REMARK   10  A    between atoms: C_23  and  C_24
REMARK   11  A    between atoms: C_24  and  C_26
REMARK   12  A    between atoms: C_26  and  O_27
REMARK   13  A    between atoms: O_27  and  N_30
REMARK                            x       y       z     vdW  Elec       q    Type
REMARK                         _______ _______ _______ _____ _____    ______ ____
ROOT
ATOM      1  O   UNL     1     -35.642  26.193   0.232  0.00  0.00    -0.275 OA
ATOM      2  N   UNL     1     -34.962  24.997   2.100  0.00  0.00    -0.304 N 
ATOM      3  C   UNL     1     -35.314  25.137   0.766  0.00  0.00    +0.222 C 
ATOM      4  H   UNL     1     -34.714  24.106   2.436  0.00  0.00    +0.149 HD
ENDROOT
BRANCH   3   5
ATOM      5  C   UNL     1     -35.219  23.817   0.018  0.00  0.00    +0.085 C 
BRANCH   5   6
ATOM      6  C   UNL     1     -33.823  23.197   0.040  0.00  0.00    +0.010 C 
BRANCH   6   7
ATOM      7  C   UNL     1     -33.836  21.718  -0.358  0.00  0.00    +0.001 C 
BRANCH   7   8
ATOM      8  C   UNL     1     -32.465  21.076  -0.149  0.00  0.00    +0.013 C 
BRANCH   8  15
ATOM      9  S   UNL     1     -31.275  18.681  -0.755  0.00  0.00    -0.138 S 
ATOM     10  O   UNL     1     -34.833  15.614   0.069  0.00  0.00    -0.253 OA
ATOM     11  N   UNL     1     -34.362  17.888   0.383  0.00  0.00    -0.288 N 
ATOM     12  N   UNL     1     -34.041  16.989  -1.656  0.00  0.00    -0.288 N 
ATOM     13  C   UNL     1     -33.890  19.000  -0.423  0.00  0.00    +0.102 C 
ATOM     14  C   UNL     1     -33.680  18.384  -1.822  0.00  0.00    +0.103 C 
ATOM     15  C   UNL     1     -32.583  19.580   0.127  0.00  0.00    +0.067 C 
ATOM     16  C   UNL     1     -32.237  18.548  -2.279  0.00  0.00    +0.079 C 
ATOM     17  C   UNL     1     -34.454  16.700  -0.351  0.00  0.00    +0.301 C 
ATOM     18  H   UNL     1     -34.591  17.961   1.338  0.00  0.00    +0.151 HD
ATOM     19  H   UNL     1     -33.999  16.322  -2.378  0.00  0.00    +0.151 HD
ENDBRANCH   8  15
ENDBRANCH   7   8
ENDBRANCH   6   7
ENDBRANCH   5   6
ENDBRANCH   3   5
BRANCH   2  20
ATOM     20  C   UNL     1     -34.951  26.116   3.011  0.00  0.00    +0.089 C 
BRANCH  20  21
ATOM     21  C   UNL     1     -36.069  26.039   4.047  0.00  0.00    +0.021 C 
BRANCH  21  22
ATOM     22  C   UNL     1     -35.536  25.881   5.473  0.00  0.00    +0.002 C 
BRANCH  22  23
ATOM     23  C   UNL     1     -34.709  24.599   5.616  0.00  0.00    +0.012 C 
BRANCH  23  24
ATOM     24  C   UNL     1     -35.562  23.394   6.015  0.00  0.00    +0.112 C 
BRANCH  24  26
ATOM     25  O   UNL     1     -35.232  21.017   5.623  0.00  0.00    -0.248 OA
ATOM     26  C   UNL     1     -35.275  22.160   5.188  0.00  0.00    +0.340 C 
BRANCH  26  27
ATOM     27  O   UNL     1     -35.106  22.531   3.883  0.00  0.00    -0.336 OA
BRANCH  27  30
ATOM     28  O   UNL     1     -37.759  23.420   3.235  0.00  0.00    -0.267 OA
ATOM     29  O   UNL     1     -34.759  19.976   2.619  0.00  0.00    -0.267 OA
ATOM     30  N   UNL     1     -36.030  21.878   3.037  0.00  0.00    -0.054 N 
ATOM     31  C   UNL     1     -37.939  21.454   1.836  0.00  0.00    +0.066 C 
ATOM     32  C   UNL     1     -36.943  20.311   1.631  0.00  0.00    +0.066 C 
ATOM     33  C   UNL     1     -37.262  22.395   2.796  0.00  0.00    +0.287 C 
ATOM     34  C   UNL     1     -35.756  20.667   2.486  0.00  0.00    +0.287 C 
ENDBRANCH  27  30
ENDBRANCH  26  27
ENDBRANCH  24  26
ENDBRANCH  23  24
ENDBRANCH  22  23
ENDBRANCH  21  22
ENDBRANCH  20  21
ENDBRANCH   2  20
TORSDOF 13
ENDMDL
MODEL 8
REMARK VINA RESULT:      -5.6      6.884      9.035
REMARK  Name = 5063989
REMARK  13 active torsions:
REMARK  status: ('A' for Active; 'I' for Inactive)
REMARK    1  A    between atoms: N_2  and  C_20
REMARK    2  A    between atoms: C_3  and  C_5
REMARK    3  A    between atoms: C_5  and  C_6
REMARK    4  A    between atoms: C_6  and  C_7
REMARK    5  A    between atoms: C_7  and  C_8
REMARK    6  A    between atoms: C_8  and  C_15
REMARK    7  A    between atoms: C_20  and  C_21
REMARK    8  A    between atoms: C_21  and  C_22
REMARK    9  A    between atoms: C_22  and  C_23
REMARK   10  A    between atoms: C_23  and  C_24
REMARK   11  A    between atoms: C_24  and  C_26
REMARK   12  A    between atoms: C_26  and  O_27
REMARK   13  A    between atoms: O_27  and  N_30
REMARK                            x       y       z     vdW  Elec       q    Type
REMARK                         _______ _______ _______ _____ _____    ______ ____
ROOT
ATOM      1  O   UNL     1     -34.840  22.794   1.840  0.00  0.00    -0.275 OA
ATOM      2  N   UNL     1     -36.177  21.797   3.452  0.00  0.00    -0.304 N 
ATOM      3  C   UNL     1     -35.437  21.815   2.280  0.00  0.00    +0.222 C 
ATOM      4  H   UNL     1     -36.622  20.962   3.723  0.00  0.00    +0.149 HD
ENDROOT
BRANCH   3   5
ATOM      5  C   UNL     1     -35.425  20.455   1.603  0.00  0.00    +0.085 C 
BRANCH   5   6
ATOM      6  C   UNL     1     -34.142  19.660   1.842  0.00  0.00    +0.010 C 
BRANCH   6   7
ATOM      7  C   UNL     1     -33.224  19.653   0.616  0.00  0.00    +0.001 C 
BRANCH   7   8
ATOM      8  C   UNL     1     -32.116  18.610   0.759  0.00  0.00    +0.013 C 
BRANCH   8  15
ATOM      9  S   UNL     1     -31.450  16.156  -0.269  0.00  0.00    -0.138 S 
ATOM     10  O   UNL     1     -35.746  14.174  -0.864  0.00  0.00    -0.253 OA
ATOM     11  N   UNL     1     -34.811  16.086   0.115  0.00  0.00    -0.288 N 
ATOM     12  N   UNL     1     -34.271  15.587  -2.012  0.00  0.00    -0.288 N 
ATOM     13  C   UNL     1     -33.910  17.154  -0.280  0.00  0.00    +0.102 C 
ATOM     14  C   UNL     1     -33.549  16.816  -1.742  0.00  0.00    +0.103 C 
ATOM     15  C   UNL     1     -32.659  17.192   0.604  0.00  0.00    +0.067 C 
ATOM     16  C   UNL     1     -32.046  16.640  -1.905  0.00  0.00    +0.079 C 
ATOM     17  C   UNL     1     -35.026  15.163  -0.914  0.00  0.00    +0.301 C 
ATOM     18  H   UNL     1     -35.224  16.019   1.007  0.00  0.00    +0.151 HD
ATOM     19  H   UNL     1     -34.233  15.107  -2.871  0.00  0.00    +0.151 HD
ENDBRANCH   8  15
ENDBRANCH   7   8
ENDBRANCH   6   7
ENDBRANCH   5   6
ENDBRANCH   3   5
BRANCH   2  20
ATOM     20  C   UNL     1     -36.318  22.966   4.288  0.00  0.00    +0.089 C 
BRANCH  20  21
ATOM     21  C   UNL     1     -35.417  22.917   5.519  0.00  0.00    +0.021 C 
BRANCH  21  22
ATOM     22  C   UNL     1     -34.529  24.158   5.645  0.00  0.00    +0.002 C 
BRANCH  22  23
ATOM     23  C   UNL     1     -35.319  25.436   5.346  0.00  0.00    +0.012 C 
BRANCH  23  24
ATOM     24  C   UNL     1     -34.460  26.512   4.682  0.00  0.00    +0.112 C 
BRANCH  24  26
ATOM     25  O   UNL     1     -33.261  26.952   6.752  0.00  0.00    -0.248 OA
ATOM     26  C   UNL     1     -33.281  26.941   5.528  0.00  0.00    +0.340 C 
BRANCH  26  27
ATOM     27  O   UNL     1     -32.244  27.278   4.703  0.00  0.00    -0.336 OA
BRANCH  27  30
ATOM     28  O   UNL     1     -29.863  27.564   6.283  0.00  0.00    -0.267 OA
ATOM     29  O   UNL     1     -33.253  29.928   4.243  0.00  0.00    -0.267 OA
ATOM     30  N   UNL     1     -31.640  28.491   5.105  0.00  0.00    -0.054 N 
ATOM     31  C   UNL     1     -30.146  29.955   6.048  0.00  0.00    +0.066 C 
ATOM     32  C   UNL     1     -31.271  30.740   5.370  0.00  0.00    +0.066 C 
ATOM     33  C   UNL     1     -30.505  28.507   5.850  0.00  0.00    +0.287 C 
ATOM     34  C   UNL     1     -32.206  29.694   4.825  0.00  0.00    +0.287 C 
ENDBRANCH  27  30
ENDBRANCH  26  27
ENDBRANCH  24  26
ENDBRANCH  23  24
ENDBRANCH  22  23
ENDBRANCH  21  22
ENDBRANCH  20  21
ENDBRANCH   2  20
TORSDOF 13
ENDMDL
MODEL 9
REMARK VINA RESULT:      -5.5      7.030      9.103
REMARK  Name = 5063989
REMARK  13 active torsions:
REMARK  status: ('A' for Active; 'I' for Inactive)
REMARK    1  A    between atoms: N_2  and  C_20
REMARK    2  A    between atoms: C_3  and  C_5
REMARK    3  A    between atoms: C_5  and  C_6
REMARK    4  A    between atoms: C_6  and  C_7
REMARK    5  A    between atoms: C_7  and  C_8
REMARK    6  A    between atoms: C_8  and  C_15
REMARK    7  A    between atoms: C_20  and  C_21
REMARK    8  A    between atoms: C_21  and  C_22
REMARK    9  A    between atoms: C_22  and  C_23
REMARK   10  A    between atoms: C_23  and  C_24
REMARK   11  A    between atoms: C_24  and  C_26
REMARK   12  A    between atoms: C_26  and  O_27
REMARK   13  A    between atoms: O_27  and  N_30
REMARK                            x       y       z     vdW  Elec       q    Type
REMARK                         _______ _______ _______ _____ _____    ______ ____
ROOT
ATOM      1  O   UNL     1     -34.859  20.026   2.848  0.00  0.00    -0.275 OA
ATOM      2  N   UNL     1     -36.012  21.685   3.988  0.00  0.00    -0.304 N 
ATOM      3  C   UNL     1     -35.746  20.874   2.895  0.00  0.00    +0.222 C 
ATOM      4  H   UNL     1     -36.747  22.337   3.930  0.00  0.00    +0.149 HD
ENDROOT
BRANCH   3   5
ATOM      5  C   UNL     1     -36.711  21.138   1.752  0.00  0.00    +0.085 C 
BRANCH   5   6
ATOM      6  C   UNL     1     -36.318  20.453   0.444  0.00  0.00    +0.010 C 
BRANCH   6   7
ATOM      7  C   UNL     1     -37.494  19.716  -0.204  0.00  0.00    +0.001 C 
BRANCH   7   8
ATOM      8  C   UNL     1     -37.007  18.633  -1.166  0.00  0.00    +0.013 C 
BRANCH   8  15
ATOM      9  S   UNL     1     -34.709  18.310  -2.629  0.00  0.00    -0.138 S 
ATOM     10  O   UNL     1     -31.972  15.874   0.423  0.00  0.00    -0.253 OA
ATOM     11  N   UNL     1     -34.029  16.995   0.414  0.00  0.00    -0.288 N 
ATOM     12  N   UNL     1     -33.623  15.469  -1.190  0.00  0.00    -0.288 N 
ATOM     13  C   UNL     1     -35.241  16.993  -0.385  0.00  0.00    +0.102 C 
ATOM     14  C   UNL     1     -34.965  15.939  -1.478  0.00  0.00    +0.103 C 
ATOM     15  C   UNL     1     -35.513  18.369  -1.001  0.00  0.00    +0.067 C 
ATOM     16  C   UNL     1     -35.065  16.555  -2.867  0.00  0.00    +0.079 C 
ATOM     17  C   UNL     1     -33.075  16.089  -0.062  0.00  0.00    +0.301 C 
ATOM     18  H   UNL     1     -33.894  17.570   1.202  0.00  0.00    +0.151 HD
ATOM     19  H   UNL     1     -33.152  14.792  -1.727  0.00  0.00    +0.151 HD
ENDBRANCH   8  15
ENDBRANCH   7   8
ENDBRANCH   6   7
ENDBRANCH   5   6
ENDBRANCH   3   5
BRANCH   2  20
ATOM     20  C   UNL     1     -35.245  21.603   5.209  0.00  0.00    +0.089 C 
BRANCH  20  21
ATOM     21  C   UNL     1     -35.278  22.902   6.009  0.00  0.00    +0.021 C 
BRANCH  21  22
ATOM     22  C   UNL     1     -35.655  24.111   5.148  0.00  0.00    +0.002 C 
BRANCH  22  23
ATOM     23  C   UNL     1     -35.241  25.422   5.824  0.00  0.00    +0.012 C 
BRANCH  23  24
ATOM     24  C   UNL     1     -34.342  26.280   4.933  0.00  0.00    +0.112 C 
BRANCH  24  26
ATOM     25  O   UNL     1     -33.128  27.036   6.901  0.00  0.00    -0.248 OA
ATOM     26  C   UNL     1     -33.194  26.919   5.684  0.00  0.00    +0.340 C 
BRANCH  26  27
ATOM     27  O   UNL     1     -32.241  27.309   4.785  0.00  0.00    -0.336 OA
BRANCH  27  30
ATOM     28  O   UNL     1     -33.225  29.951   4.238  0.00  0.00    -0.267 OA
ATOM     29  O   UNL     1     -29.713  27.627   6.110  0.00  0.00    -0.267 OA
ATOM     30  N   UNL     1     -31.639  28.529   5.169  0.00  0.00    -0.054 N 
ATOM     31  C   UNL     1     -31.305  30.781   5.455  0.00  0.00    +0.066 C 
ATOM     32  C   UNL     1     -30.139  30.010   6.077  0.00  0.00    +0.066 C 
ATOM     33  C   UNL     1     -32.199  29.726   4.860  0.00  0.00    +0.287 C 
ATOM     34  C   UNL     1     -30.437  28.560   5.800  0.00  0.00    +0.287 C 
ENDBRANCH  27  30
ENDBRANCH  26  27
ENDBRANCH  24  26
ENDBRANCH  23  24
ENDBRANCH  22  23
ENDBRANCH  21  22
ENDBRANCH  20  21
ENDBRANCH   2  20
TORSDOF 13
ENDMDL
