MODEL 1
REMARK VINA RESULT:      -7.3      0.000      0.000
REMARK  Name = 21579199
REMARK  4 active torsions:
REMARK  status: ('A' for Active; 'I' for Inactive)
REMARK    1  A    between atoms: C_10  and  C_34
REMARK    2  A    between atoms: C_15  and  O_31
REMARK    3  A    between atoms: C_29  and  O_37
REMARK    4  A    between atoms: C_34  and  O_35
REMARK                            x       y       z     vdW  Elec       q    Type
REMARK                         _______ _______ _______ _____ _____    ______ ____
ROOT
ATOM      1  O   UNL     1     -35.124  16.967  -3.536  0.00  0.00    -0.294 OA
ATOM      2  O   UNL     1     -35.950  27.346   2.219  0.00  0.00    -0.283 OA
ATOM      3  C   UNL     1     -37.014  18.992  -1.222  0.00  0.00    +0.011 C 
ATOM      4  C   UNL     1     -36.909  20.193  -0.164  0.00  0.00    +0.018 C 
ATOM      5  C   UNL     1     -35.622  18.406  -1.630  0.00  0.00    +0.058 C 
ATOM      6  C   UNL     1     -37.959  17.848  -0.740  0.00  0.00    +0.014 C 
ATOM      7  C   UNL     1     -35.662  20.115   0.734  0.00  0.00    -0.034 C 
ATOM      8  C   UNL     1     -36.854  21.551  -0.930  0.00  0.00    +0.005 C 
ATOM      9  C   UNL     1     -34.835  18.019  -0.363  0.00  0.00    +0.029 C 
ATOM     10  C   UNL     1     -38.120  16.678  -1.728  0.00  0.00    +0.121 C 
ATOM     11  C   UNL     1     -35.469  22.649   0.994  0.00  0.00    +0.037 C 
ATOM     12  C   UNL     1     -36.640  22.779  -0.028  0.00  0.00    +0.008 C 
ATOM     13  C   UNL     1     -34.733  19.132   0.656  0.00  0.00    -0.048 C 
ATOM     14  C   UNL     1     -35.784  17.143  -2.510  0.00  0.00    +0.177 C 
ATOM     15  C   UNL     1     -36.750  16.071  -2.033  0.00  0.00    +0.177 C 
ATOM     16  C   UNL     1     -35.541  21.262   1.643  0.00  0.00    -0.024 C 
ATOM     17  C   UNL     1     -38.181  20.236   0.741  0.00  0.00    +0.004 C 
ATOM     18  C   UNL     1     -34.788  19.411  -2.460  0.00  0.00    +0.008 C 
ATOM     19  C   UNL     1     -38.887  17.107  -2.990  0.00  0.00    +0.014 C 
ATOM     20  C   UNL     1     -35.552  23.802   2.033  0.00  0.00    -0.016 C 
ATOM     21  C   UNL     1     -34.106  22.780   0.271  0.00  0.00    +0.009 C 
ATOM     22  C   UNL     1     -33.484  19.044   1.500  0.00  0.00    +0.026 C 
ATOM     23  C   UNL     1     -35.574  21.103   2.975  0.00  0.00    -0.004 C 
ATOM     24  C   UNL     1     -35.481  23.509   3.478  0.00  0.00    -0.005 C 
ATOM     25  C   UNL     1     -35.490  22.220   3.876  0.00  0.00    -0.001 C 
ATOM     26  C   UNL     1     -35.689  25.083   1.642  0.00  0.00    +0.041 C 
ATOM     27  C   UNL     1     -35.402  24.615   4.467  0.00  0.00    +0.015 C 
ATOM     28  C   UNL     1     -35.756  26.198   2.610  0.00  0.00    +0.228 C 
ATOM     29  C   UNL     1     -35.562  25.893   4.054  0.00  0.00    +0.169 C 
ATOM     30  C   UNL     1     -35.123  24.258   5.910  0.00  0.00    +0.034 C 
ENDROOT
BRANCH  15  31
ATOM     31  O   UNL     1     -36.832  15.043  -3.009  0.00  0.00    -0.377 OA
ATOM     32  H   UNL     1     -37.686  14.590  -2.932  0.00  0.00    +0.211 HD
ENDBRANCH  15  31
BRANCH  10  34
ATOM     33  O   UNL     1     -38.563  14.509  -0.750  0.00  0.00    -0.250 OA
ATOM     34  C   UNL     1     -38.957  15.636  -1.023  0.00  0.00    +0.319 C 
BRANCH  34  35
ATOM     35  O   UNL     1     -40.190  16.149  -0.750  0.00  0.00    -0.444 OA
ATOM     36  C   UNL     1     -41.264  15.203  -0.750  0.00  0.00    +0.256 C 
ENDBRANCH  34  35
ENDBRANCH  10  34
BRANCH  29  37
ATOM     37  O   UNL     1     -35.562  27.000   4.875  0.00  0.00    -0.503 OA
ATOM     38  H   UNL     1     -35.468  27.856   4.506  0.00  0.00    +0.292 HD
ENDBRANCH  29  37
TORSDOF 4
ENDMDL
MODEL 2
REMARK VINA RESULT:      -6.9      2.271      9.401
REMARK  Name = 21579199
REMARK  4 active torsions:
REMARK  status: ('A' for Active; 'I' for Inactive)
REMARK    1  A    between atoms: C_10  and  C_34
REMARK    2  A    between atoms: C_15  and  O_31
REMARK    3  A    between atoms: C_29  and  O_37
REMARK    4  A    between atoms: C_34  and  O_35
REMARK                            x       y       z     vdW  Elec       q    Type
REMARK                         _______ _______ _______ _____ _____    ______ ____
ROOT
ATOM      1  O   UNL     1     -35.485  26.947   5.271  0.00  0.00    -0.294 OA
ATOM      2  O   UNL     1     -40.423  19.147  -2.232  0.00  0.00    -0.283 OA
ATOM      3  C   UNL     1     -35.156  25.108   2.183  0.00  0.00    +0.011 C 
ATOM      4  C   UNL     1     -35.625  23.786   1.404  0.00  0.00    +0.018 C 
ATOM      5  C   UNL     1     -35.481  25.069   3.713  0.00  0.00    +0.058 C 
ATOM      6  C   UNL     1     -33.646  25.431   1.961  0.00  0.00    +0.014 C 
ATOM      7  C   UNL     1     -35.660  22.530   2.291  0.00  0.00    -0.034 C 
ATOM      8  C   UNL     1     -37.062  24.005   0.838  0.00  0.00    +0.005 C 
ATOM      9  C   UNL     1     -34.908  23.778   4.329  0.00  0.00    +0.029 C 
ATOM     10  C   UNL     1     -33.144  26.706   2.664  0.00  0.00    +0.121 C 
ATOM     11  C   UNL     1     -37.576  21.448   0.992  0.00  0.00    +0.037 C 
ATOM     12  C   UNL     1     -37.672  22.764   0.162  0.00  0.00    +0.008 C 
ATOM     13  C   UNL     1     -35.327  22.519   3.603  0.00  0.00    -0.048 C 
ATOM     14  C   UNL     1     -34.855  26.280   4.447  0.00  0.00    +0.177 C 
ATOM     15  C   UNL     1     -33.395  26.595   4.169  0.00  0.00    +0.177 C 
ATOM     16  C   UNL     1     -36.165  21.346   1.582  0.00  0.00    -0.024 C 
ATOM     17  C   UNL     1     -34.695  23.515   0.180  0.00  0.00    +0.004 C 
ATOM     18  C   UNL     1     -37.002  25.133   3.987  0.00  0.00    +0.008 C 
ATOM     19  C   UNL     1     -33.755  27.971   2.041  0.00  0.00    +0.014 C 
ATOM     20  C   UNL     1     -37.939  20.234   0.091  0.00  0.00    -0.016 C 
ATOM     21  C   UNL     1     -38.593  21.471   2.160  0.00  0.00    +0.009 C 
ATOM     22  C   UNL     1     -35.381  21.310   4.507  0.00  0.00    +0.026 C 
ATOM     23  C   UNL     1     -35.395  20.263   1.395  0.00  0.00    -0.004 C 
ATOM     24  C   UNL     1     -37.054  19.053   0.041  0.00  0.00    -0.005 C 
ATOM     25  C   UNL     1     -35.865  19.111   0.675  0.00  0.00    -0.001 C 
ATOM     26  C   UNL     1     -39.057  20.232  -0.657  0.00  0.00    +0.041 C 
ATOM     27  C   UNL     1     -37.472  17.831  -0.693  0.00  0.00    +0.015 C 
ATOM     28  C   UNL     1     -39.430  19.085  -1.511  0.00  0.00    +0.228 C 
ATOM     29  C   UNL     1     -38.589  17.859  -1.454  0.00  0.00    +0.169 C 
ATOM     30  C   UNL     1     -36.626  16.587  -0.538  0.00  0.00    +0.034 C 
ENDROOT
BRANCH  15  31
ATOM     31  O   UNL     1     -33.030  27.783   4.856  0.00  0.00    -0.377 OA
ATOM     32  H   UNL     1     -32.184  28.110   4.511  0.00  0.00    +0.211 HD
ENDBRANCH  15  31
BRANCH  10  34
ATOM     33  O   UNL     1     -30.963  25.787   2.163  0.00  0.00    -0.250 OA
ATOM     34  C   UNL     1     -31.652  26.762   2.432  0.00  0.00    +0.319 C 
BRANCH  34  35
ATOM     35  O   UNL     1     -31.217  28.047   2.570  0.00  0.00    -0.444 OA
ATOM     36  C   UNL     1     -29.924  28.198   3.165  0.00  0.00    +0.256 C 
ENDBRANCH  34  35
ENDBRANCH  10  34
BRANCH  29  37
ATOM     37  O   UNL     1     -39.054  16.813  -2.223  0.00  0.00    -0.503 OA
ATOM     38  H   UNL     1     -38.666  16.636  -3.056  0.00  0.00    +0.292 HD
ENDBRANCH  29  37
TORSDOF 4
ENDMDL
MODEL 3
REMARK VINA RESULT:      -6.7      1.534      8.779
REMARK  Name = 21579199
REMARK  4 active torsions:
REMARK  status: ('A' for Active; 'I' for Inactive)
REMARK    1  A    between atoms: C_10  and  C_34
REMARK    2  A    between atoms: C_15  and  O_31
REMARK    3  A    between atoms: C_29  and  O_37
REMARK    4  A    between atoms: C_34  and  O_35
REMARK                            x       y       z     vdW  Elec       q    Type
REMARK                         _______ _______ _______ _____ _____    ______ ____
ROOT
ATOM      1  O   UNL     1     -33.403  25.714   0.815  0.00  0.00    -0.294 OA
ATOM      2  O   UNL     1     -34.702  14.047  -1.111  0.00  0.00    -0.283 OA
ATOM      3  C   UNL     1     -34.852  22.610   1.955  0.00  0.00    +0.011 C 
ATOM      4  C   UNL     1     -35.351  21.161   1.481  0.00  0.00    +0.018 C 
ATOM      5  C   UNL     1     -34.625  23.602   0.766  0.00  0.00    +0.058 C 
ATOM      6  C   UNL     1     -35.795  23.252   3.018  0.00  0.00    +0.014 C 
ATOM      7  C   UNL     1     -36.134  21.182   0.158  0.00  0.00    -0.034 C 
ATOM      8  C   UNL     1     -34.115  20.230   1.283  0.00  0.00    +0.005 C 
ATOM      9  C   UNL     1     -35.895  23.663  -0.105  0.00  0.00    +0.029 C 
ATOM     10  C   UNL     1     -35.351  24.636   3.530  0.00  0.00    +0.121 C 
ATOM     11  C   UNL     1     -35.376  18.843  -0.536  0.00  0.00    +0.037 C 
ATOM     12  C   UNL     1     -34.454  18.838   0.721  0.00  0.00    +0.008 C 
ATOM     13  C   UNL     1     -36.392  22.306  -0.553  0.00  0.00    -0.048 C 
ATOM     14  C   UNL     1     -34.316  25.029   1.281  0.00  0.00    +0.177 C 
ATOM     15  C   UNL     1     -35.228  25.603   2.353  0.00  0.00    +0.177 C 
ATOM     16  C   UNL     1     -36.517  19.840  -0.300  0.00  0.00    -0.024 C 
ATOM     17  C   UNL     1     -36.239  20.503   2.584  0.00  0.00    +0.004 C 
ATOM     18  C   UNL     1     -33.422  23.188  -0.116  0.00  0.00    +0.008 C 
ATOM     19  C   UNL     1     -34.069  24.540   4.373  0.00  0.00    +0.014 C 
ATOM     20  C   UNL     1     -35.887  17.402  -0.815  0.00  0.00    -0.016 C 
ATOM     21  C   UNL     1     -34.582  19.297  -1.786  0.00  0.00    +0.009 C 
ATOM     22  C   UNL     1     -37.130  22.356  -1.869  0.00  0.00    +0.026 C 
ATOM     23  C   UNL     1     -37.805  19.485  -0.425  0.00  0.00    -0.004 C 
ATOM     24  C   UNL     1     -37.326  17.150  -1.031  0.00  0.00    -0.005 C 
ATOM     25  C   UNL     1     -38.194  18.165  -0.840  0.00  0.00    -0.001 C 
ATOM     26  C   UNL     1     -35.037  16.359  -0.865  0.00  0.00    +0.041 C 
ATOM     27  C   UNL     1     -37.799  15.806  -1.452  0.00  0.00    +0.015 C 
ATOM     28  C   UNL     1     -35.497  14.982  -1.141  0.00  0.00    +0.228 C 
ATOM     29  C   UNL     1     -36.931  14.770  -1.475  0.00  0.00    +0.169 C 
ATOM     30  C   UNL     1     -39.249  15.661  -1.858  0.00  0.00    +0.034 C 
ENDROOT
BRANCH  15  31
ATOM     31  O   UNL     1     -34.735  26.872   2.759  0.00  0.00    -0.377 OA
ATOM     32  H   UNL     1     -34.260  26.780   3.600  0.00  0.00    +0.211 HD
ENDBRANCH  15  31
BRANCH  10  34
ATOM     33  O   UNL     1     -36.308  26.006   5.279  0.00  0.00    -0.250 OA
ATOM     34  C   UNL     1     -36.454  25.128   4.439  0.00  0.00    +0.319 C 
BRANCH  34  35
ATOM     35  O   UNL     1     -37.604  24.448   4.171  0.00  0.00    -0.444 OA
ATOM     36  C   UNL     1     -38.630  25.207   3.522  0.00  0.00    +0.256 C 
ENDBRANCH  34  35
ENDBRANCH  10  34
BRANCH  29  37
ATOM     37  O   UNL     1     -37.255  13.468  -1.795  0.00  0.00    -0.503 OA
ATOM     38  H   UNL     1     -37.989  13.055  -1.385  0.00  0.00    +0.292 HD
ENDBRANCH  29  37
TORSDOF 4
ENDMDL
MODEL 4
REMARK VINA RESULT:      -6.5     12.274     16.571
REMARK  Name = 21579199
REMARK  4 active torsions:
REMARK  status: ('A' for Active; 'I' for Inactive)
REMARK    1  A    between atoms: C_10  and  C_34
REMARK    2  A    between atoms: C_15  and  O_31
REMARK    3  A    between atoms: C_29  and  O_37
REMARK    4  A    between atoms: C_34  and  O_35
REMARK                            x       y       z     vdW  Elec       q    Type
REMARK                         _______ _______ _______ _____ _____    ______ ____
ROOT
ATOM      1  O   UNL     1     -44.207  35.255   0.007  0.00  0.00    -0.294 OA
ATOM      2  O   UNL     1     -33.268  30.593  -0.350  0.00  0.00    -0.283 OA
ATOM      3  C   UNL     1     -40.821  35.592  -1.197  0.00  0.00    +0.011 C 
ATOM      4  C   UNL     1     -39.296  35.188  -0.909  0.00  0.00    +0.018 C 
ATOM      5  C   UNL     1     -41.768  35.331   0.021  0.00  0.00    +0.058 C 
ATOM      6  C   UNL     1     -40.970  37.065  -1.687  0.00  0.00    +0.014 C 
ATOM      7  C   UNL     1     -38.906  35.277   0.576  0.00  0.00    -0.034 C 
ATOM      8  C   UNL     1     -39.057  33.717  -1.373  0.00  0.00    +0.005 C 
ATOM      9  C   UNL     1     -41.195  36.017   1.276  0.00  0.00    +0.029 C 
ATOM     10  C   UNL     1     -42.411  37.503  -2.006  0.00  0.00    +0.121 C 
ATOM     11  C   UNL     1     -37.187  33.393   0.423  0.00  0.00    +0.037 C 
ATOM     12  C   UNL     1     -37.655  33.171  -1.048  0.00  0.00    +0.008 C 
ATOM     13  C   UNL     1     -39.753  35.661   1.561  0.00  0.00    -0.048 C 
ATOM     14  C   UNL     1     -43.185  35.897  -0.243  0.00  0.00    +0.177 C 
ATOM     15  C   UNL     1     -43.289  37.319  -0.767  0.00  0.00    +0.177 C 
ATOM     16  C   UNL     1     -37.530  34.829   0.832  0.00  0.00    -0.024 C 
ATOM     17  C   UNL     1     -38.327  36.086  -1.741  0.00  0.00    +0.004 C 
ATOM     18  C   UNL     1     -41.949  33.820   0.304  0.00  0.00    +0.008 C 
ATOM     19  C   UNL     1     -42.959  36.780  -3.247  0.00  0.00    +0.014 C 
ATOM     20  C   UNL     1     -35.668  33.082   0.540  0.00  0.00    -0.016 C 
ATOM     21  C   UNL     1     -37.928  32.423   1.376  0.00  0.00    +0.009 C 
ATOM     22  C   UNL     1     -39.410  35.728   3.030  0.00  0.00    +0.026 C 
ATOM     23  C   UNL     1     -36.604  35.667   1.325  0.00  0.00    -0.004 C 
ATOM     24  C   UNL     1     -34.759  34.046   1.192  0.00  0.00    -0.005 C 
ATOM     25  C   UNL     1     -35.246  35.252   1.549  0.00  0.00    -0.001 C 
ATOM     26  C   UNL     1     -35.152  31.938   0.055  0.00  0.00    +0.041 C 
ATOM     27  C   UNL     1     -33.340  33.687   1.446  0.00  0.00    +0.015 C 
ATOM     28  C   UNL     1     -33.714  31.614   0.166  0.00  0.00    +0.228 C 
ATOM     29  C   UNL     1     -32.838  32.542   0.931  0.00  0.00    +0.169 C 
ATOM     30  C   UNL     1     -32.514  34.625   2.298  0.00  0.00    +0.034 C 
ENDROOT
BRANCH  15  31
ATOM     31  O   UNL     1     -44.650  37.625  -1.032  0.00  0.00    -0.377 OA
ATOM     32  H   UNL     1     -44.885  38.460  -0.596  0.00  0.00    +0.211 HD
ENDBRANCH  15  31
BRANCH  10  34
ATOM     33  O   UNL     1     -43.256  39.768  -2.109  0.00  0.00    -0.250 OA
ATOM     34  C   UNL     1     -42.348  38.977  -2.332  0.00  0.00    +0.319 C 
BRANCH  34  35
ATOM     35  O   UNL     1     -41.144  39.267  -2.900  0.00  0.00    -0.444 OA
ATOM     36  C   UNL     1     -40.952  40.637  -3.270  0.00  0.00    +0.256 C 
ENDBRANCH  34  35
ENDBRANCH  10  34
BRANCH  29  37
ATOM     37  O   UNL     1     -31.530  32.123   1.051  0.00  0.00    -0.503 OA
ATOM     38  H   UNL     1     -31.101  32.160   1.882  0.00  0.00    +0.292 HD
ENDBRANCH  29  37
TORSDOF 4
ENDMDL
MODEL 5
REMARK VINA RESULT:      -6.5      2.252      9.299
REMARK  Name = 21579199
REMARK  4 active torsions:
REMARK  status: ('A' for Active; 'I' for Inactive)
REMARK    1  A    between atoms: C_10  and  C_34
REMARK    2  A    between atoms: C_15  and  O_31
REMARK    3  A    between atoms: C_29  and  O_37
REMARK    4  A    between atoms: C_34  and  O_35
REMARK                            x       y       z     vdW  Elec       q    Type
REMARK                         _______ _______ _______ _____ _____    ______ ____
ROOT
ATOM      1  O   UNL     1     -37.374  26.196   3.387  0.00  0.00    -0.294 OA
ATOM      2  O   UNL     1     -35.765  16.804  -3.735  0.00  0.00    -0.283 OA
ATOM      3  C   UNL     1     -35.098  24.384   1.251  0.00  0.00    +0.011 C 
ATOM      4  C   UNL     1     -34.766  22.939   0.639  0.00  0.00    +0.018 C 
ATOM      5  C   UNL     1     -36.122  24.332   2.433  0.00  0.00    +0.058 C 
ATOM      6  C   UNL     1     -33.817  25.161   1.683  0.00  0.00    +0.014 C 
ATOM      7  C   UNL     1     -34.923  21.791   1.650  0.00  0.00    -0.034 C 
ATOM      8  C   UNL     1     -35.731  22.652  -0.554  0.00  0.00    +0.005 C 
ATOM      9  C   UNL     1     -35.631  23.331   3.496  0.00  0.00    +0.029 C 
ATOM     10  C   UNL     1     -34.071  26.568   2.255  0.00  0.00    +0.121 C 
ATOM     11  C   UNL     1     -35.592  20.079  -0.124  0.00  0.00    +0.037 C 
ATOM     12  C   UNL     1     -35.587  21.245  -1.160  0.00  0.00    +0.008 C 
ATOM     13  C   UNL     1     -35.300  21.964   2.940  0.00  0.00    -0.048 C 
ATOM     14  C   UNL     1     -36.273  25.720   3.101  0.00  0.00    +0.177 C 
ATOM     15  C   UNL     1     -35.003  26.470   3.464  0.00  0.00    +0.177 C 
ATOM     16  C   UNL     1     -34.692  20.469   1.053  0.00  0.00    -0.024 C 
ATOM     17  C   UNL     1     -33.316  22.910   0.062  0.00  0.00    +0.004 C 
ATOM     18  C   UNL     1     -37.537  23.920   1.960  0.00  0.00    +0.008 C 
ATOM     19  C   UNL     1     -34.583  27.533   1.173  0.00  0.00    +0.014 C 
ATOM     20  C   UNL     1     -35.139  18.763  -0.816  0.00  0.00    -0.016 C 
ATOM     21  C   UNL     1     -37.025  19.843   0.415  0.00  0.00    +0.009 C 
ATOM     22  C   UNL     1     -35.493  20.856   3.948  0.00  0.00    +0.026 C 
ATOM     23  C   UNL     1     -33.687  19.682   1.469  0.00  0.00    -0.004 C 
ATOM     24  C   UNL     1     -34.084  17.927  -0.209  0.00  0.00    -0.005 C 
ATOM     25  C   UNL     1     -33.429  18.400   0.872  0.00  0.00    -0.001 C 
ATOM     26  C   UNL     1     -35.692  18.359  -1.974  0.00  0.00    +0.041 C 
ATOM     27  C   UNL     1     -33.757  16.595  -0.780  0.00  0.00    +0.015 C 
ATOM     28  C   UNL     1     -35.287  17.106  -2.645  0.00  0.00    +0.228 C 
ATOM     29  C   UNL     1     -34.310  16.220  -1.955  0.00  0.00    +0.169 C 
ATOM     30  C   UNL     1     -32.821  15.700  -0.000  0.00  0.00    +0.034 C 
ENDROOT
BRANCH  15  31
ATOM     31  O   UNL     1     -35.341  27.750   3.977  0.00  0.00    -0.377 OA
ATOM     32  H   UNL     1     -36.284  27.769   4.205  0.00  0.00    +0.211 HD
ENDBRANCH  15  31
BRANCH  10  34
ATOM     33  O   UNL     1     -31.777  26.370   3.000  0.00  0.00    -0.250 OA
ATOM     34  C   UNL     1     -32.732  27.087   2.726  0.00  0.00    +0.319 C 
BRANCH  34  35
ATOM     35  O   UNL     1     -32.767  28.448   2.792  0.00  0.00    -0.444 OA
ATOM     36  C   UNL     1     -32.074  29.028   3.901  0.00  0.00    +0.256 C 
ENDBRANCH  34  35
ENDBRANCH  10  34
BRANCH  29  37
ATOM     37  O   UNL     1     -34.050  15.037  -2.614  0.00  0.00    -0.503 OA
ATOM     38  H   UNL     1     -34.525  14.820  -3.391  0.00  0.00    +0.292 HD
ENDBRANCH  29  37
TORSDOF 4
ENDMDL
MODEL 6
REMARK VINA RESULT:      -6.5      1.780      3.730
REMARK  Name = 21579199
REMARK  4 active torsions:
REMARK  status: ('A' for Active; 'I' for Inactive)
REMARK    1  A    between atoms: C_10  and  C_34
REMARK    2  A    between atoms: C_15  and  O_31
REMARK    3  A    between atoms: C_29  and  O_37
REMARK    4  A    between atoms: C_34  and  O_35
REMARK                            x       y       z     vdW  Elec       q    Type
REMARK                         _______ _______ _______ _____ _____    ______ ____
ROOT
ATOM      1  O   UNL     1     -38.254  17.318  -2.032  0.00  0.00    -0.294 OA
ATOM      2  O   UNL     1     -35.548  25.707   5.957  0.00  0.00    -0.283 OA
ATOM      3  C   UNL     1     -35.760  18.663   0.205  0.00  0.00    +0.011 C 
ATOM      4  C   UNL     1     -35.271  19.996   0.950  0.00  0.00    +0.018 C 
ATOM      5  C   UNL     1     -36.799  18.939  -0.932  0.00  0.00    +0.058 C 
ATOM      6  C   UNL     1     -34.574  17.813  -0.345  0.00  0.00    +0.014 C 
ATOM      7  C   UNL     1     -35.332  21.253   0.067  0.00  0.00    -0.034 C 
ATOM      8  C   UNL     1     -36.175  20.250   2.196  0.00  0.00    +0.005 C 
ATOM      9  C   UNL     1     -36.232  19.993  -1.903  0.00  0.00    +0.029 C 
ATOM     10  C   UNL     1     -34.982  16.505  -1.050  0.00  0.00    +0.121 C 
ATOM     11  C   UNL     1     -35.786  22.828   2.027  0.00  0.00    +0.037 C 
ATOM     12  C   UNL     1     -35.877  21.565   2.938  0.00  0.00    +0.008 C 
ATOM     13  C   UNL     1     -35.752  21.255  -1.221  0.00  0.00    -0.048 C 
ATOM     14  C   UNL     1     -37.105  17.650  -1.734  0.00  0.00    +0.177 C 
ATOM     15  C   UNL     1     -35.925  16.821  -2.212  0.00  0.00    +0.177 C 
ATOM     16  C   UNL     1     -34.955  22.476   0.788  0.00  0.00    -0.024 C 
ATOM     17  C   UNL     1     -33.812  19.821   1.480  0.00  0.00    +0.004 C 
ATOM     18  C   UNL     1     -38.154  19.437  -0.375  0.00  0.00    +0.008 C 
ATOM     19  C   UNL     1     -35.566  15.488  -0.056  0.00  0.00    +0.014 C 
ATOM     20  C   UNL     1     -35.186  24.013   2.835  0.00  0.00    -0.016 C 
ATOM     21  C   UNL     1     -37.198  23.260   1.561  0.00  0.00    +0.009 C 
ATOM     22  C   UNL     1     -35.854  22.476  -2.104  0.00  0.00    +0.026 C 
ATOM     23  C   UNL     1     -33.885  23.200   0.423  0.00  0.00    -0.004 C 
ATOM     24  C   UNL     1     -34.065  24.799   2.283  0.00  0.00    -0.005 C 
ATOM     25  C   UNL     1     -33.485  24.380   1.140  0.00  0.00    -0.001 C 
ATOM     26  C   UNL     1     -35.671  24.346   4.046  0.00  0.00    +0.041 C 
ATOM     27  C   UNL     1     -33.593  26.025   2.977  0.00  0.00    +0.015 C 
ATOM     28  C   UNL     1     -35.126  25.476   4.827  0.00  0.00    +0.228 C 
ATOM     29  C   UNL     1     -34.079  26.329   4.201  0.00  0.00    +0.169 C 
ATOM     30  C   UNL     1     -32.587  26.901   2.262  0.00  0.00    +0.034 C 
ENDROOT
BRANCH  15  31
ATOM     31  O   UNL     1     -36.403  15.641  -2.842  0.00  0.00    -0.377 OA
ATOM     32  H   UNL     1     -36.831  15.873  -3.681  0.00  0.00    +0.211 HD
ENDBRANCH  15  31
BRANCH  10  34
ATOM     33  O   UNL     1     -33.675  15.181  -2.597  0.00  0.00    -0.250 OA
ATOM     34  C   UNL     1     -33.713  15.909  -1.614  0.00  0.00    +0.319 C 
BRANCH  34  35
ATOM     35  O   UNL     1     -32.648  16.310  -0.862  0.00  0.00    -0.444 OA
ATOM     36  C   UNL     1     -31.809  15.257  -0.375  0.00  0.00    +0.256 C 
ENDBRANCH  34  35
ENDBRANCH  10  34
BRANCH  29  37
ATOM     37  O   UNL     1     -33.686  27.404   4.969  0.00  0.00    -0.503 OA
ATOM     38  H   UNL     1     -34.247  27.723   5.648  0.00  0.00    +0.292 HD
ENDBRANCH  29  37
TORSDOF 4
ENDMDL
MODEL 7
REMARK VINA RESULT:      -6.5      3.476      8.176
REMARK  Name = 21579199
REMARK  4 active torsions:
REMARK  status: ('A' for Active; 'I' for Inactive)
REMARK    1  A    between atoms: C_10  and  C_34
REMARK    2  A    between atoms: C_15  and  O_31
REMARK    3  A    between atoms: C_29  and  O_37
REMARK    4  A    between atoms: C_34  and  O_35
REMARK                            x       y       z     vdW  Elec       q    Type
REMARK                         _______ _______ _______ _____ _____    ______ ____
ROOT
ATOM      1  O   UNL     1     -38.019  27.744   1.092  0.00  0.00    -0.294 OA
ATOM      2  O   UNL     1     -31.848  17.610   1.942  0.00  0.00    -0.283 OA
ATOM      3  C   UNL     1     -38.135  24.177   1.630  0.00  0.00    +0.011 C 
ATOM      4  C   UNL     1     -37.370  22.797   1.342  0.00  0.00    +0.018 C 
ATOM      5  C   UNL     1     -37.619  25.363   0.748  0.00  0.00    +0.058 C 
ATOM      6  C   UNL     1     -39.683  24.044   1.499  0.00  0.00    +0.014 C 
ATOM      7  C   UNL     1     -36.817  22.686  -0.088  0.00  0.00    -0.034 C 
ATOM      8  C   UNL     1     -36.166  22.662   2.326  0.00  0.00    +0.005 C 
ATOM      9  C   UNL     1     -37.659  24.955  -0.738  0.00  0.00    +0.029 C 
ATOM     10  C   UNL     1     -40.474  25.333   1.790  0.00  0.00    +0.121 C 
ATOM     11  C   UNL     1     -34.840  21.220   0.597  0.00  0.00    +0.037 C 
ATOM     12  C   UNL     1     -35.282  21.426   2.079  0.00  0.00    +0.008 C 
ATOM     13  C   UNL     1     -36.955  23.649  -1.031  0.00  0.00    -0.048 C 
ATOM     14  C   UNL     1     -38.501  26.621   0.934  0.00  0.00    +0.177 C 
ATOM     15  C   UNL     1     -40.008  26.445   0.849  0.00  0.00    +0.177 C 
ATOM     16  C   UNL     1     -36.053  21.451  -0.310  0.00  0.00    -0.024 C 
ATOM     17  C   UNL     1     -38.314  21.583   1.615  0.00  0.00    +0.004 C 
ATOM     18  C   UNL     1     -36.178  25.782   1.122  0.00  0.00    +0.008 C 
ATOM     19  C   UNL     1     -40.391  25.723   3.275  0.00  0.00    +0.014 C 
ATOM     20  C   UNL     1     -34.225  19.802   0.428  0.00  0.00    -0.016 C 
ATOM     21  C   UNL     1     -33.742  22.244   0.215  0.00  0.00    +0.009 C 
ATOM     22  C   UNL     1     -36.397  23.584  -2.432  0.00  0.00    +0.026 C 
ATOM     23  C   UNL     1     -36.451  20.537  -1.209  0.00  0.00    -0.004 C 
ATOM     24  C   UNL     1     -34.680  18.919  -0.664  0.00  0.00    -0.005 C 
ATOM     25  C   UNL     1     -35.732  19.309  -1.413  0.00  0.00    -0.001 C 
ATOM     26  C   UNL     1     -33.273  19.352   1.266  0.00  0.00    +0.041 C 
ATOM     27  C   UNL     1     -33.990  17.630  -0.925  0.00  0.00    +0.015 C 
ATOM     28  C   UNL     1     -32.664  18.013   1.118  0.00  0.00    +0.228 C 
ATOM     29  C   UNL     1     -33.050  17.188  -0.059  0.00  0.00    +0.169 C 
ATOM     30  C   UNL     1     -34.362  16.868  -2.178  0.00  0.00    +0.034 C 
ENDROOT
BRANCH  15  31
ATOM     31  O   UNL     1     -40.644  27.682   1.134  0.00  0.00    -0.377 OA
ATOM     32  H   UNL     1     -41.605  27.553   1.164  0.00  0.00    +0.211 HD
ENDBRANCH  15  31
BRANCH  10  34
ATOM     33  O   UNL     1     -42.288  24.121   0.744  0.00  0.00    -0.250 OA
ATOM     34  C   UNL     1     -41.922  25.025   1.484  0.00  0.00    +0.319 C 
BRANCH  34  35
ATOM     35  O   UNL     1     -42.726  25.899   2.153  0.00  0.00    -0.444 OA
ATOM     36  C   UNL     1     -44.068  25.997   1.665  0.00  0.00    +0.256 C 
ENDBRANCH  34  35
ENDBRANCH  10  34
BRANCH  29  37
ATOM     37  O   UNL     1     -32.376  15.989  -0.160  0.00  0.00    -0.503 OA
ATOM     38  H   UNL     1     -32.766  15.271  -0.617  0.00  0.00    +0.292 HD
ENDBRANCH  29  37
TORSDOF 4
ENDMDL
MODEL 8
REMARK VINA RESULT:      -6.5      2.004      8.775
REMARK  Name = 21579199
REMARK  4 active torsions:
REMARK  status: ('A' for Active; 'I' for Inactive)
REMARK    1  A    between atoms: C_10  and  C_34
REMARK    2  A    between atoms: C_15  and  O_31
REMARK    3  A    between atoms: C_29  and  O_37
REMARK    4  A    between atoms: C_34  and  O_35
REMARK                            x       y       z     vdW  Elec       q    Type
REMARK                         _______ _______ _______ _____ _____    ______ ____
ROOT
ATOM      1  O   UNL     1     -35.674  26.290   0.833  0.00  0.00    -0.294 OA
ATOM      2  O   UNL     1     -32.854  15.483  -3.265  0.00  0.00    -0.283 OA
ATOM      3  C   UNL     1     -34.934  22.852   1.648  0.00  0.00    +0.011 C 
ATOM      4  C   UNL     1     -34.959  21.351   1.083  0.00  0.00    +0.018 C 
ATOM      5  C   UNL     1     -35.764  23.852   0.776  0.00  0.00    +0.058 C 
ATOM      6  C   UNL     1     -35.381  22.940   3.139  0.00  0.00    +0.014 C 
ATOM      7  C   UNL     1     -36.229  21.016   0.282  0.00  0.00    -0.034 C 
ATOM      8  C   UNL     1     -33.736  21.137   0.138  0.00  0.00    +0.005 C 
ATOM      9  C   UNL     1     -37.194  23.309   0.588  0.00  0.00    +0.029 C 
ATOM     10  C   UNL     1     -35.352  24.355   3.745  0.00  0.00    +0.121 C 
ATOM     11  C   UNL     1     -35.043  19.347  -1.246  0.00  0.00    +0.037 C 
ATOM     12  C   UNL     1     -33.706  19.765  -0.558  0.00  0.00    +0.008 C 
ATOM     13  C   UNL     1     -37.242  21.889   0.068  0.00  0.00    -0.048 C 
ATOM     14  C   UNL     1     -35.855  25.241   1.455  0.00  0.00    +0.177 C 
ATOM     15  C   UNL     1     -36.246  25.284   2.922  0.00  0.00    +0.177 C 
ATOM     16  C   UNL     1     -36.201  19.664  -0.293  0.00  0.00    -0.024 C 
ATOM     17  C   UNL     1     -34.813  20.326   2.251  0.00  0.00    +0.004 C 
ATOM     18  C   UNL     1     -35.122  24.087  -0.612  0.00  0.00    +0.008 C 
ATOM     19  C   UNL     1     -33.913  24.875   3.895  0.00  0.00    +0.014 C 
ATOM     20  C   UNL     1     -34.982  17.844  -1.636  0.00  0.00    -0.016 C 
ATOM     21  C   UNL     1     -35.251  20.151  -2.553  0.00  0.00    +0.009 C 
ATOM     22  C   UNL     1     -38.486  21.601  -0.739  0.00  0.00    +0.026 C 
ATOM     23  C   UNL     1     -37.100  18.735   0.065  0.00  0.00    -0.004 C 
ATOM     24  C   UNL     1     -36.083  16.933  -1.266  0.00  0.00    -0.005 C 
ATOM     25  C   UNL     1     -37.064  17.399  -0.464  0.00  0.00    -0.001 C 
ATOM     26  C   UNL     1     -33.933  17.342  -2.314  0.00  0.00    +0.041 C 
ATOM     27  C   UNL     1     -36.105  15.535  -1.769  0.00  0.00    +0.015 C 
ATOM     28  C   UNL     1     -33.858  15.919  -2.707  0.00  0.00    +0.228 C 
ATOM     29  C   UNL     1     -35.032  15.047  -2.430  0.00  0.00    +0.169 C 
ATOM     30  C   UNL     1     -37.354  14.716  -1.531  0.00  0.00    +0.034 C 
ENDROOT
BRANCH  15  31
ATOM     31  O   UNL     1     -36.186  26.625   3.386  0.00  0.00    -0.377 OA
ATOM     32  H   UNL     1     -35.630  27.150   2.789  0.00  0.00    +0.211 HD
ENDBRANCH  15  31
BRANCH  10  34
ATOM     33  O   UNL     1     -36.049  25.176   5.913  0.00  0.00    -0.250 OA
ATOM     34  C   UNL     1     -35.938  24.238   5.134  0.00  0.00    +0.319 C 
BRANCH  34  35
ATOM     35  O   UNL     1     -36.310  22.947   5.364  0.00  0.00    -0.444 OA
ATOM     36  C   UNL     1     -35.562  22.262   6.375  0.00  0.00    +0.256 C 
ENDBRANCH  34  35
ENDBRANCH  10  34
BRANCH  29  37
ATOM     37  O   UNL     1     -34.907  13.757  -2.901  0.00  0.00    -0.503 OA
ATOM     38  H   UNL     1     -34.884  13.040  -2.299  0.00  0.00    +0.292 HD
ENDBRANCH  29  37
TORSDOF 4
ENDMDL
MODEL 9
REMARK VINA RESULT:      -6.4      4.558      7.563
REMARK  Name = 21579199
REMARK  4 active torsions:
REMARK  status: ('A' for Active; 'I' for Inactive)
REMARK    1  A    between atoms: C_10  and  C_34
REMARK    2  A    between atoms: C_15  and  O_31
REMARK    3  A    between atoms: C_29  and  O_37
REMARK    4  A    between atoms: C_34  and  O_35
REMARK                            x       y       z     vdW  Elec       q    Type
REMARK                         _______ _______ _______ _____ _____    ______ ____
ROOT
ATOM      1  O   UNL     1     -35.478  22.220  -0.660  0.00  0.00    -0.294 OA
ATOM      2  O   UNL     1     -35.558  33.980   1.131  0.00  0.00    -0.283 OA
ATOM      3  C   UNL     1     -35.728  24.904   1.739  0.00  0.00    +0.011 C 
ATOM      4  C   UNL     1     -35.337  26.435   2.019  0.00  0.00    +0.018 C 
ATOM      5  C   UNL     1     -34.947  24.279   0.536  0.00  0.00    +0.058 C 
ATOM      6  C   UNL     1     -35.577  24.006   3.005  0.00  0.00    +0.014 C 
ATOM      7  C   UNL     1     -33.906  26.793   1.584  0.00  0.00    -0.034 C 
ATOM      8  C   UNL     1     -36.315  27.367   1.237  0.00  0.00    +0.005 C 
ATOM      9  C   UNL     1     -33.433  24.480   0.744  0.00  0.00    +0.029 C 
ATOM     10  C   UNL     1     -35.964  22.529   2.804  0.00  0.00    +0.121 C 
ATOM     11  C   UNL     1     -34.485  29.222   1.043  0.00  0.00    +0.037 C 
ATOM     12  C   UNL     1     -35.976  28.865   1.334  0.00  0.00    +0.008 C 
ATOM     13  C   UNL     1     -33.042  25.915   1.022  0.00  0.00    -0.048 C 
ATOM     14  C   UNL     1     -35.227  22.761   0.419  0.00  0.00    +0.177 C 
ATOM     15  C   UNL     1     -35.117  21.924   1.683  0.00  0.00    +0.177 C 
ATOM     16  C   UNL     1     -33.591  28.216   1.775  0.00  0.00    -0.024 C 
ATOM     17  C   UNL     1     -35.505  26.774   3.533  0.00  0.00    +0.004 C 
ATOM     18  C   UNL     1     -35.364  24.904  -0.816  0.00  0.00    +0.008 C 
ATOM     19  C   UNL     1     -37.475  22.368   2.575  0.00  0.00    +0.014 C 
ATOM     20  C   UNL     1     -34.209  30.691   1.468  0.00  0.00    -0.016 C 
ATOM     21  C   UNL     1     -34.194  29.122  -0.475  0.00  0.00    +0.009 C 
ATOM     22  C   UNL     1     -31.644  26.243   0.556  0.00  0.00    +0.026 C 
ATOM     23  C   UNL     1     -32.620  28.609   2.613  0.00  0.00    -0.004 C 
ATOM     24  C   UNL     1     -33.046  31.014   2.320  0.00  0.00    -0.005 C 
ATOM     25  C   UNL     1     -32.323  29.998   2.835  0.00  0.00    -0.001 C 
ATOM     26  C   UNL     1     -35.014  31.694   1.073  0.00  0.00    +0.041 C 
ATOM     27  C   UNL     1     -32.687  32.428   2.600  0.00  0.00    +0.015 C 
ATOM     28  C   UNL     1     -34.764  33.101   1.453  0.00  0.00    +0.228 C 
ATOM     29  C   UNL     1     -33.522  33.418   2.210  0.00  0.00    +0.169 C 
ATOM     30  C   UNL     1     -31.376  32.701   3.301  0.00  0.00    +0.034 C 
ENDROOT
BRANCH  15  31
ATOM     31  O   UNL     1     -35.496  20.586   1.396  0.00  0.00    -0.377 OA
ATOM     32  H   UNL     1     -34.701  20.048   1.252  0.00  0.00    +0.211 HD
ENDBRANCH  15  31
BRANCH  10  34
ATOM     33  O   UNL     1     -35.127  20.701   4.151  0.00  0.00    -0.250 OA
ATOM     34  C   UNL     1     -35.624  21.819   4.095  0.00  0.00    +0.319 C 
BRANCH  34  35
ATOM     35  O   UNL     1     -35.955  22.612   5.152  0.00  0.00    -0.444 OA
ATOM     36  C   UNL     1     -35.480  22.167   6.427  0.00  0.00    +0.256 C 
ENDBRANCH  34  35
ENDBRANCH  10  34
BRANCH  29  37
ATOM     37  O   UNL     1     -33.331  34.761   2.454  0.00  0.00    -0.503 OA
ATOM     38  H   UNL     1     -33.346  35.372   1.744  0.00  0.00    +0.292 HD
ENDBRANCH  29  37
TORSDOF 4
ENDMDL
