MODEL 1
REMARK VINA RESULT:      -6.3      0.000      0.000
REMARK  Name = 5004
REMARK  4 active torsions:
REMARK  status: ('A' for Active; 'I' for Inactive)
REMARK    1  A    between atoms: C_9  and  O_17
REMARK    2  A    between atoms: C_10  and  O_19
REMARK    3  A    between atoms: C_11  and  O_21
REMARK    4  A    between atoms: C_13  and  O_23
REMARK                            x       y       z     vdW  Elec       q    Type
REMARK                         _______ _______ _______ _____ _____    ______ ____
ROOT
ATOM      1  O   UNL     1     -36.655  23.115   1.395  0.00  0.00    -0.286 OA
ATOM      2  O   UNL     1     -35.053  26.876   4.837  0.00  0.00    -0.286 OA
ATOM      3  C   UNL     1     -35.841  23.619   3.541  0.00  0.00    +0.079 C 
ATOM      4  C   UNL     1     -36.285  25.402   1.779  0.00  0.00    +0.079 C 
ATOM      5  C   UNL     1     -35.868  26.390   2.673  0.00  0.00    +0.079 C 
ATOM      6  C   UNL     1     -35.425  24.607   4.436  0.00  0.00    +0.045 C 
ATOM      7  C   UNL     1     -36.287  23.980   2.180  0.00  0.00    +0.202 C 
ATOM      8  C   UNL     1     -35.422  26.028   4.035  0.00  0.00    +0.199 C 
ATOM      9  C   UNL     1     -35.837  22.275   3.933  0.00  0.00    +0.171 C 
ATOM     10  C   UNL     1     -36.705  25.757   0.492  0.00  0.00    +0.137 C 
ATOM     11  C   UNL     1     -35.871  27.734   2.281  0.00  0.00    +0.137 C 
ATOM     12  C   UNL     1     -35.004  24.251   5.723  0.00  0.00    +0.007 C 
ATOM     13  C   UNL     1     -35.418  21.924   5.217  0.00  0.00    +0.168 C 
ATOM     14  C   UNL     1     -35.003  22.910   6.110  0.00  0.00    +0.040 C 
ATOM     15  C   UNL     1     -36.705  27.098   0.104  0.00  0.00    +0.040 C 
ATOM     16  C   UNL     1     -36.289  28.084   0.997  0.00  0.00    +0.040 C 
ENDROOT
BRANCH   9  17
ATOM     17  O   UNL     1     -36.234  21.268   3.102  0.00  0.00    -0.503 OA
ATOM     18  H   UNL     1     -35.743  20.471   3.063  0.00  0.00    +0.292 HD
ENDBRANCH   9  17
BRANCH  10  19
ATOM     19  O   UNL     1     -37.125  24.847  -0.431  0.00  0.00    -0.505 OA
ATOM     20  H   UNL     1     -36.752  24.844  -1.290  0.00  0.00    +0.292 HD
ENDBRANCH  10  19
BRANCH  11  21
ATOM     21  O   UNL     1     -35.476  28.746   3.105  0.00  0.00    -0.505 OA
ATOM     22  H   UNL     1     -34.564  28.924   3.224  0.00  0.00    +0.292 HD
ENDBRANCH  11  21
BRANCH  13  23
ATOM     23  O   UNL     1     -35.410  20.621   5.615  0.00  0.00    -0.503 OA
ATOM     24  H   UNL     1     -36.207  20.209   5.886  0.00  0.00    +0.292 HD
ENDBRANCH  13  23
TORSDOF 4
ENDMDL
MODEL 2
REMARK VINA RESULT:      -6.3      2.686      5.036
REMARK  Name = 5004
REMARK  4 active torsions:
REMARK  status: ('A' for Active; 'I' for Inactive)
REMARK    1  A    between atoms: C_9  and  O_17
REMARK    2  A    between atoms: C_10  and  O_19
REMARK    3  A    between atoms: C_11  and  O_21
REMARK    4  A    between atoms: C_13  and  O_23
REMARK                            x       y       z     vdW  Elec       q    Type
REMARK                         _______ _______ _______ _____ _____    ______ ____
ROOT
ATOM      1  O   UNL     1     -38.881  24.601   1.713  0.00  0.00    -0.286 OA
ATOM      2  O   UNL     1     -35.568  20.699   3.248  0.00  0.00    -0.286 OA
ATOM      3  C   UNL     1     -37.216  23.892   3.211  0.00  0.00    +0.079 C 
ATOM      4  C   UNL     1     -38.108  22.416   1.338  0.00  0.00    +0.079 C 
ATOM      5  C   UNL     1     -37.244  21.392   1.733  0.00  0.00    +0.079 C 
ATOM      6  C   UNL     1     -36.352  22.868   3.606  0.00  0.00    +0.045 C 
ATOM      7  C   UNL     1     -38.125  23.704   2.062  0.00  0.00    +0.202 C 
ATOM      8  C   UNL     1     -36.335  21.580   2.882  0.00  0.00    +0.199 C 
ATOM      9  C   UNL     1     -37.224  25.106   3.907  0.00  0.00    +0.171 C 
ATOM     10  C   UNL     1     -38.964  22.225   0.247  0.00  0.00    +0.137 C 
ATOM     11  C   UNL     1     -37.237  20.177   1.038  0.00  0.00    +0.137 C 
ATOM     12  C   UNL     1     -35.496  23.059   4.698  0.00  0.00    +0.007 C 
ATOM     13  C   UNL     1     -36.368  25.293   4.993  0.00  0.00    +0.168 C 
ATOM     14  C   UNL     1     -35.506  24.272   5.388  0.00  0.00    +0.040 C 
ATOM     15  C   UNL     1     -38.955  21.012  -0.443  0.00  0.00    +0.040 C 
ATOM     16  C   UNL     1     -38.093  19.990  -0.048  0.00  0.00    +0.040 C 
ENDROOT
BRANCH   9  17
ATOM     17  O   UNL     1     -38.045  26.141   3.565  0.00  0.00    -0.503 OA
ATOM     18  H   UNL     1     -38.505  26.125   2.749  0.00  0.00    +0.292 HD
ENDBRANCH   9  17
BRANCH  10  19
ATOM     19  O   UNL     1     -39.831  23.181  -0.194  0.00  0.00    -0.505 OA
ATOM     20  H   UNL     1     -40.748  23.096  -0.022  0.00  0.00    +0.292 HD
ENDBRANCH  10  19
BRANCH  11  21
ATOM     21  O   UNL     1     -36.420  19.138   1.372  0.00  0.00    -0.505 OA
ATOM     22  H   UNL     1     -35.495  19.209   1.242  0.00  0.00    +0.292 HD
ENDBRANCH  11  21
BRANCH  13  23
ATOM     23  O   UNL     1     -36.362  26.470   5.681  0.00  0.00    -0.503 OA
ATOM     24  H   UNL     1     -36.541  26.477   6.600  0.00  0.00    +0.292 HD
ENDBRANCH  13  23
TORSDOF 4
ENDMDL
MODEL 3
REMARK VINA RESULT:      -6.2      2.925      5.175
REMARK  Name = 5004
REMARK  4 active torsions:
REMARK  status: ('A' for Active; 'I' for Inactive)
REMARK    1  A    between atoms: C_9  and  O_17
REMARK    2  A    between atoms: C_10  and  O_19
REMARK    3  A    between atoms: C_11  and  O_21
REMARK    4  A    between atoms: C_13  and  O_23
REMARK                            x       y       z     vdW  Elec       q    Type
REMARK                         _______ _______ _______ _____ _____    ______ ____
ROOT
ATOM      1  O   UNL     1     -37.262  20.805   2.379  0.00  0.00    -0.286 OA
ATOM      2  O   UNL     1     -38.658  25.908   3.132  0.00  0.00    -0.286 OA
ATOM      3  C   UNL     1     -38.706  22.568   1.807  0.00  0.00    +0.079 C 
ATOM      4  C   UNL     1     -36.839  22.812   3.522  0.00  0.00    +0.079 C 
ATOM      5  C   UNL     1     -37.199  24.146   3.724  0.00  0.00    +0.079 C 
ATOM      6  C   UNL     1     -39.064  23.903   2.008  0.00  0.00    +0.045 C 
ATOM      7  C   UNL     1     -37.580  21.974   2.556  0.00  0.00    +0.202 C 
ATOM      8  C   UNL     1     -38.325  24.741   2.974  0.00  0.00    +0.199 C 
ATOM      9  C   UNL     1     -39.416  21.785   0.890  0.00  0.00    +0.171 C 
ATOM     10  C   UNL     1     -35.770  22.260   4.238  0.00  0.00    +0.137 C 
ATOM     11  C   UNL     1     -36.489  24.929   4.641  0.00  0.00    +0.137 C 
ATOM     12  C   UNL     1     -40.134  24.454   1.292  0.00  0.00    +0.007 C 
ATOM     13  C   UNL     1     -40.481  22.338   0.178  0.00  0.00    +0.168 C 
ATOM     14  C   UNL     1     -40.839  23.670   0.378  0.00  0.00    +0.040 C 
ATOM     15  C   UNL     1     -35.066  23.044   5.153  0.00  0.00    +0.040 C 
ATOM     16  C   UNL     1     -35.424  24.376   5.354  0.00  0.00    +0.040 C 
ENDROOT
BRANCH   9  17
ATOM     17  O   UNL     1     -39.110  20.476   0.652  0.00  0.00    -0.503 OA
ATOM     18  H   UNL     1     -39.321  19.823   1.289  0.00  0.00    +0.292 HD
ENDBRANCH   9  17
BRANCH  10  19
ATOM     19  O   UNL     1     -35.366  20.967   4.090  0.00  0.00    -0.505 OA
ATOM     20  H   UNL     1     -35.994  20.298   3.905  0.00  0.00    +0.292 HD
ENDBRANCH  10  19
BRANCH  11  21
ATOM     21  O   UNL     1     -36.788  26.237   4.885  0.00  0.00    -0.505 OA
ATOM     22  H   UNL     1     -36.365  26.914   4.394  0.00  0.00    +0.292 HD
ENDBRANCH  11  21
BRANCH  13  23
ATOM     23  O   UNL     1     -41.182  21.590  -0.720  0.00  0.00    -0.503 OA
ATOM     24  H   UNL     1     -41.893  21.972  -1.195  0.00  0.00    +0.292 HD
ENDBRANCH  13  23
TORSDOF 4
ENDMDL
MODEL 4
REMARK VINA RESULT:      -6.2      1.026      1.159
REMARK  Name = 5004
REMARK  4 active torsions:
REMARK  status: ('A' for Active; 'I' for Inactive)
REMARK    1  A    between atoms: C_9  and  O_17
REMARK    2  A    between atoms: C_10  and  O_19
REMARK    3  A    between atoms: C_11  and  O_21
REMARK    4  A    between atoms: C_13  and  O_23
REMARK                            x       y       z     vdW  Elec       q    Type
REMARK                         _______ _______ _______ _____ _____    ______ ____
ROOT
ATOM      1  O   UNL     1     -36.772  22.050   1.307  0.00  0.00    -0.286 OA
ATOM      2  O   UNL     1     -35.938  26.528   4.101  0.00  0.00    -0.286 OA
ATOM      3  C   UNL     1     -36.089  23.021   3.334  0.00  0.00    +0.079 C 
ATOM      4  C   UNL     1     -36.842  24.396   1.329  0.00  0.00    +0.079 C 
ATOM      5  C   UNL     1     -36.627  25.571   2.053  0.00  0.00    +0.079 C 
ATOM      6  C   UNL     1     -35.874  24.195   4.059  0.00  0.00    +0.045 C 
ATOM      7  C   UNL     1     -36.581  23.078   1.943  0.00  0.00    +0.202 C 
ATOM      8  C   UNL     1     -36.134  25.513   3.445  0.00  0.00    +0.199 C 
ATOM      9  C   UNL     1     -35.836  21.778   3.927  0.00  0.00    +0.171 C 
ATOM     10  C   UNL     1     -37.309  24.464   0.011  0.00  0.00    +0.137 C 
ATOM     11  C   UNL     1     -36.878  26.813   1.459  0.00  0.00    +0.137 C 
ATOM     12  C   UNL     1     -35.406  24.127   5.377  0.00  0.00    +0.007 C 
ATOM     13  C   UNL     1     -35.371  21.715   5.241  0.00  0.00    +0.168 C 
ATOM     14  C   UNL     1     -35.156  22.886   5.965  0.00  0.00    +0.040 C 
ATOM     15  C   UNL     1     -37.558  25.705  -0.578  0.00  0.00    +0.040 C 
ATOM     16  C   UNL     1     -37.343  26.877   0.145  0.00  0.00    +0.040 C 
ENDROOT
BRANCH   9  17
ATOM     17  O   UNL     1     -36.029  20.599   3.268  0.00  0.00    -0.503 OA
ATOM     18  H   UNL     1     -35.533  20.408   2.496  0.00  0.00    +0.292 HD
ENDBRANCH   9  17
BRANCH  10  19
ATOM     19  O   UNL     1     -37.542  23.360  -0.753  0.00  0.00    -0.505 OA
ATOM     20  H   UNL     1     -37.778  22.550  -0.346  0.00  0.00    +0.292 HD
ENDBRANCH  10  19
BRANCH  11  21
ATOM     21  O   UNL     1     -36.689  27.996   2.111  0.00  0.00    -0.505 OA
ATOM     22  H   UNL     1     -35.910  28.135   2.613  0.00  0.00    +0.292 HD
ENDBRANCH  11  21
BRANCH  13  23
ATOM     23  O   UNL     1     -35.122  20.513   5.835  0.00  0.00    -0.503 OA
ATOM     24  H   UNL     1     -34.296  20.090   5.708  0.00  0.00    +0.292 HD
ENDBRANCH  13  23
TORSDOF 4
ENDMDL
MODEL 5
REMARK VINA RESULT:      -6.1      2.552      4.902
REMARK  Name = 5004
REMARK  4 active torsions:
REMARK  status: ('A' for Active; 'I' for Inactive)
REMARK    1  A    between atoms: C_9  and  O_17
REMARK    2  A    between atoms: C_10  and  O_19
REMARK    3  A    between atoms: C_11  and  O_21
REMARK    4  A    between atoms: C_13  and  O_23
REMARK                            x       y       z     vdW  Elec       q    Type
REMARK                         _______ _______ _______ _____ _____    ______ ____
ROOT
ATOM      1  O   UNL     1     -35.578  20.609   3.463  0.00  0.00    -0.286 OA
ATOM      2  O   UNL     1     -38.430  24.878   1.978  0.00  0.00    -0.286 OA
ATOM      3  C   UNL     1     -37.109  21.536   1.941  0.00  0.00    +0.079 C 
ATOM      4  C   UNL     1     -36.150  22.843   3.904  0.00  0.00    +0.079 C 
ATOM      5  C   UNL     1     -36.892  23.963   3.521  0.00  0.00    +0.079 C 
ATOM      6  C   UNL     1     -37.850  22.656   1.558  0.00  0.00    +0.045 C 
ATOM      7  C   UNL     1     -36.231  21.589   3.127  0.00  0.00    +0.202 C 
ATOM      8  C   UNL     1     -37.770  23.910   2.334  0.00  0.00    +0.199 C 
ATOM      9  C   UNL     1     -37.196  20.354   1.197  0.00  0.00    +0.171 C 
ATOM     10  C   UNL     1     -35.322  22.906   5.031  0.00  0.00    +0.137 C 
ATOM     11  C   UNL     1     -36.806  25.145   4.265  0.00  0.00    +0.137 C 
ATOM     12  C   UNL     1     -38.680  22.593   0.431  0.00  0.00    +0.007 C 
ATOM     13  C   UNL     1     -38.022  20.295   0.074  0.00  0.00    +0.168 C 
ATOM     14  C   UNL     1     -38.762  21.412  -0.308  0.00  0.00    +0.040 C 
ATOM     15  C   UNL     1     -35.239  24.087   5.771  0.00  0.00    +0.040 C 
ATOM     16  C   UNL     1     -35.980  25.204   5.389  0.00  0.00    +0.040 C 
ENDROOT
BRANCH   9  17
ATOM     17  O   UNL     1     -36.494  19.230   1.524  0.00  0.00    -0.503 OA
ATOM     18  H   UNL     1     -36.824  18.386   1.287  0.00  0.00    +0.292 HD
ENDBRANCH   9  17
BRANCH  10  19
ATOM     19  O   UNL     1     -34.570  21.854   5.460  0.00  0.00    -0.505 OA
ATOM     20  H   UNL     1     -33.670  21.982   5.686  0.00  0.00    +0.292 HD
ENDBRANCH  10  19
BRANCH  11  21
ATOM     21  O   UNL     1     -37.504  26.273   3.946  0.00  0.00    -0.505 OA
ATOM     22  H   UNL     1     -38.439  26.278   4.004  0.00  0.00    +0.292 HD
ENDBRANCH  11  21
BRANCH  13  23
ATOM     23  O   UNL     1     -38.117  19.151  -0.662  0.00  0.00    -0.503 OA
ATOM     24  H   UNL     1     -38.793  18.530  -0.477  0.00  0.00    +0.292 HD
ENDBRANCH  13  23
TORSDOF 4
ENDMDL
MODEL 6
REMARK VINA RESULT:      -5.9      2.158      4.566
REMARK  Name = 5004
REMARK  4 active torsions:
REMARK  status: ('A' for Active; 'I' for Inactive)
REMARK    1  A    between atoms: C_9  and  O_17
REMARK    2  A    between atoms: C_10  and  O_19
REMARK    3  A    between atoms: C_11  and  O_21
REMARK    4  A    between atoms: C_13  and  O_23
REMARK                            x       y       z     vdW  Elec       q    Type
REMARK                         _______ _______ _______ _____ _____    ______ ____
ROOT
ATOM      1  O   UNL     1     -37.637  27.020   2.226  0.00  0.00    -0.286 OA
ATOM      2  O   UNL     1     -36.332  22.040   3.657  0.00  0.00    -0.286 OA
ATOM      3  C   UNL     1     -36.142  25.617   3.371  0.00  0.00    +0.079 C 
ATOM      4  C   UNL     1     -38.185  24.739   2.132  0.00  0.00    +0.079 C 
ATOM      5  C   UNL     1     -37.849  23.434   2.502  0.00  0.00    +0.079 C 
ATOM      6  C   UNL     1     -35.806  24.312   3.740  0.00  0.00    +0.045 C 
ATOM      7  C   UNL     1     -37.343  25.878   2.553  0.00  0.00    +0.202 C 
ATOM      8  C   UNL     1     -36.647  23.174   3.320  0.00  0.00    +0.199 C 
ATOM      9  C   UNL     1     -35.336  26.687   3.778  0.00  0.00    +0.171 C 
ATOM     10  C   UNL     1     -39.326  24.973   1.356  0.00  0.00    +0.137 C 
ATOM     11  C   UNL     1     -38.655  22.364   2.096  0.00  0.00    +0.137 C 
ATOM     12  C   UNL     1     -34.664  24.078   4.518  0.00  0.00    +0.007 C 
ATOM     13  C   UNL     1     -34.199  26.449   4.551  0.00  0.00    +0.168 C 
ATOM     14  C   UNL     1     -33.863  25.148   4.920  0.00  0.00    +0.040 C 
ATOM     15  C   UNL     1     -40.128  23.903   0.954  0.00  0.00    +0.040 C 
ATOM     16  C   UNL     1     -39.793  22.602   1.324  0.00  0.00    +0.040 C 
ENDROOT
BRANCH   9  17
ATOM     17  O   UNL     1     -35.615  27.981   3.446  0.00  0.00    -0.503 OA
ATOM     18  H   UNL     1     -36.289  28.446   3.900  0.00  0.00    +0.292 HD
ENDBRANCH   9  17
BRANCH  10  19
ATOM     19  O   UNL     1     -39.712  26.218   0.958  0.00  0.00    -0.505 OA
ATOM     20  H   UNL     1     -39.104  26.778   0.518  0.00  0.00    +0.292 HD
ENDBRANCH  10  19
BRANCH  11  21
ATOM     21  O   UNL     1     -38.384  21.068   2.423  0.00  0.00    -0.505 OA
ATOM     22  H   UNL     1     -39.003  20.572   2.922  0.00  0.00    +0.292 HD
ENDBRANCH  11  21
BRANCH  13  23
ATOM     23  O   UNL     1     -33.403  27.480   4.953  0.00  0.00    -0.503 OA
ATOM     24  H   UNL     1     -32.801  27.870   4.351  0.00  0.00    +0.292 HD
ENDBRANCH  13  23
TORSDOF 4
ENDMDL
MODEL 7
REMARK VINA RESULT:      -5.9      2.655      5.954
REMARK  Name = 5004
REMARK  4 active torsions:
REMARK  status: ('A' for Active; 'I' for Inactive)
REMARK    1  A    between atoms: C_9  and  O_17
REMARK    2  A    between atoms: C_10  and  O_19
REMARK    3  A    between atoms: C_11  and  O_21
REMARK    4  A    between atoms: C_13  and  O_23
REMARK                            x       y       z     vdW  Elec       q    Type
REMARK                         _______ _______ _______ _____ _____    ______ ____
ROOT
ATOM      1  O   UNL     1     -38.268  26.317   3.375  0.00  0.00    -0.286 OA
ATOM      2  O   UNL     1     -37.388  21.167   2.251  0.00  0.00    -0.286 OA
ATOM      3  C   UNL     1     -38.828  24.454   2.058  0.00  0.00    +0.079 C 
ATOM      4  C   UNL     1     -37.043  24.376   3.872  0.00  0.00    +0.079 C 
ATOM      5  C   UNL     1     -36.808  23.030   3.584  0.00  0.00    +0.079 C 
ATOM      6  C   UNL     1     -38.593  23.108   1.770  0.00  0.00    +0.045 C 
ATOM      7  C   UNL     1     -38.062  25.138   3.120  0.00  0.00    +0.202 C 
ATOM      8  C   UNL     1     -37.575  22.346   2.522  0.00  0.00    +0.199 C 
ATOM      9  C   UNL     1     -39.795  25.164   1.337  0.00  0.00    +0.171 C 
ATOM     10  C   UNL     1     -36.311  25.013   4.881  0.00  0.00    +0.137 C 
ATOM     11  C   UNL     1     -35.841  22.320   4.304  0.00  0.00    +0.137 C 
ATOM     12  C   UNL     1     -39.326  22.471   0.760  0.00  0.00    +0.007 C 
ATOM     13  C   UNL     1     -40.523  24.526   0.332  0.00  0.00    +0.168 C 
ATOM     14  C   UNL     1     -40.289  23.183   0.044  0.00  0.00    +0.040 C 
ATOM     15  C   UNL     1     -35.346  24.301   5.597  0.00  0.00    +0.040 C 
ATOM     16  C   UNL     1     -35.112  22.958   5.309  0.00  0.00    +0.040 C 
ENDROOT
BRANCH   9  17
ATOM     17  O   UNL     1     -40.066  26.480   1.575  0.00  0.00    -0.503 OA
ATOM     18  H   UNL     1     -40.797  26.890   1.157  0.00  0.00    +0.292 HD
ENDBRANCH   9  17
BRANCH  10  19
ATOM     19  O   UNL     1     -36.489  26.322   5.216  0.00  0.00    -0.505 OA
ATOM     20  H   UNL     1     -37.348  26.694   5.212  0.00  0.00    +0.292 HD
ENDBRANCH  10  19
BRANCH  11  21
ATOM     21  O   UNL     1     -35.563  21.005   4.073  0.00  0.00    -0.505 OA
ATOM     22  H   UNL     1     -34.716  20.662   4.280  0.00  0.00    +0.292 HD
ENDBRANCH  11  21
BRANCH  13  23
ATOM     23  O   UNL     1     -41.470  25.203  -0.379  0.00  0.00    -0.503 OA
ATOM     24  H   UNL     1     -42.292  25.413   0.018  0.00  0.00    +0.292 HD
ENDBRANCH  13  23
TORSDOF 4
ENDMDL
MODEL 8
REMARK VINA RESULT:      -5.8      3.540      4.048
REMARK  Name = 5004
REMARK  4 active torsions:
REMARK  status: ('A' for Active; 'I' for Inactive)
REMARK    1  A    between atoms: C_9  and  O_17
REMARK    2  A    between atoms: C_10  and  O_19
REMARK    3  A    between atoms: C_11  and  O_21
REMARK    4  A    between atoms: C_13  and  O_23
REMARK                            x       y       z     vdW  Elec       q    Type
REMARK                         _______ _______ _______ _____ _____    ______ ____
ROOT
ATOM      1  O   UNL     1     -39.732  21.517   0.420  0.00  0.00    -0.286 OA
ATOM      2  O   UNL     1     -37.773  24.983   3.984  0.00  0.00    -0.286 OA
ATOM      3  C   UNL     1     -38.012  22.044   1.931  0.00  0.00    +0.079 C 
ATOM      4  C   UNL     1     -40.018  23.563   1.537  0.00  0.00    +0.079 C 
ATOM      5  C   UNL     1     -39.512  24.473   2.467  0.00  0.00    +0.079 C 
ATOM      6  C   UNL     1     -37.507  22.954   2.862  0.00  0.00    +0.045 C 
ATOM      7  C   UNL     1     -39.286  22.315   1.234  0.00  0.00    +0.202 C 
ATOM      8  C   UNL     1     -38.237  24.202   3.164  0.00  0.00    +0.199 C 
ATOM      9  C   UNL     1     -37.309  20.866   1.652  0.00  0.00    +0.171 C 
ATOM     10  C   UNL     1     -41.226  23.831   0.883  0.00  0.00    +0.137 C 
ATOM     11  C   UNL     1     -40.214  25.651   2.745  0.00  0.00    +0.137 C 
ATOM     12  C   UNL     1     -36.297  22.685   3.515  0.00  0.00    +0.007 C 
ATOM     13  C   UNL     1     -36.105  20.602   2.306  0.00  0.00    +0.168 C 
ATOM     14  C   UNL     1     -35.600  21.510   3.235  0.00  0.00    +0.040 C 
ATOM     15  C   UNL     1     -41.924  25.008   1.162  0.00  0.00    +0.040 C 
ATOM     16  C   UNL     1     -41.418  25.916   2.091  0.00  0.00    +0.040 C 
ENDROOT
BRANCH   9  17
ATOM     17  O   UNL     1     -37.756  19.942   0.753  0.00  0.00    -0.503 OA
ATOM     18  H   UNL     1     -38.432  19.341   0.996  0.00  0.00    +0.292 HD
ENDBRANCH   9  17
BRANCH  10  19
ATOM     19  O   UNL     1     -41.778  22.988  -0.034  0.00  0.00    -0.505 OA
ATOM     20  H   UNL     1     -42.621  22.611   0.123  0.00  0.00    +0.292 HD
ENDBRANCH  10  19
BRANCH  11  21
ATOM     21  O   UNL     1     -39.776  26.580   3.642  0.00  0.00    -0.505 OA
ATOM     22  H   UNL     1     -39.298  26.310   4.401  0.00  0.00    +0.292 HD
ENDBRANCH  11  21
BRANCH  13  23
ATOM     23  O   UNL     1     -35.409  19.459   2.048  0.00  0.00    -0.503 OA
ATOM     24  H   UNL     1     -35.390  19.108   1.180  0.00  0.00    +0.292 HD
ENDBRANCH  13  23
TORSDOF 4
ENDMDL
MODEL 9
REMARK VINA RESULT:      -5.8      2.477      4.011
REMARK  Name = 5004
REMARK  4 active torsions:
REMARK  status: ('A' for Active; 'I' for Inactive)
REMARK    1  A    between atoms: C_9  and  O_17
REMARK    2  A    between atoms: C_10  and  O_19
REMARK    3  A    between atoms: C_11  and  O_21
REMARK    4  A    between atoms: C_13  and  O_23
REMARK                            x       y       z     vdW  Elec       q    Type
REMARK                         _______ _______ _______ _____ _____    ______ ____
ROOT
ATOM      1  O   UNL     1     -35.032  23.977   5.457  0.00  0.00    -0.286 OA
ATOM      2  O   UNL     1     -33.697  24.934   0.372  0.00  0.00    -0.286 OA
ATOM      3  C   UNL     1     -35.056  23.231   3.230  0.00  0.00    +0.079 C 
ATOM      4  C   UNL     1     -34.018  25.447   3.933  0.00  0.00    +0.079 C 
ATOM      5  C   UNL     1     -33.666  25.703   2.606  0.00  0.00    +0.079 C 
ATOM      6  C   UNL     1     -34.702  23.487   1.903  0.00  0.00    +0.045 C 
ATOM      7  C   UNL     1     -34.726  24.201   4.293  0.00  0.00    +0.202 C 
ATOM      8  C   UNL     1     -33.996  24.733   1.542  0.00  0.00    +0.199 C 
ATOM      9  C   UNL     1     -35.727  22.047   3.557  0.00  0.00    +0.171 C 
ATOM     10  C   UNL     1     -33.700  26.375   4.932  0.00  0.00    +0.137 C 
ATOM     11  C   UNL     1     -32.995  26.888   2.278  0.00  0.00    +0.137 C 
ATOM     12  C   UNL     1     -35.022  22.559   0.903  0.00  0.00    +0.007 C 
ATOM     13  C   UNL     1     -36.042  21.125   2.559  0.00  0.00    +0.168 C 
ATOM     14  C   UNL     1     -35.690  21.380   1.235  0.00  0.00    +0.040 C 
ATOM     15  C   UNL     1     -33.032  27.555   4.600  0.00  0.00    +0.040 C 
ATOM     16  C   UNL     1     -32.681  27.810   3.276  0.00  0.00    +0.040 C 
ENDROOT
BRANCH   9  17
ATOM     17  O   UNL     1     -36.095  21.744   4.836  0.00  0.00    -0.503 OA
ATOM     18  H   UNL     1     -36.839  21.196   4.992  0.00  0.00    +0.292 HD
ENDBRANCH   9  17
BRANCH  10  19
ATOM     19  O   UNL     1     -34.013  26.189   6.245  0.00  0.00    -0.505 OA
ATOM     20  H   UNL     1     -34.510  25.439   6.507  0.00  0.00    +0.292 HD
ENDBRANCH  10  19
BRANCH  11  21
ATOM     21  O   UNL     1     -32.623  27.199   1.003  0.00  0.00    -0.505 OA
ATOM     22  H   UNL     1     -32.312  26.527   0.429  0.00  0.00    +0.292 HD
ENDBRANCH  11  21
BRANCH  13  23
ATOM     23  O   UNL     1     -36.694  19.966   2.861  0.00  0.00    -0.503 OA
ATOM     24  H   UNL     1     -37.628  19.927   2.810  0.00  0.00    +0.292 HD
ENDBRANCH  13  23
TORSDOF 4
ENDMDL
