MODEL 1
REMARK VINA RESULT:      -6.5      0.000      0.000
REMARK  Name = 20055410
REMARK  10 active torsions:
REMARK  status: ('A' for Active; 'I' for Inactive)
REMARK    1  A    between atoms: C_1  and  C_3
REMARK    2  A    between atoms: C_1  and  N_17
REMARK    3  A    between atoms: C_1  and  C_29
REMARK    4  A    between atoms: C_4  and  O_10
REMARK    5  A    between atoms: C_5  and  O_12
REMARK    6  A    between atoms: C_6  and  O_14
REMARK    7  A    between atoms: C_7  and  S_8
REMARK    8  A    between atoms: C_18  and  C_22
REMARK    9  A    between atoms: C_21  and  C_27
REMARK   10  A    between atoms: C_29  and  O_31
REMARK                            x       y       z     vdW  Elec       q    Type
REMARK                         _______ _______ _______ _____ _____    ______ ____
ROOT
ATOM      1  C   UNL     1     -37.320  21.818   2.330  0.00  0.00    +0.128 C 
ENDROOT
BRANCH   1   3
ATOM      2  O   UNL     1     -38.027  23.905   3.234  0.00  0.00    -0.341 OA
ATOM      3  C   UNL     1     -36.862  23.206   2.768  0.00  0.00    +0.166 C 
ATOM      4  C   UNL     1     -35.784  23.147   3.856  0.00  0.00    +0.168 C 
ATOM      5  C   UNL     1     -35.446  24.557   4.345  0.00  0.00    +0.170 C 
ATOM      6  C   UNL     1     -36.718  25.286   4.775  0.00  0.00    +0.177 C 
ATOM      7  C   UNL     1     -37.791  25.249   3.676  0.00  0.00    +0.192 C 
BRANCH   7   8
ATOM      8  S   UNL     1     -37.479  26.403   2.285  0.00  0.00    -0.109 S 
ATOM      9  C   UNL     1     -38.979  26.056   1.341  0.00  0.00    +0.072 C 
ENDBRANCH   7   8
BRANCH   4  10
ATOM     10  O   UNL     1     -36.271  22.364   4.949  0.00  0.00    -0.379 OA
ATOM     11  H   UNL     1     -35.622  21.678   5.170  0.00  0.00    +0.211 HD
ENDBRANCH   4  10
BRANCH   5  12
ATOM     12  O   UNL     1     -34.550  24.484   5.453  0.00  0.00    -0.379 OA
ATOM     13  H   UNL     1     -33.636  24.490   5.131  0.00  0.00    +0.211 HD
ENDBRANCH   5  12
BRANCH   6  14
ATOM     14  O   UNL     1     -36.431  26.628   5.155  0.00  0.00    -0.379 OA
ATOM     15  H   UNL     1     -35.477  26.785   5.089  0.00  0.00    +0.211 HD
ENDBRANCH   6  14
ENDBRANCH   1   3
BRANCH   1  17
ATOM     16  O   UNL     1     -35.048  20.136   2.991  0.00  0.00    -0.277 OA
ATOM     17  N   UNL     1     -36.350  21.254   1.418  0.00  0.00    -0.303 N 
ATOM     18  C   UNL     1     -35.295  20.459   1.833  0.00  0.00    +0.203 C 
ATOM     19  H   UNL     1     -36.444  21.444   0.457  0.00  0.00    +0.149 HD
BRANCH  18  22
ATOM     20  N   UNL     1     -33.312  20.897   0.589  0.00  0.00    +0.392 N 
ATOM     21  C   UNL     1     -32.366  18.840   1.074  0.00  0.00    -0.022 C 
ATOM     22  C   UNL     1     -34.459  19.987   0.687  0.00  0.00    +0.020 C 
ATOM     23  C   UNL     1     -33.870  18.601   0.958  0.00  0.00    -0.014 C 
ATOM     24  C   UNL     1     -32.159  20.077   0.210  0.00  0.00    -0.077 C 
ATOM     25  C   UNL     1     -33.532  21.998  -0.339  0.00  0.00    -0.100 C 
ATOM     26  H   UNL     1     -33.153  21.355   1.486  0.00  0.00    -0.079 HD
BRANCH  21  27
ATOM     27  C   UNL     1     -31.527  17.651   0.637  0.00  0.00    -0.002 C 
ATOM     28  C   UNL     1     -30.042  17.964   0.687  0.00  0.00    -0.000 C 
ENDBRANCH  21  27
ENDBRANCH  18  22
ENDBRANCH   1  17
BRANCH   1  29
ATOM     29  C   UNL     1     -38.732  21.832   1.716  0.00  0.00    +0.131 C 
ATOM     30  C   UNL     1     -38.725  21.562   0.215  0.00  0.00    +0.034 C 
BRANCH  29  31
ATOM     31  O   UNL     1     -39.568  20.855   2.333  0.00  0.00    -0.383 OA
ATOM     32  H   UNL     1     -39.886  20.232   1.662  0.00  0.00    +0.210 HD
ENDBRANCH  29  31
ENDBRANCH   1  29
TORSDOF 10
ENDMDL
MODEL 2
REMARK VINA RESULT:      -6.2      2.281      3.491
REMARK  Name = 20055410
REMARK  10 active torsions:
REMARK  status: ('A' for Active; 'I' for Inactive)
REMARK    1  A    between atoms: C_1  and  C_3
REMARK    2  A    between atoms: C_1  and  N_17
REMARK    3  A    between atoms: C_1  and  C_29
REMARK    4  A    between atoms: C_4  and  O_10
REMARK    5  A    between atoms: C_5  and  O_12
REMARK    6  A    between atoms: C_6  and  O_14
REMARK    7  A    between atoms: C_7  and  S_8
REMARK    8  A    between atoms: C_18  and  C_22
REMARK    9  A    between atoms: C_21  and  C_27
REMARK   10  A    between atoms: C_29  and  O_31
REMARK                            x       y       z     vdW  Elec       q    Type
REMARK                         _______ _______ _______ _____ _____    ______ ____
ROOT
ATOM      1  C   UNL     1     -37.129  24.287   3.842  0.00  0.00    +0.128 C 
ENDROOT
BRANCH   1   3
ATOM      2  O   UNL     1     -35.885  26.019   2.783  0.00  0.00    -0.341 OA
ATOM      3  C   UNL     1     -35.769  24.973   3.759  0.00  0.00    +0.166 C 
ATOM      4  C   UNL     1     -35.316  25.531   5.113  0.00  0.00    +0.168 C 
ATOM      5  C   UNL     1     -34.008  26.311   4.954  0.00  0.00    +0.170 C 
ATOM      6  C   UNL     1     -34.156  27.373   3.866  0.00  0.00    +0.177 C 
ATOM      7  C   UNL     1     -34.685  26.771   2.555  0.00  0.00    +0.192 C 
BRANCH   7   8
ATOM      8  S   UNL     1     -33.432  25.827   1.604  0.00  0.00    -0.109 S 
ATOM      9  C   UNL     1     -33.250  26.982   0.229  0.00  0.00    +0.072 C 
ENDBRANCH   7   8
BRANCH   4  10
ATOM     10  O   UNL     1     -36.332  26.398   5.621  0.00  0.00    -0.379 OA
ATOM     11  H   UNL     1     -36.124  27.315   5.384  0.00  0.00    +0.211 HD
ENDBRANCH   4  10
BRANCH   5  12
ATOM     12  O   UNL     1     -33.670  26.945   6.186  0.00  0.00    -0.379 OA
ATOM     13  H   UNL     1     -34.330  26.718   6.859  0.00  0.00    +0.211 HD
ENDBRANCH   5  12
BRANCH   6  14
ATOM     14  O   UNL     1     -32.924  28.052   3.648  0.00  0.00    -0.379 OA
ATOM     15  H   UNL     1     -33.028  28.685   2.922  0.00  0.00    +0.211 HD
ENDBRANCH   6  14
ENDBRANCH   1   3
BRANCH   1  17
ATOM     16  O   UNL     1     -36.113  23.224   1.338  0.00  0.00    -0.277 OA
ATOM     17  N   UNL     1     -36.993  22.896   3.468  0.00  0.00    -0.303 N 
ATOM     18  C   UNL     1     -36.494  22.487   2.242  0.00  0.00    +0.203 C 
ATOM     19  H   UNL     1     -37.268  22.207   4.115  0.00  0.00    +0.149 HD
BRANCH  18  22
ATOM     20  N   UNL     1     -36.579  20.675   0.700  0.00  0.00    +0.392 N 
ATOM     21  C   UNL     1     -34.466  19.904   1.248  0.00  0.00    -0.022 C 
ATOM     22  C   UNL     1     -36.436  20.998   2.125  0.00  0.00    +0.020 C 
ATOM     23  C   UNL     1     -35.066  20.458   2.539  0.00  0.00    -0.014 C 
ATOM     24  C   UNL     1     -35.702  19.531   0.441  0.00  0.00    -0.077 C 
ATOM     25  C   UNL     1     -37.957  20.411   0.308  0.00  0.00    -0.100 C 
ATOM     26  H   UNL     1     -36.309  21.477   0.132  0.00  0.00    -0.079 HD
BRANCH  21  27
ATOM     27  C   UNL     1     -33.517  18.740   1.471  0.00  0.00    -0.002 C 
ATOM     28  C   UNL     1     -32.182  18.963   0.782  0.00  0.00    -0.000 C 
ENDBRANCH  21  27
ENDBRANCH  18  22
ENDBRANCH   1  17
BRANCH   1  29
ATOM     29  C   UNL     1     -38.199  24.998   2.993  0.00  0.00    +0.131 C 
ATOM     30  C   UNL     1     -39.513  24.227   2.933  0.00  0.00    +0.034 C 
BRANCH  29  31
ATOM     31  O   UNL     1     -38.478  26.299   3.506  0.00  0.00    -0.383 OA
ATOM     32  H   UNL     1     -38.284  26.320   4.455  0.00  0.00    +0.210 HD
ENDBRANCH  29  31
ENDBRANCH   1  29
TORSDOF 10
ENDMDL
MODEL 3
REMARK VINA RESULT:      -6.2      4.007      6.854
REMARK  Name = 20055410
REMARK  10 active torsions:
REMARK  status: ('A' for Active; 'I' for Inactive)
REMARK    1  A    between atoms: C_1  and  C_3
REMARK    2  A    between atoms: C_1  and  N_17
REMARK    3  A    between atoms: C_1  and  C_29
REMARK    4  A    between atoms: C_4  and  O_10
REMARK    5  A    between atoms: C_5  and  O_12
REMARK    6  A    between atoms: C_6  and  O_14
REMARK    7  A    between atoms: C_7  and  S_8
REMARK    8  A    between atoms: C_18  and  C_22
REMARK    9  A    between atoms: C_21  and  C_27
REMARK   10  A    between atoms: C_29  and  O_31
REMARK                            x       y       z     vdW  Elec       q    Type
REMARK                         _______ _______ _______ _____ _____    ______ ____
ROOT
ATOM      1  C   UNL     1     -35.505  24.042   4.753  0.00  0.00    +0.128 C 
ENDROOT
BRANCH   1   3
ATOM      2  O   UNL     1     -37.642  23.582   3.807  0.00  0.00    -0.341 OA
ATOM      3  C   UNL     1     -36.396  24.240   3.531  0.00  0.00    +0.166 C 
ATOM      4  C   UNL     1     -36.617  25.722   3.206  0.00  0.00    +0.168 C 
ATOM      5  C   UNL     1     -37.609  25.869   2.050  0.00  0.00    +0.170 C 
ATOM      6  C   UNL     1     -38.896  25.106   2.359  0.00  0.00    +0.177 C 
ATOM      7  C   UNL     1     -38.610  23.648   2.751  0.00  0.00    +0.192 C 
BRANCH   7   8
ATOM      8  S   UNL     1     -38.185  22.561   1.336  0.00  0.00    -0.109 S 
ATOM      9  C   UNL     1     -39.606  21.453   1.446  0.00  0.00    +0.072 C 
ENDBRANCH   7   8
BRANCH   4  10
ATOM     10  O   UNL     1     -37.131  26.379   4.366  0.00  0.00    -0.379 OA
ATOM     11  H   UNL     1     -36.398  26.620   4.954  0.00  0.00    +0.211 HD
ENDBRANCH   4  10
BRANCH   5  12
ATOM     12  O   UNL     1     -37.918  27.247   1.850  0.00  0.00    -0.379 OA
ATOM     13  H   UNL     1     -38.875  27.351   1.733  0.00  0.00    +0.211 HD
ENDBRANCH   5  12
BRANCH   6  14
ATOM     14  O   UNL     1     -39.797  25.164   1.258  0.00  0.00    -0.379 OA
ATOM     15  H   UNL     1     -40.469  24.471   1.353  0.00  0.00    +0.211 HD
ENDBRANCH   6  14
ENDBRANCH   1   3
BRANCH   1  17
ATOM     16  O   UNL     1     -34.906  26.412   6.320  0.00  0.00    -0.277 OA
ATOM     17  N   UNL     1     -34.341  24.893   4.648  0.00  0.00    -0.303 N 
ATOM     18  C   UNL     1     -34.145  26.009   5.445  0.00  0.00    +0.203 C 
ATOM     19  H   UNL     1     -33.656  24.670   3.977  0.00  0.00    +0.149 HD
BRANCH  18  22
ATOM     20  N   UNL     1     -33.163  27.853   4.303  0.00  0.00    +0.392 N 
ATOM     21  C   UNL     1     -32.279  28.779   6.231  0.00  0.00    -0.022 C 
ATOM     22  C   UNL     1     -32.850  26.694   5.148  0.00  0.00    +0.020 C 
ATOM     23  C   UNL     1     -32.215  27.264   6.418  0.00  0.00    -0.014 C 
ATOM     24  C   UNL     1     -32.259  28.928   4.717  0.00  0.00    -0.077 C 
ATOM     25  C   UNL     1     -33.061  27.566   2.878  0.00  0.00    -0.100 C 
ATOM     26  H   UNL     1     -34.137  28.126   4.432  0.00  0.00    -0.079 HD
BRANCH  21  27
ATOM     27  C   UNL     1     -31.152  29.523   6.926  0.00  0.00    -0.002 C 
ATOM     28  C   UNL     1     -29.798  29.170   6.336  0.00  0.00    -0.000 C 
ENDBRANCH  21  27
ENDBRANCH  18  22
ENDBRANCH   1  17
BRANCH   1  29
ATOM     29  C   UNL     1     -35.110  22.568   4.960  0.00  0.00    +0.131 C 
ATOM     30  C   UNL     1     -35.490  22.043   6.340  0.00  0.00    +0.034 C 
BRANCH  29  31
ATOM     31  O   UNL     1     -35.730  21.730   3.986  0.00  0.00    -0.383 OA
ATOM     32  H   UNL     1     -35.241  20.897   3.919  0.00  0.00    +0.210 HD
ENDBRANCH  29  31
ENDBRANCH   1  29
TORSDOF 10
ENDMDL
MODEL 4
REMARK VINA RESULT:      -6.1      1.869      3.128
REMARK  Name = 20055410
REMARK  10 active torsions:
REMARK  status: ('A' for Active; 'I' for Inactive)
REMARK    1  A    between atoms: C_1  and  C_3
REMARK    2  A    between atoms: C_1  and  N_17
REMARK    3  A    between atoms: C_1  and  C_29
REMARK    4  A    between atoms: C_4  and  O_10
REMARK    5  A    between atoms: C_5  and  O_12
REMARK    6  A    between atoms: C_6  and  O_14
REMARK    7  A    between atoms: C_7  and  S_8
REMARK    8  A    between atoms: C_18  and  C_22
REMARK    9  A    between atoms: C_21  and  C_27
REMARK   10  A    between atoms: C_29  and  O_31
REMARK                            x       y       z     vdW  Elec       q    Type
REMARK                         _______ _______ _______ _____ _____    ______ ____
ROOT
ATOM      1  C   UNL     1     -35.715  23.033   3.280  0.00  0.00    +0.128 C 
ENDROOT
BRANCH   1   3
ATOM      2  O   UNL     1     -37.973  23.757   3.506  0.00  0.00    -0.341 OA
ATOM      3  C   UNL     1     -36.820  23.882   2.659  0.00  0.00    +0.166 C 
ATOM      4  C   UNL     1     -36.408  25.351   2.503  0.00  0.00    +0.168 C 
ATOM      5  C   UNL     1     -37.587  26.181   1.990  0.00  0.00    +0.170 C 
ATOM      6  C   UNL     1     -38.808  25.973   2.884  0.00  0.00    +0.177 C 
ATOM      7  C   UNL     1     -39.129  24.481   3.066  0.00  0.00    +0.192 C 
BRANCH   7   8
ATOM      8  S   UNL     1     -39.936  23.705   1.613  0.00  0.00    -0.109 S 
ATOM      9  C   UNL     1     -39.635  21.982   2.060  0.00  0.00    +0.072 C 
ENDBRANCH   7   8
BRANCH   4  10
ATOM     10  O   UNL     1     -35.987  25.851   3.774  0.00  0.00    -0.379 OA
ATOM     11  H   UNL     1     -36.235  25.221   4.468  0.00  0.00    +0.211 HD
ENDBRANCH   4  10
BRANCH   5  12
ATOM     12  O   UNL     1     -37.240  27.564   1.984  0.00  0.00    -0.379 OA
ATOM     13  H   UNL     1     -36.943  27.826   2.869  0.00  0.00    +0.211 HD
ENDBRANCH   5  12
BRANCH   6  14
ATOM     14  O   UNL     1     -39.937  26.673   2.373  0.00  0.00    -0.379 OA
ATOM     15  H   UNL     1     -40.169  26.319   1.500  0.00  0.00    +0.211 HD
ENDBRANCH   6  14
ENDBRANCH   1   3
BRANCH   1  17
ATOM     16  O   UNL     1     -34.130  22.912   0.851  0.00  0.00    -0.277 OA
ATOM     17  N   UNL     1     -35.468  21.876   2.448  0.00  0.00    -0.303 N 
ATOM     18  C   UNL     1     -34.693  21.919   1.302  0.00  0.00    +0.203 C 
ATOM     19  H   UNL     1     -35.871  21.016   2.710  0.00  0.00    +0.149 HD
BRANCH  18  22
ATOM     20  N   UNL     1     -33.723  20.753  -0.534  0.00  0.00    +0.392 N 
ATOM     21  C   UNL     1     -32.542  19.291   0.817  0.00  0.00    -0.022 C 
ATOM     22  C   UNL     1     -34.580  20.581   0.646  0.00  0.00    +0.020 C 
ATOM     23  C   UNL     1     -33.853  19.578   1.545  0.00  0.00    -0.014 C 
ATOM     24  C   UNL     1     -32.909  19.540  -0.639  0.00  0.00    -0.077 C 
ATOM     25  C   UNL     1     -34.476  21.017  -1.753  0.00  0.00    -0.100 C 
ATOM     26  H   UNL     1     -33.136  21.578  -0.421  0.00  0.00    -0.079 HD
BRANCH  21  27
ATOM     27  C   UNL     1     -31.999  17.895   1.073  0.00  0.00    -0.002 C 
ATOM     28  C   UNL     1     -32.738  16.848   0.258  0.00  0.00    -0.000 C 
ENDBRANCH  21  27
ENDBRANCH  18  22
ENDBRANCH   1  17
BRANCH   1  29
ATOM     29  C   UNL     1     -36.030  22.629   4.732  0.00  0.00    +0.131 C 
ATOM     30  C   UNL     1     -35.058  21.590   5.279  0.00  0.00    +0.034 C 
BRANCH  29  31
ATOM     31  O   UNL     1     -35.994  23.761   5.598  0.00  0.00    -0.383 OA
ATOM     32  H   UNL     1     -35.103  24.141   5.597  0.00  0.00    +0.210 HD
ENDBRANCH  29  31
ENDBRANCH   1  29
TORSDOF 10
ENDMDL
MODEL 5
REMARK VINA RESULT:      -5.9      1.776      2.621
REMARK  Name = 20055410
REMARK  10 active torsions:
REMARK  status: ('A' for Active; 'I' for Inactive)
REMARK    1  A    between atoms: C_1  and  C_3
REMARK    2  A    between atoms: C_1  and  N_17
REMARK    3  A    between atoms: C_1  and  C_29
REMARK    4  A    between atoms: C_4  and  O_10
REMARK    5  A    between atoms: C_5  and  O_12
REMARK    6  A    between atoms: C_6  and  O_14
REMARK    7  A    between atoms: C_7  and  S_8
REMARK    8  A    between atoms: C_18  and  C_22
REMARK    9  A    between atoms: C_21  and  C_27
REMARK   10  A    between atoms: C_29  and  O_31
REMARK                            x       y       z     vdW  Elec       q    Type
REMARK                         _______ _______ _______ _____ _____    ______ ____
ROOT
ATOM      1  C   UNL     1     -37.937  21.971   2.356  0.00  0.00    +0.128 C 
ENDROOT
BRANCH   1   3
ATOM      2  O   UNL     1     -38.236  24.147   3.277  0.00  0.00    -0.341 OA
ATOM      3  C   UNL     1     -37.251  23.297   2.671  0.00  0.00    +0.166 C 
ATOM      4  C   UNL     1     -36.036  23.120   3.589  0.00  0.00    +0.168 C 
ATOM      5  C   UNL     1     -35.457  24.485   3.970  0.00  0.00    +0.170 C 
ATOM      6  C   UNL     1     -36.550  25.377   4.556  0.00  0.00    +0.177 C 
ATOM      7  C   UNL     1     -37.772  25.458   3.629  0.00  0.00    +0.192 C 
BRANCH   7   8
ATOM      8  S   UNL     1     -37.535  26.537   2.165  0.00  0.00    -0.109 S 
ATOM      9  C   UNL     1     -39.146  26.263   1.398  0.00  0.00    +0.072 C 
ENDBRANCH   7   8
BRANCH   4  10
ATOM     10  O   UNL     1     -36.445  22.426   4.769  0.00  0.00    -0.379 OA
ATOM     11  H   UNL     1     -35.770  22.533   5.458  0.00  0.00    +0.211 HD
ENDBRANCH   4  10
BRANCH   5  12
ATOM     12  O   UNL     1     -34.420  24.318   4.935  0.00  0.00    -0.379 OA
ATOM     13  H   UNL     1     -34.757  24.546   5.815  0.00  0.00    +0.211 HD
ENDBRANCH   5  12
BRANCH   6  14
ATOM     14  O   UNL     1     -36.045  26.678   4.839  0.00  0.00    -0.379 OA
ATOM     15  H   UNL     1     -35.348  26.900   4.202  0.00  0.00    +0.211 HD
ENDBRANCH   6  14
ENDBRANCH   1   3
BRANCH   1  17
ATOM     16  O   UNL     1     -35.848  19.994   2.748  0.00  0.00    -0.277 OA
ATOM     17  N   UNL     1     -37.190  21.269   1.337  0.00  0.00    -0.303 N 
ATOM     18  C   UNL     1     -36.207  20.337   1.625  0.00  0.00    +0.203 C 
ATOM     19  H   UNL     1     -37.390  21.462   0.392  0.00  0.00    +0.149 HD
BRANCH  18  22
ATOM     20  N   UNL     1     -34.731  18.651   0.820  0.00  0.00    +0.392 N 
ATOM     21  C   UNL     1     -36.366  17.601  -0.438  0.00  0.00    -0.022 C 
ATOM     22  C   UNL     1     -35.612  19.744   0.389  0.00  0.00    +0.020 C 
ATOM     23  C   UNL     1     -36.682  19.094  -0.490  0.00  0.00    -0.014 C 
ATOM     24  C   UNL     1     -34.867  17.588  -0.178  0.00  0.00    -0.077 C 
ATOM     25  C   UNL     1     -33.347  19.067   0.996  0.00  0.00    -0.100 C 
ATOM     26  H   UNL     1     -35.011  18.321   1.743  0.00  0.00    -0.079 HD
BRANCH  21  27
ATOM     27  C   UNL     1     -36.767  16.852  -1.698  0.00  0.00    -0.002 C 
ATOM     28  C   UNL     1     -38.274  16.685  -1.796  0.00  0.00    -0.000 C 
ENDBRANCH  21  27
ENDBRANCH  18  22
ENDBRANCH   1  17
BRANCH   1  29
ATOM     29  C   UNL     1     -39.412  22.154   1.952  0.00  0.00    +0.131 C 
ATOM     30  C   UNL     1     -39.584  22.434   0.463  0.00  0.00    +0.034 C 
BRANCH  29  31
ATOM     31  O   UNL     1     -40.178  20.994   2.271  0.00  0.00    -0.383 OA
ATOM     32  H   UNL     1     -41.044  21.263   2.612  0.00  0.00    +0.210 HD
ENDBRANCH  29  31
ENDBRANCH   1  29
TORSDOF 10
ENDMDL
MODEL 6
REMARK VINA RESULT:      -5.9      5.396      8.099
REMARK  Name = 20055410
REMARK  10 active torsions:
REMARK  status: ('A' for Active; 'I' for Inactive)
REMARK    1  A    between atoms: C_1  and  C_3
REMARK    2  A    between atoms: C_1  and  N_17
REMARK    3  A    between atoms: C_1  and  C_29
REMARK    4  A    between atoms: C_4  and  O_10
REMARK    5  A    between atoms: C_5  and  O_12
REMARK    6  A    between atoms: C_6  and  O_14
REMARK    7  A    between atoms: C_7  and  S_8
REMARK    8  A    between atoms: C_18  and  C_22
REMARK    9  A    between atoms: C_21  and  C_27
REMARK   10  A    between atoms: C_29  and  O_31
REMARK                            x       y       z     vdW  Elec       q    Type
REMARK                         _______ _______ _______ _____ _____    ______ ____
ROOT
ATOM      1  C   UNL     1     -32.323  27.318   3.207  0.00  0.00    +0.128 C 
ENDROOT
BRANCH   1   3
ATOM      2  O   UNL     1     -30.368  28.609   3.638  0.00  0.00    -0.341 OA
ATOM      3  C   UNL     1     -31.292  27.705   4.263  0.00  0.00    +0.166 C 
ATOM      4  C   UNL     1     -31.936  28.344   5.499  0.00  0.00    +0.168 C 
ATOM      5  C   UNL     1     -30.856  28.821   6.472  0.00  0.00    +0.170 C 
ATOM      6  C   UNL     1     -29.862  29.731   5.753  0.00  0.00    +0.177 C 
ATOM      7  C   UNL     1     -29.306  29.070   4.483  0.00  0.00    +0.192 C 
BRANCH   7   8
ATOM      8  S   UNL     1     -28.045  27.776   4.800  0.00  0.00    -0.109 S 
ATOM      9  C   UNL     1     -27.330  27.722   3.144  0.00  0.00    +0.072 C 
ENDBRANCH   7   8
BRANCH   4  10
ATOM     10  O   UNL     1     -32.733  29.455   5.083  0.00  0.00    -0.379 OA
ATOM     11  H   UNL     1     -32.325  30.279   5.392  0.00  0.00    +0.211 HD
ENDBRANCH   4  10
BRANCH   5  12
ATOM     12  O   UNL     1     -31.457  29.540   7.548  0.00  0.00    -0.379 OA
ATOM     13  H   UNL     1     -31.897  28.918   8.147  0.00  0.00    +0.211 HD
ENDBRANCH   5  12
BRANCH   6  14
ATOM     14  O   UNL     1     -28.805  30.117   6.625  0.00  0.00    -0.379 OA
ATOM     15  H   UNL     1     -29.174  30.559   7.405  0.00  0.00    +0.211 HD
ENDBRANCH   6  14
ENDBRANCH   1   3
BRANCH   1  17
ATOM     16  O   UNL     1     -35.079  28.226   3.302  0.00  0.00    -0.277 OA
ATOM     17  N   UNL     1     -33.443  26.660   3.842  0.00  0.00    -0.303 N 
ATOM     18  C   UNL     1     -34.728  27.175   3.832  0.00  0.00    +0.203 C 
ATOM     19  H   UNL     1     -33.285  25.804   4.302  0.00  0.00    +0.149 HD
BRANCH  18  22
ATOM     20  N   UNL     1     -36.239  25.359   3.534  0.00  0.00    +0.392 N 
ATOM     21  C   UNL     1     -35.131  23.987   5.034  0.00  0.00    -0.022 C 
ATOM     22  C   UNL     1     -35.699  26.284   4.537  0.00  0.00    +0.020 C 
ATOM     23  C   UNL     1     -34.999  25.408   5.578  0.00  0.00    -0.014 C 
ATOM     24  C   UNL     1     -36.404  24.067   4.203  0.00  0.00    -0.077 C 
ATOM     25  C   UNL     1     -37.478  25.828   2.930  0.00  0.00    -0.100 C 
ATOM     26  H   UNL     1     -35.593  25.282   2.749  0.00  0.00    -0.079 HD
BRANCH  21  27
ATOM     27  C   UNL     1     -35.184  22.925   6.119  0.00  0.00    -0.002 C 
ATOM     28  C   UNL     1     -35.128  21.523   5.536  0.00  0.00    -0.000 C 
ENDBRANCH  21  27
ENDBRANCH  18  22
ENDBRANCH   1  17
BRANCH   1  29
ATOM     29  C   UNL     1     -31.720  26.452   2.086  0.00  0.00    +0.131 C 
ATOM     30  C   UNL     1     -31.661  27.177   0.746  0.00  0.00    +0.034 C 
BRANCH  29  31
ATOM     31  O   UNL     1     -30.397  26.035   2.416  0.00  0.00    -0.383 OA
ATOM     32  H   UNL     1     -29.787  26.307   1.714  0.00  0.00    +0.210 HD
ENDBRANCH  29  31
ENDBRANCH   1  29
TORSDOF 10
ENDMDL
MODEL 7
REMARK VINA RESULT:      -5.7      3.695      7.036
REMARK  Name = 20055410
REMARK  10 active torsions:
REMARK  status: ('A' for Active; 'I' for Inactive)
REMARK    1  A    between atoms: C_1  and  C_3
REMARK    2  A    between atoms: C_1  and  N_17
REMARK    3  A    between atoms: C_1  and  C_29
REMARK    4  A    between atoms: C_4  and  O_10
REMARK    5  A    between atoms: C_5  and  O_12
REMARK    6  A    between atoms: C_6  and  O_14
REMARK    7  A    between atoms: C_7  and  S_8
REMARK    8  A    between atoms: C_18  and  C_22
REMARK    9  A    between atoms: C_21  and  C_27
REMARK   10  A    between atoms: C_29  and  O_31
REMARK                            x       y       z     vdW  Elec       q    Type
REMARK                         _______ _______ _______ _____ _____    ______ ____
ROOT
ATOM      1  C   UNL     1     -36.259  24.358   3.910  0.00  0.00    +0.128 C 
ENDROOT
BRANCH   1   3
ATOM      2  O   UNL     1     -37.645  22.586   3.128  0.00  0.00    -0.341 OA
ATOM      3  C   UNL     1     -37.239  23.929   2.823  0.00  0.00    +0.166 C 
ATOM      4  C   UNL     1     -38.452  24.863   2.731  0.00  0.00    +0.168 C 
ATOM      5  C   UNL     1     -39.459  24.325   1.713  0.00  0.00    +0.170 C 
ATOM      6  C   UNL     1     -39.818  22.876   2.040  0.00  0.00    +0.177 C 
ATOM      7  C   UNL     1     -38.564  22.003   2.194  0.00  0.00    +0.192 C 
BRANCH   7   8
ATOM      8  S   UNL     1     -37.763  21.552   0.607  0.00  0.00    -0.109 S 
ATOM      9  C   UNL     1     -36.391  20.597   1.289  0.00  0.00    +0.072 C 
ENDBRANCH   7   8
BRANCH   4  10
ATOM     10  O   UNL     1     -39.069  24.948   4.018  0.00  0.00    -0.379 OA
ATOM     11  H   UNL     1     -38.786  25.764   4.459  0.00  0.00    +0.211 HD
ENDBRANCH   4  10
BRANCH   5  12
ATOM     12  O   UNL     1     -40.644  25.118   1.738  0.00  0.00    -0.379 OA
ATOM     13  H   UNL     1     -40.415  26.035   1.952  0.00  0.00    +0.211 HD
ENDBRANCH   5  12
BRANCH   6  14
ATOM     14  O   UNL     1     -40.691  22.334   1.055  0.00  0.00    -0.379 OA
ATOM     15  H   UNL     1     -40.364  21.466   0.775  0.00  0.00    +0.211 HD
ENDBRANCH   6  14
ENDBRANCH   1   3
BRANCH   1  17
ATOM     16  O   UNL     1     -35.565  26.936   5.052  0.00  0.00    -0.277 OA
ATOM     17  N   UNL     1     -35.340  25.338   3.374  0.00  0.00    -0.303 N 
ATOM     18  C   UNL     1     -35.074  26.546   3.997  0.00  0.00    +0.203 C 
ATOM     19  H   UNL     1     -34.881  25.136   2.526  0.00  0.00    +0.149 HD
BRANCH  18  22
ATOM     20  N   UNL     1     -34.518  28.755   3.303  0.00  0.00    +0.392 N 
ATOM     21  C   UNL     1     -32.490  28.764   4.420  0.00  0.00    -0.022 C 
ATOM     22  C   UNL     1     -34.069  27.359   3.246  0.00  0.00    +0.020 C 
ATOM     23  C   UNL     1     -32.702  27.332   3.933  0.00  0.00    -0.014 C 
ATOM     24  C   UNL     1     -33.312  29.576   3.430  0.00  0.00    -0.077 C 
ATOM     25  C   UNL     1     -35.330  29.143   2.158  0.00  0.00    -0.100 C 
ATOM     26  H   UNL     1     -35.136  28.889   4.103  0.00  0.00    -0.079 HD
BRANCH  21  27
ATOM     27  C   UNL     1     -31.029  29.176   4.474  0.00  0.00    -0.002 C 
ATOM     28  C   UNL     1     -30.808  30.337   5.428  0.00  0.00    -0.000 C 
ENDBRANCH  21  27
ENDBRANCH  18  22
ENDBRANCH   1  17
BRANCH   1  29
ATOM     29  C   UNL     1     -35.511  23.164   4.532  0.00  0.00    +0.131 C 
ATOM     30  C   UNL     1     -34.221  23.575   5.231  0.00  0.00    +0.034 C 
BRANCH  29  31
ATOM     31  O   UNL     1     -36.330  22.488   5.485  0.00  0.00    -0.383 OA
ATOM     32  H   UNL     1     -35.826  21.764   5.887  0.00  0.00    +0.210 HD
ENDBRANCH  29  31
ENDBRANCH   1  29
TORSDOF 10
ENDMDL
MODEL 8
REMARK VINA RESULT:      -5.6      4.461      6.256
REMARK  Name = 20055410
REMARK  10 active torsions:
REMARK  status: ('A' for Active; 'I' for Inactive)
REMARK    1  A    between atoms: C_1  and  C_3
REMARK    2  A    between atoms: C_1  and  N_17
REMARK    3  A    between atoms: C_1  and  C_29
REMARK    4  A    between atoms: C_4  and  O_10
REMARK    5  A    between atoms: C_5  and  O_12
REMARK    6  A    between atoms: C_6  and  O_14
REMARK    7  A    between atoms: C_7  and  S_8
REMARK    8  A    between atoms: C_18  and  C_22
REMARK    9  A    between atoms: C_21  and  C_27
REMARK   10  A    between atoms: C_29  and  O_31
REMARK                            x       y       z     vdW  Elec       q    Type
REMARK                         _______ _______ _______ _____ _____    ______ ____
ROOT
ATOM      1  C   UNL     1     -34.803  27.686   3.184  0.00  0.00    +0.128 C 
ENDROOT
BRANCH   1   3
ATOM      2  O   UNL     1     -33.916  29.778   3.898  0.00  0.00    -0.341 OA
ATOM      3  C   UNL     1     -33.528  28.503   3.363  0.00  0.00    +0.166 C 
ATOM      4  C   UNL     1     -32.514  27.808   4.280  0.00  0.00    +0.168 C 
ATOM      5  C   UNL     1     -31.308  28.718   4.523  0.00  0.00    +0.170 C 
ATOM      6  C   UNL     1     -31.770  30.082   5.034  0.00  0.00    +0.177 C 
ATOM      7  C   UNL     1     -32.838  30.698   4.118  0.00  0.00    +0.192 C 
BRANCH   7   8
ATOM      8  S   UNL     1     -32.176  31.395   2.556  0.00  0.00    -0.109 S 
ATOM      9  C   UNL     1     -33.454  32.640   2.285  0.00  0.00    +0.072 C 
ENDBRANCH   7   8
BRANCH   4  10
ATOM     10  O   UNL     1     -33.147  27.507   5.525  0.00  0.00    -0.379 OA
ATOM     11  H   UNL     1     -32.471  27.329   6.198  0.00  0.00    +0.211 HD
ENDBRANCH   4  10
BRANCH   5  12
ATOM     12  O   UNL     1     -30.441  28.125   5.488  0.00  0.00    -0.379 OA
ATOM     13  H   UNL     1     -29.560  28.523   5.419  0.00  0.00    +0.211 HD
ENDBRANCH   5  12
BRANCH   6  14
ATOM     14  O   UNL     1     -30.665  30.967   5.187  0.00  0.00    -0.379 OA
ATOM     15  H   UNL     1     -29.942  30.506   5.638  0.00  0.00    +0.211 HD
ENDBRANCH   6  14
ENDBRANCH   1   3
BRANCH   1  17
ATOM     16  O   UNL     1     -36.473  25.530   4.178  0.00  0.00    -0.277 OA
ATOM     17  N   UNL     1     -34.484  26.276   3.227  0.00  0.00    -0.303 N 
ATOM     18  C   UNL     1     -35.353  25.319   3.722  0.00  0.00    +0.203 C 
ATOM     19  H   UNL     1     -33.608  25.983   2.887  0.00  0.00    +0.149 HD
BRANCH  18  22
ATOM     20  N   UNL     1     -35.648  23.065   4.433  0.00  0.00    +0.392 N 
ATOM     21  C   UNL     1     -35.873  22.250   2.278  0.00  0.00    -0.022 C 
ATOM     22  C   UNL     1     -34.787  23.939   3.626  0.00  0.00    +0.020 C 
ATOM     23  C   UNL     1     -34.870  23.399   2.196  0.00  0.00    -0.014 C 
ATOM     24  C   UNL     1     -35.731  21.788   3.721  0.00  0.00    -0.077 C 
ATOM     25  C   UNL     1     -35.175  22.903   5.801  0.00  0.00    -0.100 C 
ATOM     26  H   UNL     1     -36.571  23.485   4.537  0.00  0.00    -0.079 HD
BRANCH  21  27
ATOM     27  C   UNL     1     -35.617  21.149   1.263  0.00  0.00    -0.002 C 
ATOM     28  C   UNL     1     -34.772  20.030   1.849  0.00  0.00    -0.000 C 
ENDBRANCH  21  27
ENDBRANCH  18  22
ENDBRANCH   1  17
BRANCH   1  29
ATOM     29  C   UNL     1     -35.562  28.055   1.896  0.00  0.00    +0.131 C 
ATOM     30  C   UNL     1     -35.026  27.329   0.667  0.00  0.00    +0.034 C 
BRANCH  29  31
ATOM     31  O   UNL     1     -36.950  27.751   2.014  0.00  0.00    -0.383 OA
ATOM     32  H   UNL     1     -37.062  26.798   2.144  0.00  0.00    +0.210 HD
ENDBRANCH  29  31
ENDBRANCH   1  29
TORSDOF 10
ENDMDL
MODEL 9
REMARK VINA RESULT:      -5.6      2.026      2.595
REMARK  Name = 20055410
REMARK  10 active torsions:
REMARK  status: ('A' for Active; 'I' for Inactive)
REMARK    1  A    between atoms: C_1  and  C_3
REMARK    2  A    between atoms: C_1  and  N_17
REMARK    3  A    between atoms: C_1  and  C_29
REMARK    4  A    between atoms: C_4  and  O_10
REMARK    5  A    between atoms: C_5  and  O_12
REMARK    6  A    between atoms: C_6  and  O_14
REMARK    7  A    between atoms: C_7  and  S_8
REMARK    8  A    between atoms: C_18  and  C_22
REMARK    9  A    between atoms: C_21  and  C_27
REMARK   10  A    between atoms: C_29  and  O_31
REMARK                            x       y       z     vdW  Elec       q    Type
REMARK                         _______ _______ _______ _____ _____    ______ ____
ROOT
ATOM      1  C   UNL     1     -38.059  22.736   2.594  0.00  0.00    +0.128 C 
ENDROOT
BRANCH   1   3
ATOM      2  O   UNL     1     -37.231  24.748   1.625  0.00  0.00    -0.341 OA
ATOM      3  C   UNL     1     -37.043  23.864   2.741  0.00  0.00    +0.166 C 
ATOM      4  C   UNL     1     -37.194  24.614   4.070  0.00  0.00    +0.168 C 
ATOM      5  C   UNL     1     -36.237  25.807   4.118  0.00  0.00    +0.170 C 
ATOM      6  C   UNL     1     -36.429  26.688   2.884  0.00  0.00    +0.177 C 
ATOM      7  C   UNL     1     -36.342  25.872   1.586  0.00  0.00    +0.192 C 
BRANCH   7   8
ATOM      8  S   UNL     1     -34.634  25.403   1.108  0.00  0.00    -0.109 S 
ATOM      9  C   UNL     1     -34.491  26.459  -0.349  0.00  0.00    +0.072 C 
ENDBRANCH   7   8
BRANCH   4  10
ATOM     10  O   UNL     1     -38.542  25.076   4.190  0.00  0.00    -0.379 OA
ATOM     11  H   UNL     1     -38.575  25.820   4.811  0.00  0.00    +0.211 HD
ENDBRANCH   4  10
BRANCH   5  12
ATOM     12  O   UNL     1     -36.484  26.580   5.290  0.00  0.00    -0.379 OA
ATOM     13  H   UNL     1     -35.745  26.476   5.908  0.00  0.00    +0.211 HD
ENDBRANCH   5  12
BRANCH   6  14
ATOM     14  O   UNL     1     -35.488  27.757   2.873  0.00  0.00    -0.379 OA
ATOM     15  H   UNL     1     -34.592  27.400   2.968  0.00  0.00    +0.211 HD
ENDBRANCH   6  14
ENDBRANCH   1   3
BRANCH   1  17
ATOM     16  O   UNL     1     -36.182  21.952   0.522  0.00  0.00    -0.277 OA
ATOM     17  N   UNL     1     -37.365  21.473   2.468  0.00  0.00    -0.303 N 
ATOM     18  C   UNL     1     -36.484  21.193   1.438  0.00  0.00    +0.203 C 
ATOM     19  H   UNL     1     -37.527  20.779   3.148  0.00  0.00    +0.149 HD
BRANCH  18  22
ATOM     20  N   UNL     1     -35.886  19.237   0.217  0.00  0.00    +0.392 N 
ATOM     21  C   UNL     1     -33.644  19.386   0.772  0.00  0.00    -0.022 C 
ATOM     22  C   UNL     1     -35.886  19.828   1.561  0.00  0.00    +0.020 C 
ATOM     23  C   UNL     1     -34.418  19.898   1.985  0.00  0.00    -0.014 C 
ATOM     24  C   UNL     1     -34.650  18.461   0.103  0.00  0.00    -0.077 C 
ATOM     25  C   UNL     1     -37.069  18.432  -0.053  0.00  0.00    -0.100 C 
ATOM     26  H   UNL     1     -35.921  19.973  -0.487  0.00  0.00    -0.079 HD
BRANCH  21  27
ATOM     27  C   UNL     1     -32.338  18.698   1.132  0.00  0.00    -0.002 C 
ATOM     28  C   UNL     1     -32.222  17.334   0.475  0.00  0.00    -0.000 C 
ENDBRANCH  21  27
ENDBRANCH  18  22
ENDBRANCH   1  17
BRANCH   1  29
ATOM     29  C   UNL     1     -39.028  22.967   1.420  0.00  0.00    +0.131 C 
ATOM     30  C   UNL     1     -39.879  21.741   1.107  0.00  0.00    +0.034 C 
BRANCH  29  31
ATOM     31  O   UNL     1     -39.910  24.055   1.690  0.00  0.00    -0.383 OA
ATOM     32  H   UNL     1     -39.808  24.731   1.004  0.00  0.00    +0.210 HD
ENDBRANCH  29  31
ENDBRANCH   1  29
TORSDOF 10
ENDMDL
