MODEL 1
REMARK VINA RESULT:      -6.6      0.000      0.000
REMARK  Name = 5280445
REMARK  5 active torsions:
REMARK  status: ('A' for Active; 'I' for Inactive)
REMARK    1  A    between atoms: C_5  and  C_12
REMARK    2  A    between atoms: C_8  and  O_22
REMARK    3  A    between atoms: C_10  and  O_24
REMARK    4  A    between atoms: C_15  and  O_18
REMARK    5  A    between atoms: C_17  and  O_20
REMARK                            x       y       z     vdW  Elec       q    Type
REMARK                         _______ _______ _______ _____ _____    ______ ____
ROOT
ATOM      1  O   UNL     1     -33.458  26.188   4.995  0.00  0.00    -0.453 OA
ATOM      2  O   UNL     1     -33.511  28.820   1.884  0.00  0.00    -0.286 OA
ATOM      3  C   UNL     1     -32.907  28.389   4.128  0.00  0.00    +0.107 C 
ATOM      4  C   UNL     1     -32.921  27.441   5.150  0.00  0.00    +0.154 C 
ATOM      5  C   UNL     1     -34.018  25.856   3.770  0.00  0.00    +0.149 C 
ATOM      6  C   UNL     1     -33.491  28.038   2.825  0.00  0.00    +0.205 C 
ATOM      7  C   UNL     1     -34.059  26.679   2.710  0.00  0.00    +0.080 C 
ATOM      8  C   UNL     1     -32.345  29.650   4.343  0.00  0.00    +0.143 C 
ATOM      9  C   UNL     1     -32.371  27.748   6.395  0.00  0.00    +0.074 C 
ATOM     10  C   UNL     1     -31.809  29.007   6.612  0.00  0.00    +0.140 C 
ATOM     11  C   UNL     1     -31.797  29.955   5.589  0.00  0.00    +0.073 C 
ENDROOT
BRANCH   5  12
ATOM     12  C   UNL     1     -34.561  24.484   3.711  0.00  0.00    +0.038 C 
ATOM     13  C   UNL     1     -35.001  23.852   4.876  0.00  0.00    +0.043 C 
ATOM     14  C   UNL     1     -34.636  23.812   2.489  0.00  0.00    +0.006 C 
ATOM     15  C   UNL     1     -35.514  22.557   4.820  0.00  0.00    +0.168 C 
ATOM     16  C   UNL     1     -35.150  22.516   2.432  0.00  0.00    +0.040 C 
ATOM     17  C   UNL     1     -35.589  21.889   3.597  0.00  0.00    +0.167 C 
BRANCH  15  18
ATOM     18  O   UNL     1     -35.938  21.953   5.965  0.00  0.00    -0.503 OA
ATOM     19  H   UNL     1     -36.777  21.535   5.991  0.00  0.00    +0.292 HD
ENDBRANCH  15  18
BRANCH  17  20
ATOM     20  O   UNL     1     -36.088  20.623   3.529  0.00  0.00    -0.503 OA
ATOM     21  H   UNL     1     -35.506  19.892   3.471  0.00  0.00    +0.292 HD
ENDBRANCH  17  20
ENDBRANCH   5  12
BRANCH   8  22
ATOM     22  O   UNL     1     -32.307  30.610   3.378  0.00  0.00    -0.505 OA
ATOM     23  H   UNL     1     -32.374  30.370   2.474  0.00  0.00    +0.292 HD
ENDBRANCH   8  22
BRANCH  10  24
ATOM     24  O   UNL     1     -31.272  29.310   7.826  0.00  0.00    -0.505 OA
ATOM     25  H   UNL     1     -31.226  28.654   8.494  0.00  0.00    +0.292 HD
ENDBRANCH  10  24
TORSDOF 5
ENDMDL
MODEL 2
REMARK VINA RESULT:      -6.3      2.277      3.546
REMARK  Name = 5280445
REMARK  5 active torsions:
REMARK  status: ('A' for Active; 'I' for Inactive)
REMARK    1  A    between atoms: C_5  and  C_12
REMARK    2  A    between atoms: C_8  and  O_22
REMARK    3  A    between atoms: C_10  and  O_24
REMARK    4  A    between atoms: C_15  and  O_18
REMARK    5  A    between atoms: C_17  and  O_20
REMARK                            x       y       z     vdW  Elec       q    Type
REMARK                         _______ _______ _______ _____ _____    ______ ____
ROOT
ATOM      1  O   UNL     1     -34.844  26.365   3.536  0.00  0.00    -0.453 OA
ATOM      2  O   UNL     1     -38.073  27.336   1.249  0.00  0.00    -0.286 OA
ATOM      3  C   UNL     1     -35.995  28.000   2.157  0.00  0.00    +0.107 C 
ATOM      4  C   UNL     1     -34.919  27.603   2.949  0.00  0.00    +0.154 C 
ATOM      5  C   UNL     1     -35.888  25.475   3.336  0.00  0.00    +0.149 C 
ATOM      6  C   UNL     1     -37.100  27.055   1.935  0.00  0.00    +0.205 C 
ATOM      7  C   UNL     1     -36.973  25.737   2.590  0.00  0.00    +0.080 C 
ATOM      8  C   UNL     1     -36.017  29.274   1.584  0.00  0.00    +0.143 C 
ATOM      9  C   UNL     1     -33.857  28.479   3.174  0.00  0.00    +0.074 C 
ATOM     10  C   UNL     1     -33.876  29.752   2.603  0.00  0.00    +0.140 C 
ATOM     11  C   UNL     1     -34.954  30.148   1.811  0.00  0.00    +0.073 C 
ENDROOT
BRANCH   5  12
ATOM     12  C   UNL     1     -35.703  24.172   4.007  0.00  0.00    +0.038 C 
ATOM     13  C   UNL     1     -35.872  22.984   3.291  0.00  0.00    +0.043 C 
ATOM     14  C   UNL     1     -35.360  24.122   5.360  0.00  0.00    +0.006 C 
ATOM     15  C   UNL     1     -35.698  21.754   3.924  0.00  0.00    +0.168 C 
ATOM     16  C   UNL     1     -35.185  22.891   5.993  0.00  0.00    +0.040 C 
ATOM     17  C   UNL     1     -35.353  21.708   5.276  0.00  0.00    +0.167 C 
BRANCH  15  18
ATOM     18  O   UNL     1     -35.866  20.604   3.213  0.00  0.00    -0.503 OA
ATOM     19  H   UNL     1     -35.359  19.845   3.424  0.00  0.00    +0.292 HD
ENDBRANCH  15  18
BRANCH  17  20
ATOM     20  O   UNL     1     -35.179  20.512   5.905  0.00  0.00    -0.503 OA
ATOM     21  H   UNL     1     -35.446  19.718   5.485  0.00  0.00    +0.292 HD
ENDBRANCH  17  20
ENDBRANCH   5  12
BRANCH   8  22
ATOM     22  O   UNL     1     -37.044  29.709   0.802  0.00  0.00    -0.505 OA
ATOM     23  H   UNL     1     -37.016  30.567   0.426  0.00  0.00    +0.292 HD
ENDBRANCH   8  22
BRANCH  10  24
ATOM     24  O   UNL     1     -32.841  30.609   2.820  0.00  0.00    -0.505 OA
ATOM     25  H   UNL     1     -32.904  31.257   3.494  0.00  0.00    +0.292 HD
ENDBRANCH  10  24
TORSDOF 5
ENDMDL
MODEL 3
REMARK VINA RESULT:      -6.3      4.132      9.011
REMARK  Name = 5280445
REMARK  5 active torsions:
REMARK  status: ('A' for Active; 'I' for Inactive)
REMARK    1  A    between atoms: C_5  and  C_12
REMARK    2  A    between atoms: C_8  and  O_22
REMARK    3  A    between atoms: C_10  and  O_24
REMARK    4  A    between atoms: C_15  and  O_18
REMARK    5  A    between atoms: C_17  and  O_20
REMARK                            x       y       z     vdW  Elec       q    Type
REMARK                         _______ _______ _______ _____ _____    ______ ____
ROOT
ATOM      1  O   UNL     1     -37.326  21.673   1.816  0.00  0.00    -0.453 OA
ATOM      2  O   UNL     1     -34.087  19.208   1.649  0.00  0.00    -0.286 OA
ATOM      3  C   UNL     1     -36.282  19.677   0.910  0.00  0.00    +0.107 C 
ATOM      4  C   UNL     1     -37.354  20.562   1.013  0.00  0.00    +0.154 C 
ATOM      5  C   UNL     1     -36.184  21.921   2.563  0.00  0.00    +0.149 C 
ATOM      6  C   UNL     1     -35.065  19.940   1.693  0.00  0.00    +0.205 C 
ATOM      7  C   UNL     1     -35.087  21.148   2.544  0.00  0.00    +0.080 C 
ATOM      8  C   UNL     1     -36.366  18.560   0.075  0.00  0.00    +0.143 C 
ATOM      9  C   UNL     1     -38.519  20.335   0.279  0.00  0.00    +0.074 C 
ATOM     10  C   UNL     1     -38.606  19.221  -0.556  0.00  0.00    +0.140 C 
ATOM     11  C   UNL     1     -37.533  18.336  -0.658  0.00  0.00    +0.073 C 
ENDROOT
BRANCH   5  12
ATOM     12  C   UNL     1     -36.259  23.145   3.387  0.00  0.00    +0.038 C 
ATOM     13  C   UNL     1     -37.216  24.122   3.106  0.00  0.00    +0.043 C 
ATOM     14  C   UNL     1     -35.372  23.329   4.450  0.00  0.00    +0.006 C 
ATOM     15  C   UNL     1     -37.287  25.277   3.884  0.00  0.00    +0.168 C 
ATOM     16  C   UNL     1     -35.442  24.485   5.228  0.00  0.00    +0.040 C 
ATOM     17  C   UNL     1     -36.400  25.459   4.945  0.00  0.00    +0.167 C 
BRANCH  15  18
ATOM     18  O   UNL     1     -38.226  26.223   3.598  0.00  0.00    -0.503 OA
ATOM     19  H   UNL     1     -38.020  27.132   3.697  0.00  0.00    +0.292 HD
ENDBRANCH  15  18
BRANCH  17  20
ATOM     20  O   UNL     1     -36.459  26.582   5.713  0.00  0.00    -0.503 OA
ATOM     21  H   UNL     1     -37.248  27.088   5.743  0.00  0.00    +0.292 HD
ENDBRANCH  17  20
ENDBRANCH   5  12
BRANCH   8  22
ATOM     22  O   UNL     1     -35.347  17.666  -0.060  0.00  0.00    -0.505 OA
ATOM     23  H   UNL     1     -35.390  17.002  -0.721  0.00  0.00    +0.292 HD
ENDBRANCH   8  22
BRANCH  10  24
ATOM     24  O   UNL     1     -39.741  18.997  -1.274  0.00  0.00    -0.505 OA
ATOM     25  H   UNL     1     -39.705  18.488  -2.059  0.00  0.00    +0.292 HD
ENDBRANCH  10  24
TORSDOF 5
ENDMDL
MODEL 4
REMARK VINA RESULT:      -6.3      1.185      2.638
REMARK  Name = 5280445
REMARK  5 active torsions:
REMARK  status: ('A' for Active; 'I' for Inactive)
REMARK    1  A    between atoms: C_5  and  C_12
REMARK    2  A    between atoms: C_8  and  O_22
REMARK    3  A    between atoms: C_10  and  O_24
REMARK    4  A    between atoms: C_15  and  O_18
REMARK    5  A    between atoms: C_17  and  O_20
REMARK                            x       y       z     vdW  Elec       q    Type
REMARK                         _______ _______ _______ _____ _____    ______ ____
ROOT
ATOM      1  O   UNL     1     -33.524  26.157   3.608  0.00  0.00    -0.453 OA
ATOM      2  O   UNL     1     -32.938  27.395   7.446  0.00  0.00    -0.286 OA
ATOM      3  C   UNL     1     -32.706  27.855   5.140  0.00  0.00    +0.107 C 
ATOM      4  C   UNL     1     -32.936  27.372   3.852  0.00  0.00    +0.154 C 
ATOM      5  C   UNL     1     -33.896  25.374   4.690  0.00  0.00    +0.149 C 
ATOM      6  C   UNL     1     -33.108  27.032   6.290  0.00  0.00    +0.205 C 
ATOM      7  C   UNL     1     -33.733  25.731   5.974  0.00  0.00    +0.080 C 
ATOM      8  C   UNL     1     -32.103  29.102   5.328  0.00  0.00    +0.143 C 
ATOM      9  C   UNL     1     -32.565  28.134   2.744  0.00  0.00    +0.074 C 
ATOM     10  C   UNL     1     -31.964  29.379   2.930  0.00  0.00    +0.140 C 
ATOM     11  C   UNL     1     -31.734  29.862   4.218  0.00  0.00    +0.073 C 
ENDROOT
BRANCH   5  12
ATOM     12  C   UNL     1     -34.524  24.090   4.315  0.00  0.00    +0.038 C 
ATOM     13  C   UNL     1     -34.740  23.106   5.282  0.00  0.00    +0.043 C 
ATOM     14  C   UNL     1     -34.902  23.856   2.991  0.00  0.00    +0.006 C 
ATOM     15  C   UNL     1     -35.332  21.894   4.928  0.00  0.00    +0.168 C 
ATOM     16  C   UNL     1     -35.495  22.643   2.637  0.00  0.00    +0.040 C 
ATOM     17  C   UNL     1     -35.710  21.663   3.605  0.00  0.00    +0.167 C 
BRANCH  15  18
ATOM     18  O   UNL     1     -35.536  20.943   5.882  0.00  0.00    -0.503 OA
ATOM     19  H   UNL     1     -35.168  21.051   6.737  0.00  0.00    +0.292 HD
ENDBRANCH  15  18
BRANCH  17  20
ATOM     20  O   UNL     1     -36.290  20.484   3.247  0.00  0.00    -0.503 OA
ATOM     21  H   UNL     1     -36.294  19.763   3.845  0.00  0.00    +0.292 HD
ENDBRANCH  17  20
ENDBRANCH   5  12
BRANCH   8  22
ATOM     22  O   UNL     1     -31.857  29.618   6.565  0.00  0.00    -0.505 OA
ATOM     23  H   UNL     1     -31.212  29.222   7.118  0.00  0.00    +0.292 HD
ENDBRANCH   8  22
BRANCH  10  24
ATOM     24  O   UNL     1     -31.602  30.126   1.850  0.00  0.00    -0.505 OA
ATOM     25  H   UNL     1     -31.898  31.011   1.772  0.00  0.00    +0.292 HD
ENDBRANCH  10  24
TORSDOF 5
ENDMDL
MODEL 5
REMARK VINA RESULT:      -6.3      4.283      8.628
REMARK  Name = 5280445
REMARK  5 active torsions:
REMARK  status: ('A' for Active; 'I' for Inactive)
REMARK    1  A    between atoms: C_5  and  C_12
REMARK    2  A    between atoms: C_8  and  O_22
REMARK    3  A    between atoms: C_10  and  O_24
REMARK    4  A    between atoms: C_15  and  O_18
REMARK    5  A    between atoms: C_17  and  O_20
REMARK                            x       y       z     vdW  Elec       q    Type
REMARK                         _______ _______ _______ _____ _____    ______ ____
ROOT
ATOM      1  O   UNL     1     -35.017  20.965   2.404  0.00  0.00    -0.453 OA
ATOM      2  O   UNL     1     -38.054  19.911  -0.100  0.00  0.00    -0.286 OA
ATOM      3  C   UNL     1     -35.876  19.463   0.700  0.00  0.00    +0.107 C 
ATOM      4  C   UNL     1     -34.877  19.877   1.580  0.00  0.00    +0.154 C 
ATOM      5  C   UNL     1     -36.200  21.687   2.351  0.00  0.00    +0.149 C 
ATOM      6  C   UNL     1     -37.135  20.220   0.647  0.00  0.00    +0.205 C 
ATOM      7  C   UNL     1     -37.235  21.384   1.551  0.00  0.00    +0.080 C 
ATOM      8  C   UNL     1     -35.678  18.346  -0.116  0.00  0.00    +0.143 C 
ATOM      9  C   UNL     1     -33.674  19.175   1.652  0.00  0.00    +0.074 C 
ATOM     10  C   UNL     1     -33.474  18.059   0.839  0.00  0.00    +0.140 C 
ATOM     11  C   UNL     1     -34.473  17.646  -0.043  0.00  0.00    +0.073 C 
ENDROOT
BRANCH   5  12
ATOM     12  C   UNL     1     -36.247  22.833   3.281  0.00  0.00    +0.038 C 
ATOM     13  C   UNL     1     -37.090  23.915   3.019  0.00  0.00    +0.043 C 
ATOM     14  C   UNL     1     -35.447  22.839   4.427  0.00  0.00    +0.006 C 
ATOM     15  C   UNL     1     -37.133  24.997   3.898  0.00  0.00    +0.168 C 
ATOM     16  C   UNL     1     -35.491  23.922   5.306  0.00  0.00    +0.040 C 
ATOM     17  C   UNL     1     -36.335  25.001   5.042  0.00  0.00    +0.167 C 
BRANCH  15  18
ATOM     18  O   UNL     1     -37.960  26.047   3.629  0.00  0.00    -0.503 OA
ATOM     19  H   UNL     1     -37.976  26.422   2.770  0.00  0.00    +0.292 HD
ENDBRANCH  15  18
BRANCH  17  20
ATOM     20  O   UNL     1     -36.370  26.051   5.907  0.00  0.00    -0.503 OA
ATOM     21  H   UNL     1     -35.572  26.457   6.185  0.00  0.00    +0.292 HD
ENDBRANCH  17  20
ENDBRANCH   5  12
BRANCH   8  22
ATOM     22  O   UNL     1     -36.622  17.901  -0.992  0.00  0.00    -0.505 OA
ATOM     23  H   UNL     1     -37.175  18.514  -1.436  0.00  0.00    +0.292 HD
ENDBRANCH   8  22
BRANCH  10  24
ATOM     24  O   UNL     1     -32.300  17.371   0.906  0.00  0.00    -0.505 OA
ATOM     25  H   UNL     1     -31.998  16.890   0.162  0.00  0.00    +0.292 HD
ENDBRANCH  10  24
TORSDOF 5
ENDMDL
MODEL 6
REMARK VINA RESULT:      -6.2      3.666      6.056
REMARK  Name = 5280445
REMARK  5 active torsions:
REMARK  status: ('A' for Active; 'I' for Inactive)
REMARK    1  A    between atoms: C_5  and  C_12
REMARK    2  A    between atoms: C_8  and  O_22
REMARK    3  A    between atoms: C_10  and  O_24
REMARK    4  A    between atoms: C_15  and  O_18
REMARK    5  A    between atoms: C_17  and  O_20
REMARK                            x       y       z     vdW  Elec       q    Type
REMARK                         _______ _______ _______ _____ _____    ______ ____
ROOT
ATOM      1  O   UNL     1     -35.112  21.983   2.846  0.00  0.00    -0.453 OA
ATOM      2  O   UNL     1     -39.030  23.032   2.449  0.00  0.00    -0.286 OA
ATOM      3  C   UNL     1     -36.921  23.503   3.407  0.00  0.00    +0.107 C 
ATOM      4  C   UNL     1     -35.593  23.089   3.499  0.00  0.00    +0.154 C 
ATOM      5  C   UNL     1     -35.989  21.241   2.068  0.00  0.00    +0.149 C 
ATOM      6  C   UNL     1     -37.852  22.725   2.576  0.00  0.00    +0.205 C 
ATOM      7  C   UNL     1     -37.286  21.541   1.897  0.00  0.00    +0.080 C 
ATOM      8  C   UNL     1     -37.355  24.639   4.095  0.00  0.00    +0.143 C 
ATOM      9  C   UNL     1     -34.689  23.811   4.279  0.00  0.00    +0.074 C 
ATOM     10  C   UNL     1     -35.120  24.946   4.966  0.00  0.00    +0.140 C 
ATOM     11  C   UNL     1     -36.449  25.359   4.875  0.00  0.00    +0.073 C 
ENDROOT
BRANCH   5  12
ATOM     12  C   UNL     1     -35.366  20.077   1.406  0.00  0.00    +0.038 C 
ATOM     13  C   UNL     1     -34.087  19.659   1.779  0.00  0.00    +0.043 C 
ATOM     14  C   UNL     1     -36.055  19.389   0.404  0.00  0.00    +0.006 C 
ATOM     15  C   UNL     1     -33.500  18.560   1.154  0.00  0.00    +0.168 C 
ATOM     16  C   UNL     1     -35.468  18.289  -0.221  0.00  0.00    +0.040 C 
ATOM     17  C   UNL     1     -34.190  17.874   0.154  0.00  0.00    +0.167 C 
BRANCH  15  18
ATOM     18  O   UNL     1     -32.250  18.164   1.527  0.00  0.00    -0.503 OA
ATOM     19  H   UNL     1     -32.039  18.077   2.436  0.00  0.00    +0.292 HD
ENDBRANCH  15  18
BRANCH  17  20
ATOM     20  O   UNL     1     -33.627  16.798  -0.463  0.00  0.00    -0.503 OA
ATOM     21  H   UNL     1     -33.443  16.020   0.026  0.00  0.00    +0.292 HD
ENDBRANCH  17  20
ENDBRANCH   5  12
BRANCH   8  22
ATOM     22  O   UNL     1     -38.642  25.084   4.038  0.00  0.00    -0.505 OA
ATOM     23  H   UNL     1     -39.298  24.693   4.582  0.00  0.00    +0.292 HD
ENDBRANCH   8  22
BRANCH  10  24
ATOM     24  O   UNL     1     -34.240  25.653   5.729  0.00  0.00    -0.505 OA
ATOM     25  H   UNL     1     -34.328  25.657   6.661  0.00  0.00    +0.292 HD
ENDBRANCH  10  24
TORSDOF 5
ENDMDL
MODEL 7
REMARK VINA RESULT:      -6.1      1.415      6.717
REMARK  Name = 5280445
REMARK  5 active torsions:
REMARK  status: ('A' for Active; 'I' for Inactive)
REMARK    1  A    between atoms: C_5  and  C_12
REMARK    2  A    between atoms: C_8  and  O_22
REMARK    3  A    between atoms: C_10  and  O_24
REMARK    4  A    between atoms: C_15  and  O_18
REMARK    5  A    between atoms: C_17  and  O_20
REMARK                            x       y       z     vdW  Elec       q    Type
REMARK                         _______ _______ _______ _____ _____    ______ ____
ROOT
ATOM      1  O   UNL     1     -33.961  25.772   4.882  0.00  0.00    -0.453 OA
ATOM      2  O   UNL     1     -34.189  24.598   0.987  0.00  0.00    -0.286 OA
ATOM      3  C   UNL     1     -34.643  24.105   3.253  0.00  0.00    +0.107 C 
ATOM      4  C   UNL     1     -34.534  24.567   4.564  0.00  0.00    +0.154 C 
ATOM      5  C   UNL     1     -33.462  26.559   3.855  0.00  0.00    +0.149 C 
ATOM      6  C   UNL     1     -34.124  24.940   2.160  0.00  0.00    +0.205 C 
ATOM      7  C   UNL     1     -33.514  26.227   2.556  0.00  0.00    +0.080 C 
ATOM      8  C   UNL     1     -35.238  22.869   2.988  0.00  0.00    +0.143 C 
ATOM      9  C   UNL     1     -35.020  23.795   5.619  0.00  0.00    +0.074 C 
ATOM     10  C   UNL     1     -35.615  22.560   5.357  0.00  0.00    +0.140 C 
ATOM     11  C   UNL     1     -35.723  22.098   4.046  0.00  0.00    +0.073 C 
ENDROOT
BRANCH   5  12
ATOM     12  C   UNL     1     -32.872  27.835   4.308  0.00  0.00    +0.038 C 
ATOM     13  C   UNL     1     -32.358  27.951   5.602  0.00  0.00    +0.043 C 
ATOM     14  C   UNL     1     -32.827  28.932   3.444  0.00  0.00    +0.006 C 
ATOM     15  C   UNL     1     -31.802  29.156   6.029  0.00  0.00    +0.168 C 
ATOM     16  C   UNL     1     -32.270  30.138   3.872  0.00  0.00    +0.040 C 
ATOM     17  C   UNL     1     -31.757  30.249   5.164  0.00  0.00    +0.167 C 
BRANCH  15  18
ATOM     18  O   UNL     1     -31.305  29.254   7.294  0.00  0.00    -0.503 OA
ATOM     19  H   UNL     1     -31.713  29.826   7.914  0.00  0.00    +0.292 HD
ENDBRANCH  15  18
BRANCH  17  20
ATOM     20  O   UNL     1     -31.215  31.431   5.570  0.00  0.00    -0.503 OA
ATOM     21  H   UNL     1     -30.595  31.874   5.025  0.00  0.00    +0.292 HD
ENDBRANCH  17  20
ENDBRANCH   5  12
BRANCH   8  22
ATOM     22  O   UNL     1     -35.369  22.374   1.726  0.00  0.00    -0.505 OA
ATOM     23  H   UNL     1     -34.752  22.613   1.062  0.00  0.00    +0.292 HD
ENDBRANCH   8  22
BRANCH  10  24
ATOM     24  O   UNL     1     -36.091  21.804   6.385  0.00  0.00    -0.505 OA
ATOM     25  H   UNL     1     -36.868  21.295   6.270  0.00  0.00    +0.292 HD
ENDBRANCH  10  24
TORSDOF 5
ENDMDL
MODEL 8
REMARK VINA RESULT:      -6.1      2.835      7.242
REMARK  Name = 5280445
REMARK  5 active torsions:
REMARK  status: ('A' for Active; 'I' for Inactive)
REMARK    1  A    between atoms: C_5  and  C_12
REMARK    2  A    between atoms: C_8  and  O_22
REMARK    3  A    between atoms: C_10  and  O_24
REMARK    4  A    between atoms: C_15  and  O_18
REMARK    5  A    between atoms: C_17  and  O_20
REMARK                            x       y       z     vdW  Elec       q    Type
REMARK                         _______ _______ _______ _____ _____    ______ ____
ROOT
ATOM      1  O   UNL     1     -36.487  25.555   3.650  0.00  0.00    -0.453 OA
ATOM      2  O   UNL     1     -35.729  21.565   3.317  0.00  0.00    -0.286 OA
ATOM      3  C   UNL     1     -37.274  23.335   3.058  0.00  0.00    +0.107 C 
ATOM      4  C   UNL     1     -37.466  24.709   3.195  0.00  0.00    +0.154 C 
ATOM      5  C   UNL     1     -35.256  25.016   3.996  0.00  0.00    +0.149 C 
ATOM      6  C   UNL     1     -35.968  22.761   3.415  0.00  0.00    +0.205 C 
ATOM      7  C   UNL     1     -34.949  23.713   3.903  0.00  0.00    +0.080 C 
ATOM      8  C   UNL     1     -38.308  22.521   2.588  0.00  0.00    +0.143 C 
ATOM      9  C   UNL     1     -38.694  25.278   2.861  0.00  0.00    +0.074 C 
ATOM     10  C   UNL     1     -39.729  24.468   2.391  0.00  0.00    +0.140 C 
ATOM     11  C   UNL     1     -39.536  23.094   2.256  0.00  0.00    +0.073 C 
ENDROOT
BRANCH   5  12
ATOM     12  C   UNL     1     -34.275  26.014   4.468  0.00  0.00    +0.038 C 
ATOM     13  C   UNL     1     -33.951  26.093   5.824  0.00  0.00    +0.043 C 
ATOM     14  C   UNL     1     -33.668  26.884   3.560  0.00  0.00    +0.006 C 
ATOM     15  C   UNL     1     -33.025  27.035   6.270  0.00  0.00    +0.168 C 
ATOM     16  C   UNL     1     -32.741  27.827   4.005  0.00  0.00    +0.040 C 
ATOM     17  C   UNL     1     -32.419  27.903   5.360  0.00  0.00    +0.167 C 
BRANCH  15  18
ATOM     18  O   UNL     1     -32.719  27.101   7.596  0.00  0.00    -0.503 OA
ATOM     19  H   UNL     1     -33.330  26.786   8.233  0.00  0.00    +0.292 HD
ENDBRANCH  15  18
BRANCH  17  20
ATOM     20  O   UNL     1     -31.513  28.827   5.783  0.00  0.00    -0.503 OA
ATOM     21  H   UNL     1     -31.441  29.031   6.694  0.00  0.00    +0.292 HD
ENDBRANCH  17  20
ENDBRANCH   5  12
BRANCH   8  22
ATOM     22  O   UNL     1     -38.170  21.174   2.437  0.00  0.00    -0.505 OA
ATOM     23  H   UNL     1     -38.599  20.736   1.727  0.00  0.00    +0.292 HD
ENDBRANCH   8  22
BRANCH  10  24
ATOM     24  O   UNL     1     -40.930  25.022   2.065  0.00  0.00    -0.505 OA
ATOM     25  H   UNL     1     -41.675  24.472   1.924  0.00  0.00    +0.292 HD
ENDBRANCH  10  24
TORSDOF 5
ENDMDL
MODEL 9
REMARK VINA RESULT:      -6.0      2.752      4.823
REMARK  Name = 5280445
REMARK  5 active torsions:
REMARK  status: ('A' for Active; 'I' for Inactive)
REMARK    1  A    between atoms: C_5  and  C_12
REMARK    2  A    between atoms: C_8  and  O_22
REMARK    3  A    between atoms: C_10  and  O_24
REMARK    4  A    between atoms: C_15  and  O_18
REMARK    5  A    between atoms: C_17  and  O_20
REMARK                            x       y       z     vdW  Elec       q    Type
REMARK                         _______ _______ _______ _____ _____    ______ ____
ROOT
ATOM      1  O   UNL     1     -36.468  25.561   2.337  0.00  0.00    -0.453 OA
ATOM      2  O   UNL     1     -34.320  28.841   3.447  0.00  0.00    -0.286 OA
ATOM      3  C   UNL     1     -35.911  27.897   1.977  0.00  0.00    +0.107 C 
ATOM      4  C   UNL     1     -36.616  26.740   1.650  0.00  0.00    +0.154 C 
ATOM      5  C   UNL     1     -35.573  25.521   3.396  0.00  0.00    +0.149 C 
ATOM      6  C   UNL     1     -34.968  27.862   3.105  0.00  0.00    +0.205 C 
ATOM      7  C   UNL     1     -34.844  26.569   3.809  0.00  0.00    +0.080 C 
ATOM      8  C   UNL     1     -36.102  29.070   1.242  0.00  0.00    +0.143 C 
ATOM      9  C   UNL     1     -37.517  26.747   0.586  0.00  0.00    +0.074 C 
ATOM     10  C   UNL     1     -37.710  27.917  -0.149  0.00  0.00    +0.140 C 
ATOM     11  C   UNL     1     -37.005  29.075   0.177  0.00  0.00    +0.073 C 
ENDROOT
BRANCH   5  12
ATOM     12  C   UNL     1     -35.497  24.207   4.068  0.00  0.00    +0.038 C 
ATOM     13  C   UNL     1     -35.672  23.032   3.333  0.00  0.00    +0.043 C 
ATOM     14  C   UNL     1     -35.250  24.136   5.441  0.00  0.00    +0.006 C 
ATOM     15  C   UNL     1     -35.600  21.793   3.968  0.00  0.00    +0.168 C 
ATOM     16  C   UNL     1     -35.178  22.895   6.075  0.00  0.00    +0.040 C 
ATOM     17  C   UNL     1     -35.352  21.724   5.339  0.00  0.00    +0.167 C 
BRANCH  15  18
ATOM     18  O   UNL     1     -35.773  20.655   3.238  0.00  0.00    -0.503 OA
ATOM     19  H   UNL     1     -36.626  20.273   3.162  0.00  0.00    +0.292 HD
ENDBRANCH  15  18
BRANCH  17  20
ATOM     20  O   UNL     1     -35.279  20.519   5.970  0.00  0.00    -0.503 OA
ATOM     21  H   UNL     1     -35.948  19.877   5.834  0.00  0.00    +0.292 HD
ENDBRANCH  17  20
ENDBRANCH   5  12
BRANCH   8  22
ATOM     22  O   UNL     1     -35.439  30.227   1.521  0.00  0.00    -0.505 OA
ATOM     23  H   UNL     1     -35.830  31.053   1.312  0.00  0.00    +0.292 HD
ENDBRANCH   8  22
BRANCH  10  24
ATOM     24  O   UNL     1     -38.590  27.928  -1.189  0.00  0.00    -0.505 OA
ATOM     25  H   UNL     1     -39.017  27.136  -1.449  0.00  0.00    +0.292 HD
ENDBRANCH  10  24
TORSDOF 5
ENDMDL
