MODEL 1
REMARK VINA RESULT:      -7.0      0.000      0.000
REMARK  Name = 5492457
REMARK  14 active torsions:
REMARK  status: ('A' for Active; 'I' for Inactive)
REMARK    1  A    between atoms: C_1  and  N_4
REMARK    2  A    between atoms: C_1  and  P_21
REMARK    3  A    between atoms: C_5  and  C_7
REMARK    4  A    between atoms: C_7  and  N_10
REMARK    5  A    between atoms: C_11  and  O_13
REMARK    6  A    between atoms: O_13  and  C_14
REMARK    7  A    between atoms: C_14  and  C_15
REMARK    8  A    between atoms: P_21  and  O_23
REMARK    9  A    between atoms: P_21  and  O_25
REMARK   10  A    between atoms: O_25  and  C_26
REMARK   11  A    between atoms: C_26  and  C_28
REMARK   12  A    between atoms: C_26  and  C_31
REMARK   13  A    between atoms: C_28  and  O_29
REMARK   14  A    between atoms: C_31  and  C_32
REMARK                            x       y       z     vdW  Elec       q    Type
REMARK                         _______ _______ _______ _____ _____    ______ ____
ROOT
ATOM      1  C   UNL     1     -37.804  22.103   1.474  0.00  0.00    +0.177 C 
ATOM      2  C   UNL     1     -37.605  21.889  -0.019  0.00  0.00    +0.034 C 
ENDROOT
BRANCH   1   4
ATOM      3  O   UNL     1     -40.374  23.278   2.076  0.00  0.00    -0.273 OA
ATOM      4  N   UNL     1     -38.085  23.502   1.760  0.00  0.00    -0.295 N 
ATOM      5  C   UNL     1     -39.361  23.973   2.039  0.00  0.00    +0.241 C 
ATOM      6  H   UNL     1     -37.338  24.142   1.755  0.00  0.00    +0.150 HD
BRANCH   5   7
ATOM      7  C   UNL     1     -39.362  25.464   2.351  0.00  0.00    +0.151 C 
ATOM      8  C   UNL     1     -38.030  25.894   2.945  0.00  0.00    +0.031 C 
BRANCH   7  10
ATOM      9  O   UNL     1     -41.530  27.370   2.021  0.00  0.00    -0.226 OA
ATOM     10  N   UNL     1     -40.449  25.728   3.255  0.00  0.00    -0.264 N 
ATOM     11  C   UNL     1     -41.444  26.658   3.017  0.00  0.00    +0.402 C 
ATOM     12  H   UNL     1     -40.488  25.214   4.095  0.00  0.00    +0.153 HD
BRANCH  11  13
ATOM     13  O   UNL     1     -42.327  26.673   4.059  0.00  0.00    -0.430 OA
BRANCH  13  14
ATOM     14  C   UNL     1     -43.509  27.457   3.865  0.00  0.00    +0.237 C 
BRANCH  14  15
ATOM     15  C   UNL     1     -44.713  26.587   4.080  0.00  0.00    +0.021 C 
ATOM     16  C   UNL     1     -45.130  25.712   3.078  0.00  0.00    -0.001 C 
ATOM     17  C   UNL     1     -45.416  26.655   5.283  0.00  0.00    -0.001 C 
ATOM     18  C   UNL     1     -46.249  24.904   3.277  0.00  0.00    -0.000 C 
ATOM     19  C   UNL     1     -46.535  25.847   5.483  0.00  0.00    -0.000 C 
ATOM     20  C   UNL     1     -46.952  24.971   4.481  0.00  0.00    -0.000 C 
ENDBRANCH  14  15
ENDBRANCH  13  14
ENDBRANCH  11  13
ENDBRANCH   7  10
ENDBRANCH   5   7
ENDBRANCH   1   4
BRANCH   1  21
ATOM     21  P   UNL     1     -36.390  21.682   2.491  0.00  0.00    +0.358 P 
ATOM     22  O   UNL     1     -35.062  21.934   1.837  0.00  0.00    -0.256 OA
BRANCH  21  23
ATOM     23  O   UNL     1     -36.655  20.136   2.888  0.00  0.00    -0.322 OA
ATOM     24  H   UNL     1     -37.579  20.026   3.161  0.00  0.00    +0.220 HD
ENDBRANCH  21  23
BRANCH  21  25
ATOM     25  O   UNL     1     -36.646  22.484   3.873  0.00  0.00    -0.284 OA
BRANCH  25  26
ATOM     26  C   UNL     1     -35.535  22.789   4.696  0.00  0.00    +0.226 C 
BRANCH  26  28
ATOM     27  O   UNL     1     -35.950  22.027   6.969  0.00  0.00    -0.248 OA
ATOM     28  C   UNL     1     -35.530  21.797   5.843  0.00  0.00    +0.342 C 
BRANCH  28  29
ATOM     29  O   UNL     1     -35.020  20.593   5.475  0.00  0.00    -0.479 OA
ATOM     30  H   UNL     1     -34.416  20.149   6.037  0.00  0.00    +0.295 HD
ENDBRANCH  28  29
ENDBRANCH  26  28
BRANCH  26  31
ATOM     31  C   UNL     1     -35.688  24.219   5.219  0.00  0.00    +0.068 C 
BRANCH  31  32
ATOM     32  C   UNL     1     -34.686  25.159   4.594  0.00  0.00    -0.019 C 
ATOM     33  C   UNL     1     -34.157  26.212   5.342  0.00  0.00    -0.004 C 
ATOM     34  C   UNL     1     -34.289  24.976   3.270  0.00  0.00    -0.004 C 
ATOM     35  C   UNL     1     -33.232  27.081   4.765  0.00  0.00    -0.000 C 
ATOM     36  C   UNL     1     -33.362  25.845   2.693  0.00  0.00    -0.000 C 
ATOM     37  C   UNL     1     -32.834  26.898   3.442  0.00  0.00    -0.000 C 
ENDBRANCH  31  32
ENDBRANCH  26  31
ENDBRANCH  25  26
ENDBRANCH  21  25
ENDBRANCH   1  21
TORSDOF 14
ENDMDL
MODEL 2
REMARK VINA RESULT:      -6.9      3.836      6.823
REMARK  Name = 5492457
REMARK  14 active torsions:
REMARK  status: ('A' for Active; 'I' for Inactive)
REMARK    1  A    between atoms: C_1  and  N_4
REMARK    2  A    between atoms: C_1  and  P_21
REMARK    3  A    between atoms: C_5  and  C_7
REMARK    4  A    between atoms: C_7  and  N_10
REMARK    5  A    between atoms: C_11  and  O_13
REMARK    6  A    between atoms: O_13  and  C_14
REMARK    7  A    between atoms: C_14  and  C_15
REMARK    8  A    between atoms: P_21  and  O_23
REMARK    9  A    between atoms: P_21  and  O_25
REMARK   10  A    between atoms: O_25  and  C_26
REMARK   11  A    between atoms: C_26  and  C_28
REMARK   12  A    between atoms: C_26  and  C_31
REMARK   13  A    between atoms: C_28  and  O_29
REMARK   14  A    between atoms: C_31  and  C_32
REMARK                            x       y       z     vdW  Elec       q    Type
REMARK                         _______ _______ _______ _____ _____    ______ ____
ROOT
ATOM      1  C   UNL     1     -39.002  19.691  -0.625  0.00  0.00    +0.177 C 
ATOM      2  C   UNL     1     -39.727  19.467  -1.944  0.00  0.00    +0.034 C 
ENDROOT
BRANCH   1   4
ATOM      3  O   UNL     1     -40.428  21.017   1.511  0.00  0.00    -0.273 OA
ATOM      4  N   UNL     1     -38.968  21.108  -0.292  0.00  0.00    -0.295 N 
ATOM      5  C   UNL     1     -39.692  21.653   0.759  0.00  0.00    +0.241 C 
ATOM      6  H   UNL     1     -38.407  21.705  -0.836  0.00  0.00    +0.150 HD
BRANCH   5   7
ATOM      7  C   UNL     1     -39.434  23.145   0.916  0.00  0.00    +0.151 C 
ATOM      8  C   UNL     1     -38.718  23.702  -0.305  0.00  0.00    +0.031 C 
BRANCH   7  10
ATOM      9  O   UNL     1     -39.645  25.310   2.843  0.00  0.00    -0.226 OA
ATOM     10  N   UNL     1     -38.659  23.340   2.112  0.00  0.00    -0.264 N 
ATOM     11  C   UNL     1     -38.828  24.405   2.977  0.00  0.00    +0.402 C 
ATOM     12  H   UNL     1     -37.967  22.673   2.328  0.00  0.00    +0.153 HD
BRANCH  11  13
ATOM     13  O   UNL     1     -37.945  24.305   4.015  0.00  0.00    -0.430 OA
BRANCH  13  14
ATOM     14  C   UNL     1     -36.669  23.740   3.696  0.00  0.00    +0.237 C 
BRANCH  14  15
ATOM     15  C   UNL     1     -35.591  24.690   4.131  0.00  0.00    +0.021 C 
ATOM     16  C   UNL     1     -34.629  25.119   3.217  0.00  0.00    -0.001 C 
ATOM     17  C   UNL     1     -35.551  25.143   5.450  0.00  0.00    -0.001 C 
ATOM     18  C   UNL     1     -33.627  26.002   3.621  0.00  0.00    -0.000 C 
ATOM     19  C   UNL     1     -34.548  26.026   5.853  0.00  0.00    -0.000 C 
ATOM     20  C   UNL     1     -33.587  26.455   4.939  0.00  0.00    -0.000 C 
ENDBRANCH  14  15
ENDBRANCH  13  14
ENDBRANCH  11  13
ENDBRANCH   7  10
ENDBRANCH   5   7
ENDBRANCH   1   4
BRANCH   1  21
ATOM     21  P   UNL     1     -37.294  19.153  -0.602  0.00  0.00    +0.358 P 
ATOM     22  O   UNL     1     -36.749  18.771  -1.947  0.00  0.00    -0.256 OA
BRANCH  21  23
ATOM     23  O   UNL     1     -37.288  17.955   0.486  0.00  0.00    -0.322 OA
ATOM     24  H   UNL     1     -38.168  17.549   0.524  0.00  0.00    +0.220 HD
ENDBRANCH  21  23
BRANCH  21  25
ATOM     25  O   UNL     1     -36.512  20.357   0.147  0.00  0.00    -0.284 OA
BRANCH  25  26
ATOM     26  C   UNL     1     -35.503  20.029   1.085  0.00  0.00    +0.226 C 
BRANCH  26  28
ATOM     27  O   UNL     1     -35.335  20.564   3.453  0.00  0.00    -0.248 OA
ATOM     28  C   UNL     1     -36.031  20.374   2.464  0.00  0.00    +0.342 C 
BRANCH  28  29
ATOM     29  O   UNL     1     -37.386  20.472   2.482  0.00  0.00    -0.479 OA
ATOM     30  H   UNL     1     -37.844  20.771   1.722  0.00  0.00    +0.295 HD
ENDBRANCH  28  29
ENDBRANCH  26  28
BRANCH  26  31
ATOM     31  C   UNL     1     -34.251  20.849   0.765  0.00  0.00    +0.068 C 
BRANCH  31  32
ATOM     32  C   UNL     1     -33.017  19.984   0.674  0.00  0.00    -0.019 C 
ATOM     33  C   UNL     1     -31.910  20.423  -0.051  0.00  0.00    -0.004 C 
ATOM     34  C   UNL     1     -32.984  18.747   1.316  0.00  0.00    -0.004 C 
ATOM     35  C   UNL     1     -30.770  19.625  -0.136  0.00  0.00    -0.000 C 
ATOM     36  C   UNL     1     -31.843  17.947   1.232  0.00  0.00    -0.000 C 
ATOM     37  C   UNL     1     -30.736  18.387   0.506  0.00  0.00    -0.000 C 
ENDBRANCH  31  32
ENDBRANCH  26  31
ENDBRANCH  25  26
ENDBRANCH  21  25
ENDBRANCH   1  21
TORSDOF 14
ENDMDL
MODEL 3
REMARK VINA RESULT:      -6.9      3.539      9.514
REMARK  Name = 5492457
REMARK  14 active torsions:
REMARK  status: ('A' for Active; 'I' for Inactive)
REMARK    1  A    between atoms: C_1  and  N_4
REMARK    2  A    between atoms: C_1  and  P_21
REMARK    3  A    between atoms: C_5  and  C_7
REMARK    4  A    between atoms: C_7  and  N_10
REMARK    5  A    between atoms: C_11  and  O_13
REMARK    6  A    between atoms: O_13  and  C_14
REMARK    7  A    between atoms: C_14  and  C_15
REMARK    8  A    between atoms: P_21  and  O_23
REMARK    9  A    between atoms: P_21  and  O_25
REMARK   10  A    between atoms: O_25  and  C_26
REMARK   11  A    between atoms: C_26  and  C_28
REMARK   12  A    between atoms: C_26  and  C_31
REMARK   13  A    between atoms: C_28  and  O_29
REMARK   14  A    between atoms: C_31  and  C_32
REMARK                            x       y       z     vdW  Elec       q    Type
REMARK                         _______ _______ _______ _____ _____    ______ ____
ROOT
ATOM      1  C   UNL     1     -35.888  25.366   2.408  0.00  0.00    +0.177 C 
ATOM      2  C   UNL     1     -35.185  25.025   1.102  0.00  0.00    +0.034 C 
ENDROOT
BRANCH   1   4
ATOM      3  O   UNL     1     -34.196  24.297   4.491  0.00  0.00    -0.273 OA
ATOM      4  N   UNL     1     -36.118  24.165   3.197  0.00  0.00    -0.295 N 
ATOM      5  C   UNL     1     -35.241  23.730   4.181  0.00  0.00    +0.241 C 
ATOM      6  H   UNL     1     -36.931  23.639   3.024  0.00  0.00    +0.150 HD
BRANCH   5   7
ATOM      7  C   UNL     1     -35.749  22.479   4.884  0.00  0.00    +0.151 C 
ATOM      8  C   UNL     1     -35.431  22.526   6.371  0.00  0.00    +0.031 C 
BRANCH   7  10
ATOM      9  O   UNL     1     -36.292  21.406   2.240  0.00  0.00    -0.226 OA
ATOM     10  N   UNL     1     -35.142  21.337   4.255  0.00  0.00    -0.264 N 
ATOM     11  C   UNL     1     -35.462  20.894   2.985  0.00  0.00    +0.402 C 
ATOM     12  H   UNL     1     -34.456  20.841   4.758  0.00  0.00    +0.153 HD
BRANCH  11  13
ATOM     13  O   UNL     1     -34.715  19.794   2.674  0.00  0.00    -0.430 OA
BRANCH  13  14
ATOM     14  C   UNL     1     -34.641  19.463   1.283  0.00  0.00    +0.237 C 
BRANCH  14  15
ATOM     15  C   UNL     1     -33.199  19.313   0.893  0.00  0.00    +0.021 C 
ATOM     16  C   UNL     1     -32.506  18.148   1.220  0.00  0.00    -0.001 C 
ATOM     17  C   UNL     1     -32.552  20.338   0.203  0.00  0.00    -0.001 C 
ATOM     18  C   UNL     1     -31.166  18.007   0.858  0.00  0.00    -0.000 C 
ATOM     19  C   UNL     1     -31.212  20.198  -0.159  0.00  0.00    -0.000 C 
ATOM     20  C   UNL     1     -30.519  19.033   0.169  0.00  0.00    -0.000 C 
ENDBRANCH  14  15
ENDBRANCH  13  14
ENDBRANCH  11  13
ENDBRANCH   7  10
ENDBRANCH   5   7
ENDBRANCH   1   4
BRANCH   1  21
ATOM     21  P   UNL     1     -37.497  26.131   2.221  0.00  0.00    +0.358 P 
ATOM     22  O   UNL     1     -37.469  27.476   1.554  0.00  0.00    -0.256 OA
BRANCH  21  23
ATOM     23  O   UNL     1     -38.087  26.146   3.727  0.00  0.00    -0.322 OA
ATOM     24  H   UNL     1     -38.418  27.033   3.937  0.00  0.00    +0.220 HD
ENDBRANCH  21  23
BRANCH  21  25
ATOM     25  O   UNL     1     -38.384  25.003   1.471  0.00  0.00    -0.284 OA
BRANCH  25  26
ATOM     26  C   UNL     1     -39.607  24.600   2.061  0.00  0.00    +0.226 C 
BRANCH  26  28
ATOM     27  O   UNL     1     -40.327  22.334   1.545  0.00  0.00    -0.248 OA
ATOM     28  C   UNL     1     -39.586  23.087   2.164  0.00  0.00    +0.342 C 
BRANCH  28  29
ATOM     29  O   UNL     1     -38.626  22.645   3.017  0.00  0.00    -0.479 OA
ATOM     30  H   UNL     1     -37.722  22.789   2.819  0.00  0.00    +0.295 HD
ENDBRANCH  28  29
ENDBRANCH  26  28
BRANCH  26  31
ATOM     31  C   UNL     1     -40.759  25.065   1.169  0.00  0.00    +0.068 C 
BRANCH  31  32
ATOM     32  C   UNL     1     -41.883  25.677   1.971  0.00  0.00    -0.019 C 
ATOM     33  C   UNL     1     -43.206  25.493   1.570  0.00  0.00    -0.004 C 
ATOM     34  C   UNL     1     -41.598  26.425   3.112  0.00  0.00    -0.004 C 
ATOM     35  C   UNL     1     -44.244  26.057   2.310  0.00  0.00    -0.000 C 
ATOM     36  C   UNL     1     -42.636  26.990   3.854  0.00  0.00    -0.000 C 
ATOM     37  C   UNL     1     -43.960  26.805   3.452  0.00  0.00    -0.000 C 
ENDBRANCH  31  32
ENDBRANCH  26  31
ENDBRANCH  25  26
ENDBRANCH  21  25
ENDBRANCH   1  21
TORSDOF 14
ENDMDL
MODEL 4
REMARK VINA RESULT:      -6.9      5.533      8.982
REMARK  Name = 5492457
REMARK  14 active torsions:
REMARK  status: ('A' for Active; 'I' for Inactive)
REMARK    1  A    between atoms: C_1  and  N_4
REMARK    2  A    between atoms: C_1  and  P_21
REMARK    3  A    between atoms: C_5  and  C_7
REMARK    4  A    between atoms: C_7  and  N_10
REMARK    5  A    between atoms: C_11  and  O_13
REMARK    6  A    between atoms: O_13  and  C_14
REMARK    7  A    between atoms: C_14  and  C_15
REMARK    8  A    between atoms: P_21  and  O_23
REMARK    9  A    between atoms: P_21  and  O_25
REMARK   10  A    between atoms: O_25  and  C_26
REMARK   11  A    between atoms: C_26  and  C_28
REMARK   12  A    between atoms: C_26  and  C_31
REMARK   13  A    between atoms: C_28  and  O_29
REMARK   14  A    between atoms: C_31  and  C_32
REMARK                            x       y       z     vdW  Elec       q    Type
REMARK                         _______ _______ _______ _____ _____    ______ ____
ROOT
ATOM      1  C   UNL     1     -34.435  26.151   5.024  0.00  0.00    +0.177 C 
ATOM      2  C   UNL     1     -33.495  26.598   6.134  0.00  0.00    +0.034 C 
ENDROOT
BRANCH   1   4
ATOM      3  O   UNL     1     -36.974  24.783   4.857  0.00  0.00    -0.273 OA
ATOM      4  N   UNL     1     -34.666  24.716   5.095  0.00  0.00    -0.295 N 
ATOM      5  C   UNL     1     -35.931  24.150   5.004  0.00  0.00    +0.241 C 
ATOM      6  H   UNL     1     -33.892  24.120   5.213  0.00  0.00    +0.150 HD
BRANCH   5   7
ATOM      7  C   UNL     1     -35.881  22.630   5.057  0.00  0.00    +0.151 C 
ATOM      8  C   UNL     1     -35.202  22.154   6.332  0.00  0.00    +0.031 C 
BRANCH   7  10
ATOM      9  O   UNL     1     -37.012  21.893   2.484  0.00  0.00    -0.226 OA
ATOM     10  N   UNL     1     -35.184  22.167   3.887  0.00  0.00    -0.264 N 
ATOM     11  C   UNL     1     -35.805  21.837   2.697  0.00  0.00    +0.402 C 
ATOM     12  H   UNL     1     -34.204  22.080   3.937  0.00  0.00    +0.153 HD
BRANCH  11  13
ATOM     13  O   UNL     1     -34.874  21.434   1.782  0.00  0.00    -0.430 OA
BRANCH  13  14
ATOM     14  C   UNL     1     -34.871  20.037   1.468  0.00  0.00    +0.237 C 
BRANCH  14  15
ATOM     15  C   UNL     1     -33.488  19.633   1.048  0.00  0.00    +0.021 C 
ATOM     16  C   UNL     1     -32.727  20.484   0.246  0.00  0.00    -0.001 C 
ATOM     17  C   UNL     1     -32.965  18.407   1.458  0.00  0.00    -0.001 C 
ATOM     18  C   UNL     1     -31.441  20.109  -0.145  0.00  0.00    -0.000 C 
ATOM     19  C   UNL     1     -31.679  18.033   1.067  0.00  0.00    -0.000 C 
ATOM     20  C   UNL     1     -30.918  18.883   0.266  0.00  0.00    -0.000 C 
ENDBRANCH  14  15
ENDBRANCH  13  14
ENDBRANCH  11  13
ENDBRANCH   7  10
ENDBRANCH   5   7
ENDBRANCH   1   4
BRANCH   1  21
ATOM     21  P   UNL     1     -33.839  26.457   3.363  0.00  0.00    +0.358 P 
ATOM     22  O   UNL     1     -34.475  27.637   2.687  0.00  0.00    -0.256 OA
BRANCH  21  23
ATOM     23  O   UNL     1     -34.079  25.046   2.608  0.00  0.00    -0.322 OA
ATOM     24  H   UNL     1     -33.906  24.317   3.223  0.00  0.00    +0.220 HD
ENDBRANCH  21  23
BRANCH  21  25
ATOM     25  O   UNL     1     -32.231  26.536   3.530  0.00  0.00    -0.284 OA
BRANCH  25  26
ATOM     26  C   UNL     1     -31.484  27.255   2.564  0.00  0.00    +0.226 C 
BRANCH  26  28
ATOM     27  O   UNL     1     -31.565  25.505   0.876  0.00  0.00    -0.248 OA
ATOM     28  C   UNL     1     -30.904  26.246   1.593  0.00  0.00    +0.342 C 
BRANCH  28  29
ATOM     29  O   UNL     1     -29.546  26.265   1.586  0.00  0.00    -0.479 OA
ATOM     30  H   UNL     1     -29.084  26.935   2.049  0.00  0.00    +0.295 HD
ENDBRANCH  28  29
ENDBRANCH  26  28
BRANCH  26  31
ATOM     31  C   UNL     1     -30.368  28.022   3.278  0.00  0.00    +0.068 C 
BRANCH  31  32
ATOM     32  C   UNL     1     -30.901  28.880   4.400  0.00  0.00    -0.019 C 
ATOM     33  C   UNL     1     -30.474  28.661   5.709  0.00  0.00    -0.004 C 
ATOM     34  C   UNL     1     -31.820  29.893   4.126  0.00  0.00    -0.004 C 
ATOM     35  C   UNL     1     -30.966  29.454   6.745  0.00  0.00    -0.000 C 
ATOM     36  C   UNL     1     -32.312  30.687   5.163  0.00  0.00    -0.000 C 
ATOM     37  C   UNL     1     -31.884  30.466   6.473  0.00  0.00    -0.000 C 
ENDBRANCH  31  32
ENDBRANCH  26  31
ENDBRANCH  25  26
ENDBRANCH  21  25
ENDBRANCH   1  21
TORSDOF 14
ENDMDL
MODEL 5
REMARK VINA RESULT:      -6.8      4.486     10.815
REMARK  Name = 5492457
REMARK  14 active torsions:
REMARK  status: ('A' for Active; 'I' for Inactive)
REMARK    1  A    between atoms: C_1  and  N_4
REMARK    2  A    between atoms: C_1  and  P_21
REMARK    3  A    between atoms: C_5  and  C_7
REMARK    4  A    between atoms: C_7  and  N_10
REMARK    5  A    between atoms: C_11  and  O_13
REMARK    6  A    between atoms: O_13  and  C_14
REMARK    7  A    between atoms: C_14  and  C_15
REMARK    8  A    between atoms: P_21  and  O_23
REMARK    9  A    between atoms: P_21  and  O_25
REMARK   10  A    between atoms: O_25  and  C_26
REMARK   11  A    between atoms: C_26  and  C_28
REMARK   12  A    between atoms: C_26  and  C_31
REMARK   13  A    between atoms: C_28  and  O_29
REMARK   14  A    between atoms: C_31  and  C_32
REMARK                            x       y       z     vdW  Elec       q    Type
REMARK                         _______ _______ _______ _____ _____    ______ ____
ROOT
ATOM      1  C   UNL     1     -44.702  28.996   4.035  0.00  0.00    +0.177 C 
ATOM      2  C   UNL     1     -45.605  29.774   3.089  0.00  0.00    +0.034 C 
ENDROOT
BRANCH   1   4
ATOM      3  O   UNL     1     -41.891  28.524   4.507  0.00  0.00    -0.273 OA
ATOM      4  N   UNL     1     -43.824  28.105   3.292  0.00  0.00    -0.295 N 
ATOM      5  C   UNL     1     -42.479  27.945   3.596  0.00  0.00    +0.241 C 
ATOM      6  H   UNL     1     -44.201  27.594   2.540  0.00  0.00    +0.150 HD
BRANCH   5   7
ATOM      7  C   UNL     1     -41.809  26.917   2.695  0.00  0.00    +0.151 C 
ATOM      8  C   UNL     1     -42.818  25.891   2.200  0.00  0.00    +0.031 C 
BRANCH   7  10
ATOM      9  O   UNL     1     -39.379  25.702   1.666  0.00  0.00    -0.226 OA
ATOM     10  N   UNL     1     -40.751  26.292   3.443  0.00  0.00    -0.264 N 
ATOM     11  C   UNL     1     -39.623  25.736   2.868  0.00  0.00    +0.402 C 
ATOM     12  H   UNL     1     -40.835  26.258   4.423  0.00  0.00    +0.153 HD
BRANCH  11  13
ATOM     13  O   UNL     1     -38.810  25.225   3.839  0.00  0.00    -0.430 OA
BRANCH  13  14
ATOM     14  C   UNL     1     -37.413  25.504   3.694  0.00  0.00    +0.237 C 
BRANCH  14  15
ATOM     15  C   UNL     1     -36.626  24.318   4.169  0.00  0.00    +0.021 C 
ATOM     16  C   UNL     1     -36.584  23.155   3.401  0.00  0.00    -0.001 C 
ATOM     17  C   UNL     1     -35.936  24.379   5.380  0.00  0.00    -0.001 C 
ATOM     18  C   UNL     1     -35.852  22.052   3.843  0.00  0.00    -0.000 C 
ATOM     19  C   UNL     1     -35.204  23.276   5.822  0.00  0.00    -0.000 C 
ATOM     20  C   UNL     1     -35.163  22.113   5.054  0.00  0.00    -0.000 C 
ENDBRANCH  14  15
ENDBRANCH  13  14
ENDBRANCH  11  13
ENDBRANCH   7  10
ENDBRANCH   5   7
ENDBRANCH   1   4
BRANCH   1  21
ATOM     21  P   UNL     1     -45.562  27.951   5.209  0.00  0.00    +0.358 P 
ATOM     22  O   UNL     1     -45.225  26.492   5.100  0.00  0.00    -0.256 OA
BRANCH  21  23
ATOM     23  O   UNL     1     -47.122  28.296   4.951  0.00  0.00    -0.322 OA
ATOM     24  H   UNL     1     -47.545  28.530   5.791  0.00  0.00    +0.220 HD
ENDBRANCH  21  23
BRANCH  21  25
ATOM     25  O   UNL     1     -45.250  28.630   6.644  0.00  0.00    -0.284 OA
BRANCH  25  26
ATOM     26  C   UNL     1     -45.121  30.039   6.713  0.00  0.00    +0.226 C 
BRANCH  26  28
ATOM     27  O   UNL     1     -43.425  30.244   8.445  0.00  0.00    -0.248 OA
ATOM     28  C   UNL     1     -43.743  30.345   7.267  0.00  0.00    +0.342 C 
BRANCH  28  29
ATOM     29  O   UNL     1     -42.875  30.730   6.296  0.00  0.00    -0.479 OA
ATOM     30  H   UNL     1     -43.030  30.485   5.406  0.00  0.00    +0.295 HD
ENDBRANCH  28  29
ENDBRANCH  26  28
BRANCH  26  31
ATOM     31  C   UNL     1     -46.210  30.587   7.638  0.00  0.00    +0.068 C 
BRANCH  31  32
ATOM     32  C   UNL     1     -46.685  31.953   7.205  0.00  0.00    -0.019 C 
ATOM     33  C   UNL     1     -46.233  32.499   6.004  0.00  0.00    -0.004 C 
ATOM     34  C   UNL     1     -47.575  32.668   8.005  0.00  0.00    -0.004 C 
ATOM     35  C   UNL     1     -46.672  33.761   5.603  0.00  0.00    -0.000 C 
ATOM     36  C   UNL     1     -48.015  33.930   7.604  0.00  0.00    -0.000 C 
ATOM     37  C   UNL     1     -47.562  34.476   6.403  0.00  0.00    -0.000 C 
ENDBRANCH  31  32
ENDBRANCH  26  31
ENDBRANCH  25  26
ENDBRANCH  21  25
ENDBRANCH   1  21
TORSDOF 14
ENDMDL
MODEL 6
REMARK VINA RESULT:      -6.8      4.588      8.416
REMARK  Name = 5492457
REMARK  14 active torsions:
REMARK  status: ('A' for Active; 'I' for Inactive)
REMARK    1  A    between atoms: C_1  and  N_4
REMARK    2  A    between atoms: C_1  and  P_21
REMARK    3  A    between atoms: C_5  and  C_7
REMARK    4  A    between atoms: C_7  and  N_10
REMARK    5  A    between atoms: C_11  and  O_13
REMARK    6  A    between atoms: O_13  and  C_14
REMARK    7  A    between atoms: C_14  and  C_15
REMARK    8  A    between atoms: P_21  and  O_23
REMARK    9  A    between atoms: P_21  and  O_25
REMARK   10  A    between atoms: O_25  and  C_26
REMARK   11  A    between atoms: C_26  and  C_28
REMARK   12  A    between atoms: C_26  and  C_31
REMARK   13  A    between atoms: C_28  and  O_29
REMARK   14  A    between atoms: C_31  and  C_32
REMARK                            x       y       z     vdW  Elec       q    Type
REMARK                         _______ _______ _______ _____ _____    ______ ____
ROOT
ATOM      1  C   UNL     1     -35.941  24.072   5.179  0.00  0.00    +0.177 C 
ATOM      2  C   UNL     1     -35.023  22.993   5.733  0.00  0.00    +0.034 C 
ENDROOT
BRANCH   1   4
ATOM      3  O   UNL     1     -38.448  24.535   3.820  0.00  0.00    -0.273 OA
ATOM      4  N   UNL     1     -36.240  23.822   3.777  0.00  0.00    -0.295 N 
ATOM      5  C   UNL     1     -37.482  24.078   3.213  0.00  0.00    +0.241 C 
ATOM      6  H   UNL     1     -35.529  23.455   3.203  0.00  0.00    +0.150 HD
BRANCH   5   7
ATOM      7  C   UNL     1     -37.505  23.774   1.721  0.00  0.00    +0.151 C 
ATOM      8  C   UNL     1     -38.782  23.043   1.337  0.00  0.00    +0.031 C 
BRANCH   7  10
ATOM      9  O   UNL     1     -35.883  23.882  -0.687  0.00  0.00    -0.226 OA
ATOM     10  N   UNL     1     -36.339  22.993   1.408  0.00  0.00    -0.264 N 
ATOM     11  C   UNL     1     -35.623  23.110   0.231  0.00  0.00    +0.402 C 
ATOM     12  H   UNL     1     -36.031  22.335   2.073  0.00  0.00    +0.153 HD
BRANCH  11  13
ATOM     13  O   UNL     1     -34.574  22.235   0.235  0.00  0.00    -0.430 OA
BRANCH  13  14
ATOM     14  C   UNL     1     -34.744  21.062   1.037  0.00  0.00    +0.237 C 
BRANCH  14  15
ATOM     15  C   UNL     1     -33.536  20.185   0.882  0.00  0.00    +0.021 C 
ATOM     16  C   UNL     1     -33.502  18.931   1.492  0.00  0.00    -0.001 C 
ATOM     17  C   UNL     1     -32.447  20.624   0.129  0.00  0.00    -0.001 C 
ATOM     18  C   UNL     1     -32.379  18.115   1.349  0.00  0.00    -0.000 C 
ATOM     19  C   UNL     1     -31.324  19.808  -0.014  0.00  0.00    -0.000 C 
ATOM     20  C   UNL     1     -31.290  18.554   0.595  0.00  0.00    -0.000 C 
ENDBRANCH  14  15
ENDBRANCH  13  14
ENDBRANCH  11  13
ENDBRANCH   7  10
ENDBRANCH   5   7
ENDBRANCH   1   4
BRANCH   1  21
ATOM     21  P   UNL     1     -35.273  25.733   5.236  0.00  0.00    +0.358 P 
ATOM     22  O   UNL     1     -34.277  25.961   6.336  0.00  0.00    -0.256 OA
BRANCH  21  23
ATOM     23  O   UNL     1     -36.590  26.669   5.325  0.00  0.00    -0.322 OA
ATOM     24  H   UNL     1     -36.874  26.914   4.431  0.00  0.00    +0.220 HD
ENDBRANCH  21  23
BRANCH  21  25
ATOM     25  O   UNL     1     -34.720  25.987   3.736  0.00  0.00    -0.284 OA
BRANCH  25  26
ATOM     26  C   UNL     1     -34.839  27.285   3.181  0.00  0.00    +0.226 C 
BRANCH  26  28
ATOM     27  O   UNL     1     -35.364  26.895   0.837  0.00  0.00    -0.248 OA
ATOM     28  C   UNL     1     -35.741  27.181   1.967  0.00  0.00    +0.342 C 
BRANCH  28  29
ATOM     29  O   UNL     1     -37.042  27.422   2.274  0.00  0.00    -0.479 OA
ATOM     30  H   UNL     1     -37.721  26.942   1.843  0.00  0.00    +0.295 HD
ENDBRANCH  28  29
ENDBRANCH  26  28
BRANCH  26  31
ATOM     31  C   UNL     1     -33.446  27.776   2.780  0.00  0.00    +0.068 C 
BRANCH  31  32
ATOM     32  C   UNL     1     -32.867  28.727   3.799  0.00  0.00    -0.019 C 
ATOM     33  C   UNL     1     -32.229  28.228   4.935  0.00  0.00    -0.004 C 
ATOM     34  C   UNL     1     -32.971  30.104   3.606  0.00  0.00    -0.004 C 
ATOM     35  C   UNL     1     -31.694  29.106   5.877  0.00  0.00    -0.000 C 
ATOM     36  C   UNL     1     -32.435  30.983   4.548  0.00  0.00    -0.000 C 
ATOM     37  C   UNL     1     -31.797  30.484   5.684  0.00  0.00    -0.000 C 
ENDBRANCH  31  32
ENDBRANCH  26  31
ENDBRANCH  25  26
ENDBRANCH  21  25
ENDBRANCH   1  21
TORSDOF 14
ENDMDL
MODEL 7
REMARK VINA RESULT:      -6.8      2.860      5.440
REMARK  Name = 5492457
REMARK  14 active torsions:
REMARK  status: ('A' for Active; 'I' for Inactive)
REMARK    1  A    between atoms: C_1  and  N_4
REMARK    2  A    between atoms: C_1  and  P_21
REMARK    3  A    between atoms: C_5  and  C_7
REMARK    4  A    between atoms: C_7  and  N_10
REMARK    5  A    between atoms: C_11  and  O_13
REMARK    6  A    between atoms: O_13  and  C_14
REMARK    7  A    between atoms: C_14  and  C_15
REMARK    8  A    between atoms: P_21  and  O_23
REMARK    9  A    between atoms: P_21  and  O_25
REMARK   10  A    between atoms: O_25  and  C_26
REMARK   11  A    between atoms: C_26  and  C_28
REMARK   12  A    between atoms: C_26  and  C_31
REMARK   13  A    between atoms: C_28  and  O_29
REMARK   14  A    between atoms: C_31  and  C_32
REMARK                            x       y       z     vdW  Elec       q    Type
REMARK                         _______ _______ _______ _____ _____    ______ ____
ROOT
ATOM      1  C   UNL     1     -37.567  21.359   0.767  0.00  0.00    +0.177 C 
ATOM      2  C   UNL     1     -37.027  21.535  -0.644  0.00  0.00    +0.034 C 
ENDROOT
BRANCH   1   4
ATOM      3  O   UNL     1     -40.325  21.481   1.619  0.00  0.00    -0.273 OA
ATOM      4  N   UNL     1     -38.306  22.541   1.185  0.00  0.00    -0.295 N 
ATOM      5  C   UNL     1     -39.637  22.498   1.580  0.00  0.00    +0.241 C 
ATOM      6  H   UNL     1     -37.842  23.408   1.189  0.00  0.00    +0.150 HD
BRANCH   5   7
ATOM      7  C   UNL     1     -40.147  23.865   2.015  0.00  0.00    +0.151 C 
ATOM      8  C   UNL     1     -41.254  24.349   1.091  0.00  0.00    +0.031 C 
BRANCH   7  10
ATOM      9  O   UNL     1     -40.035  26.539   3.146  0.00  0.00    -0.226 OA
ATOM     10  N   UNL     1     -39.033  24.775   2.018  0.00  0.00    -0.264 N 
ATOM     11  C   UNL     1     -39.068  26.036   2.584  0.00  0.00    +0.402 C 
ATOM     12  H   UNL     1     -38.194  24.482   1.593  0.00  0.00    +0.153 HD
BRANCH  11  13
ATOM     13  O   UNL     1     -37.858  26.651   2.424  0.00  0.00    -0.430 OA
BRANCH  13  14
ATOM     14  C   UNL     1     -37.202  26.422   1.173  0.00  0.00    +0.237 C 
BRANCH  14  15
ATOM     15  C   UNL     1     -36.064  27.390   1.033  0.00  0.00    +0.021 C 
ATOM     16  C   UNL     1     -35.133  27.229   0.007  0.00  0.00    -0.001 C 
ATOM     17  C   UNL     1     -35.937  28.452   1.929  0.00  0.00    -0.001 C 
ATOM     18  C   UNL     1     -34.075  28.129  -0.123  0.00  0.00    -0.000 C 
ATOM     19  C   UNL     1     -34.879  29.352   1.798  0.00  0.00    -0.000 C 
ATOM     20  C   UNL     1     -33.948  29.190   0.772  0.00  0.00    -0.000 C 
ENDBRANCH  14  15
ENDBRANCH  13  14
ENDBRANCH  11  13
ENDBRANCH   7  10
ENDBRANCH   5   7
ENDBRANCH   1   4
BRANCH   1  21
ATOM     21  P   UNL     1     -36.319  21.105   2.027  0.00  0.00    +0.358 P 
ATOM     22  O   UNL     1     -34.907  21.230   1.531  0.00  0.00    -0.256 OA
BRANCH  21  23
ATOM     23  O   UNL     1     -36.686  19.651   2.636  0.00  0.00    -0.322 OA
ATOM     24  H   UNL     1     -36.451  19.626   3.576  0.00  0.00    +0.220 HD
ENDBRANCH  21  23
BRANCH  21  25
ATOM     25  O   UNL     1     -36.735  22.133   3.205  0.00  0.00    -0.284 OA
BRANCH  25  26
ATOM     26  C   UNL     1     -35.707  22.744   3.965  0.00  0.00    +0.226 C 
BRANCH  26  28
ATOM     27  O   UNL     1     -35.938  22.500   6.375  0.00  0.00    -0.248 OA
ATOM     28  C   UNL     1     -35.628  22.017   5.293  0.00  0.00    +0.342 C 
BRANCH  28  29
ATOM     29  O   UNL     1     -35.187  20.740   5.152  0.00  0.00    -0.479 OA
ATOM     30  H   UNL     1     -34.427  20.452   5.616  0.00  0.00    +0.295 HD
ENDBRANCH  28  29
ENDBRANCH  26  28
BRANCH  26  31
ATOM     31  C   UNL     1     -36.062  24.218   4.176  0.00  0.00    +0.068 C 
BRANCH  31  32
ATOM     32  C   UNL     1     -34.891  25.127   3.894  0.00  0.00    -0.019 C 
ATOM     33  C   UNL     1     -34.073  24.888   2.790  0.00  0.00    -0.004 C 
ATOM     34  C   UNL     1     -34.626  26.205   4.738  0.00  0.00    -0.004 C 
ATOM     35  C   UNL     1     -32.990  25.728   2.530  0.00  0.00    -0.000 C 
ATOM     36  C   UNL     1     -33.544  27.046   4.477  0.00  0.00    -0.000 C 
ATOM     37  C   UNL     1     -32.726  26.807   3.373  0.00  0.00    -0.000 C 
ENDBRANCH  31  32
ENDBRANCH  26  31
ENDBRANCH  25  26
ENDBRANCH  21  25
ENDBRANCH   1  21
TORSDOF 14
ENDMDL
MODEL 8
REMARK VINA RESULT:      -6.8      4.990      9.116
REMARK  Name = 5492457
REMARK  14 active torsions:
REMARK  status: ('A' for Active; 'I' for Inactive)
REMARK    1  A    between atoms: C_1  and  N_4
REMARK    2  A    between atoms: C_1  and  P_21
REMARK    3  A    between atoms: C_5  and  C_7
REMARK    4  A    between atoms: C_7  and  N_10
REMARK    5  A    between atoms: C_11  and  O_13
REMARK    6  A    between atoms: O_13  and  C_14
REMARK    7  A    between atoms: C_14  and  C_15
REMARK    8  A    between atoms: P_21  and  O_23
REMARK    9  A    between atoms: P_21  and  O_25
REMARK   10  A    between atoms: O_25  and  C_26
REMARK   11  A    between atoms: C_26  and  C_28
REMARK   12  A    between atoms: C_26  and  C_31
REMARK   13  A    between atoms: C_28  and  O_29
REMARK   14  A    between atoms: C_31  and  C_32
REMARK                            x       y       z     vdW  Elec       q    Type
REMARK                         _______ _______ _______ _____ _____    ______ ____
ROOT
ATOM      1  C   UNL     1     -37.255  21.214   1.218  0.00  0.00    +0.177 C 
ATOM      2  C   UNL     1     -38.577  21.346   1.960  0.00  0.00    +0.034 C 
ENDROOT
BRANCH   1   4
ATOM      3  O   UNL     1     -36.290  20.280  -1.340  0.00  0.00    -0.273 OA
ATOM      4  N   UNL     1     -37.029  19.834   0.815  0.00  0.00    -0.295 N 
ATOM      5  C   UNL     1     -36.560  19.483  -0.444  0.00  0.00    +0.241 C 
ATOM      6  H   UNL     1     -37.217  19.118   1.464  0.00  0.00    +0.150 HD
BRANCH   5   7
ATOM      7  C   UNL     1     -36.366  17.979  -0.581  0.00  0.00    +0.151 C 
ATOM      8  C   UNL     1     -37.584  17.226  -0.069  0.00  0.00    +0.031 C 
BRANCH   7  10
ATOM      9  O   UNL     1     -33.764  17.261  -1.656  0.00  0.00    -0.226 OA
ATOM     10  N   UNL     1     -35.181  17.615   0.148  0.00  0.00    -0.264 N 
ATOM     11  C   UNL     1     -33.977  17.287  -0.448  0.00  0.00    +0.402 C 
ATOM     12  H   UNL     1     -35.229  17.600   1.132  0.00  0.00    +0.153 HD
BRANCH  11  13
ATOM     13  O   UNL     1     -33.049  16.991   0.510  0.00  0.00    -0.430 OA
BRANCH  13  14
ATOM     14  C   UNL     1     -32.680  18.070   1.376  0.00  0.00    +0.237 C 
BRANCH  14  15
ATOM     15  C   UNL     1     -31.872  19.067   0.597  0.00  0.00    +0.021 C 
ATOM     16  C   UNL     1     -30.567  18.759   0.214  0.00  0.00    -0.001 C 
ATOM     17  C   UNL     1     -32.426  20.301   0.259  0.00  0.00    -0.001 C 
ATOM     18  C   UNL     1     -29.815  19.685  -0.510  0.00  0.00    -0.000 C 
ATOM     19  C   UNL     1     -31.674  21.227  -0.464  0.00  0.00    -0.000 C 
ATOM     20  C   UNL     1     -30.369  20.920  -0.848  0.00  0.00    -0.000 C 
ENDBRANCH  14  15
ENDBRANCH  13  14
ENDBRANCH  11  13
ENDBRANCH   7  10
ENDBRANCH   5   7
ENDBRANCH   1   4
BRANCH   1  21
ATOM     21  P   UNL     1     -35.809  21.678   2.168  0.00  0.00    +0.358 P 
ATOM     22  O   UNL     1     -34.855  22.579   1.439  0.00  0.00    -0.256 OA
BRANCH  21  23
ATOM     23  O   UNL     1     -35.176  20.257   2.613  0.00  0.00    -0.322 OA
ATOM     24  H   UNL     1     -35.807  19.784   3.177  0.00  0.00    +0.220 HD
ENDBRANCH  21  23
BRANCH  21  25
ATOM     25  O   UNL     1     -36.416  22.277   3.543  0.00  0.00    -0.284 OA
BRANCH  25  26
ATOM     26  C   UNL     1     -35.520  22.779   4.518  0.00  0.00    +0.226 C 
BRANCH  26  28
ATOM     27  O   UNL     1     -36.036  22.120   6.803  0.00  0.00    -0.248 OA
ATOM     28  C   UNL     1     -35.567  21.839   5.707  0.00  0.00    +0.342 C 
BRANCH  28  29
ATOM     29  O   UNL     1     -35.041  20.621   5.417  0.00  0.00    -0.479 OA
ATOM     30  H   UNL     1     -35.451  19.844   5.743  0.00  0.00    +0.295 HD
ENDBRANCH  28  29
ENDBRANCH  26  28
BRANCH  26  31
ATOM     31  C   UNL     1     -35.970  24.185   4.922  0.00  0.00    +0.068 C 
BRANCH  31  32
ATOM     32  C   UNL     1     -34.878  25.207   4.718  0.00  0.00    -0.019 C 
ATOM     33  C   UNL     1     -34.399  25.941   5.803  0.00  0.00    -0.004 C 
ATOM     34  C   UNL     1     -34.349  25.418   3.445  0.00  0.00    -0.004 C 
ATOM     35  C   UNL     1     -33.390  26.886   5.615  0.00  0.00    -0.000 C 
ATOM     36  C   UNL     1     -33.340  26.363   3.257  0.00  0.00    -0.000 C 
ATOM     37  C   UNL     1     -32.861  27.097   4.343  0.00  0.00    -0.000 C 
ENDBRANCH  31  32
ENDBRANCH  26  31
ENDBRANCH  25  26
ENDBRANCH  21  25
ENDBRANCH   1  21
TORSDOF 14
ENDMDL
MODEL 9
REMARK VINA RESULT:      -6.8      5.569      9.124
REMARK  Name = 5492457
REMARK  14 active torsions:
REMARK  status: ('A' for Active; 'I' for Inactive)
REMARK    1  A    between atoms: C_1  and  N_4
REMARK    2  A    between atoms: C_1  and  P_21
REMARK    3  A    between atoms: C_5  and  C_7
REMARK    4  A    between atoms: C_7  and  N_10
REMARK    5  A    between atoms: C_11  and  O_13
REMARK    6  A    between atoms: O_13  and  C_14
REMARK    7  A    between atoms: C_14  and  C_15
REMARK    8  A    between atoms: P_21  and  O_23
REMARK    9  A    between atoms: P_21  and  O_25
REMARK   10  A    between atoms: O_25  and  C_26
REMARK   11  A    between atoms: C_26  and  C_28
REMARK   12  A    between atoms: C_26  and  C_31
REMARK   13  A    between atoms: C_28  and  O_29
REMARK   14  A    between atoms: C_31  and  C_32
REMARK                            x       y       z     vdW  Elec       q    Type
REMARK                         _______ _______ _______ _____ _____    ______ ____
ROOT
ATOM      1  C   UNL     1     -32.289  28.049   3.924  0.00  0.00    +0.177 C 
ATOM      2  C   UNL     1     -32.583  29.526   4.140  0.00  0.00    +0.034 C 
ENDROOT
BRANCH   1   4
ATOM      3  O   UNL     1     -30.548  26.277   2.448  0.00  0.00    -0.273 OA
ATOM      4  N   UNL     1     -32.373  27.709   2.511  0.00  0.00    -0.295 N 
ATOM      5  C   UNL     1     -31.485  26.843   1.889  0.00  0.00    +0.241 C 
ATOM      6  H   UNL     1     -33.092  28.112   1.974  0.00  0.00    +0.150 HD
BRANCH   5   7
ATOM      7  C   UNL     1     -31.834  26.624   0.423  0.00  0.00    +0.151 C 
ATOM      8  C   UNL     1     -32.400  27.894  -0.194  0.00  0.00    +0.031 C 
BRANCH   7  10
ATOM      9  O   UNL     1     -31.337  23.895  -0.440  0.00  0.00    -0.226 OA
ATOM     10  N   UNL     1     -32.775  25.540   0.346  0.00  0.00    -0.264 N 
ATOM     11  C   UNL     1     -32.450  24.264  -0.079  0.00  0.00    +0.402 C 
ATOM     12  H   UNL     1     -33.706  25.715   0.613  0.00  0.00    +0.153 HD
BRANCH  11  13
ATOM     13  O   UNL     1     -33.557  23.465  -0.038  0.00  0.00    -0.430 OA
BRANCH  13  14
ATOM     14  C   UNL     1     -33.543  22.335  -0.917  0.00  0.00    +0.237 C 
BRANCH  14  15
ATOM     15  C   UNL     1     -33.323  21.089  -0.109  0.00  0.00    +0.021 C 
ATOM     16  C   UNL     1     -32.082  20.453  -0.133  0.00  0.00    -0.001 C 
ATOM     17  C   UNL     1     -34.359  20.568   0.665  0.00  0.00    -0.001 C 
ATOM     18  C   UNL     1     -31.877  19.295   0.617  0.00  0.00    -0.000 C 
ATOM     19  C   UNL     1     -34.153  19.410   1.416  0.00  0.00    -0.000 C 
ATOM     20  C   UNL     1     -32.913  18.774   1.392  0.00  0.00    -0.000 C 
ENDBRANCH  14  15
ENDBRANCH  13  14
ENDBRANCH  11  13
ENDBRANCH   7  10
ENDBRANCH   5   7
ENDBRANCH   1   4
BRANCH   1  21
ATOM     21  P   UNL     1     -33.413  26.927   4.754  0.00  0.00    +0.358 P 
ATOM     22  O   UNL     1     -33.382  27.017   6.252  0.00  0.00    -0.256 OA
BRANCH  21  23
ATOM     23  O   UNL     1     -33.005  25.477   4.164  0.00  0.00    -0.322 OA
ATOM     24  H   UNL     1     -32.178  25.552   3.663  0.00  0.00    +0.220 HD
ENDBRANCH  21  23
BRANCH  21  25
ATOM     25  O   UNL     1     -34.848  27.231   4.070  0.00  0.00    -0.284 OA
BRANCH  25  26
ATOM     26  C   UNL     1     -35.484  26.197   3.340  0.00  0.00    +0.226 C 
BRANCH  26  28
ATOM     27  O   UNL     1     -37.431  26.950   2.092  0.00  0.00    -0.248 OA
ATOM     28  C   UNL     1     -36.215  26.840   2.179  0.00  0.00    +0.342 C 
BRANCH  28  29
ATOM     29  O   UNL     1     -35.360  27.312   1.234  0.00  0.00    -0.479 OA
ATOM     30  H   UNL     1     -35.005  28.175   1.313  0.00  0.00    +0.295 HD
ENDBRANCH  28  29
ENDBRANCH  26  28
BRANCH  26  31
ATOM     31  C   UNL     1     -36.467  25.477   4.266  0.00  0.00    +0.068 C 
BRANCH  31  32
ATOM     32  C   UNL     1     -36.020  24.069   4.580  0.00  0.00    -0.019 C 
ATOM     33  C   UNL     1     -35.587  23.746   5.866  0.00  0.00    -0.004 C 
ATOM     34  C   UNL     1     -36.040  23.093   3.585  0.00  0.00    -0.004 C 
ATOM     35  C   UNL     1     -35.174  22.446   6.156  0.00  0.00    -0.000 C 
ATOM     36  C   UNL     1     -35.628  21.792   3.875  0.00  0.00    -0.000 C 
ATOM     37  C   UNL     1     -35.194  21.469   5.162  0.00  0.00    -0.000 C 
ENDBRANCH  31  32
ENDBRANCH  26  31
ENDBRANCH  25  26
ENDBRANCH  21  25
ENDBRANCH   1  21
TORSDOF 14
ENDMDL
