MODEL 1
REMARK VINA RESULT:      -6.3      0.000      0.000
REMARK  Name = 5487319
REMARK  9 active torsions:
REMARK  status: ('A' for Active; 'I' for Inactive)
REMARK    1  A    between atoms: C_3  and  C_19
REMARK    2  A    between atoms: C_11  and  C_16
REMARK    3  A    between atoms: C_16  and  O_17
REMARK    4  A    between atoms: C_19  and  O_21
REMARK    5  A    between atoms: O_21  and  C_23
REMARK    6  A    between atoms: C_23  and  C_24
REMARK    7  A    between atoms: C_24  and  O_25
REMARK    8  A    between atoms: C_24  and  C_27
REMARK    9  A    between atoms: C_27  and  O_28
REMARK                            x       y       z     vdW  Elec       q    Type
REMARK                         _______ _______ _______ _____ _____    ______ ____
ROOT
ATOM      1  N   UNL     1     -37.810  23.929   3.626  0.00  0.00    -0.401 NA
ATOM      2  N   UNL     1     -38.625  22.492   1.422  0.00  0.00    -0.401 NA
ATOM      3  C   UNL     1     -36.004  22.420   3.945  0.00  0.00    +0.049 C 
ATOM      4  C   UNL     1     -37.129  22.838   3.238  0.00  0.00    +0.160 C 
ATOM      5  C   UNL     1     -37.544  22.109   2.119  0.00  0.00    +0.160 C 
ATOM      6  C   UNL     1     -35.284  21.290   3.557  0.00  0.00    +0.002 C 
ATOM      7  C   UNL     1     -39.305  23.582   1.810  0.00  0.00    +0.149 C 
ATOM      8  C   UNL     1     -38.891  24.313   2.929  0.00  0.00    +0.139 C 
ATOM      9  C   UNL     1     -36.820  20.981   1.737  0.00  0.00    +0.035 C 
ATOM     10  C   UNL     1     -35.695  20.567   2.447  0.00  0.00    +0.003 C 
ATOM     11  C   UNL     1     -40.431  24.001   1.103  0.00  0.00    +0.175 C 
ATOM     12  C   UNL     1     -39.615  25.440   3.311  0.00  0.00    +0.087 C 
ATOM     13  C   UNL     1     -41.150  25.130   1.490  0.00  0.00    -0.012 C 
ATOM     14  C   UNL     1     -40.740  25.854   2.600  0.00  0.00    -0.022 C 
ENDROOT
BRANCH  11  16
ATOM     15  O   UNL     1     -40.951  23.715  -1.214  0.00  0.00    -0.249 OA
ATOM     16  C   UNL     1     -40.890  23.264  -0.069  0.00  0.00    +0.324 C 
BRANCH  16  17
ATOM     17  O   UNL     1     -41.256  21.990   0.234  0.00  0.00    -0.480 OA
ATOM     18  H   UNL     1     -40.777  21.505   0.877  0.00  0.00    +0.295 HD
ENDBRANCH  16  17
ENDBRANCH  11  16
BRANCH   3  19
ATOM     19  C   UNL     1     -35.537  23.180   5.146  0.00  0.00    +0.194 C 
ATOM     20  C   UNL     1     -35.314  22.278   6.361  0.00  0.00    +0.052 C 
BRANCH  19  21
ATOM     21  O   UNL     1     -34.314  23.860   4.845  0.00  0.00    -0.446 OA
BRANCH  21  23
ATOM     22  O   UNL     1     -34.579  25.830   6.012  0.00  0.00    -0.247 OA
ATOM     23  C   UNL     1     -34.347  25.218   4.977  0.00  0.00    +0.347 C 
BRANCH  23  24
ATOM     24  C   UNL     1     -34.023  25.872   3.646  0.00  0.00    +0.243 C 
BRANCH  24  25
ATOM     25  O   UNL     1     -32.764  26.518   3.781  0.00  0.00    -0.341 OA
ATOM     26  C   UNL     1     -32.892  27.931   3.701  0.00  0.00    +0.175 C 
ENDBRANCH  24  25
BRANCH  24  27
ATOM     27  C   UNL     1     -35.054  26.926   3.272  0.00  0.00    +0.178 C 
BRANCH  27  28
ATOM     28  O   UNL     1     -36.302  26.620   3.879  0.00  0.00    -0.379 OA
ATOM     29  H   UNL     1     -36.679  27.426   4.266  0.00  0.00    +0.211 HD
ENDBRANCH  27  28
ENDBRANCH  24  27
ENDBRANCH  23  24
ENDBRANCH  21  23
ENDBRANCH  19  21
ENDBRANCH   3  19
TORSDOF 9
ENDMDL
MODEL 2
REMARK VINA RESULT:      -6.0      2.964      6.655
REMARK  Name = 5487319
REMARK  9 active torsions:
REMARK  status: ('A' for Active; 'I' for Inactive)
REMARK    1  A    between atoms: C_3  and  C_19
REMARK    2  A    between atoms: C_11  and  C_16
REMARK    3  A    between atoms: C_16  and  O_17
REMARK    4  A    between atoms: C_19  and  O_21
REMARK    5  A    between atoms: O_21  and  C_23
REMARK    6  A    between atoms: C_23  and  C_24
REMARK    7  A    between atoms: C_24  and  O_25
REMARK    8  A    between atoms: C_24  and  C_27
REMARK    9  A    between atoms: C_27  and  O_28
REMARK                            x       y       z     vdW  Elec       q    Type
REMARK                         _______ _______ _______ _____ _____    ______ ____
ROOT
ATOM      1  N   UNL     1     -38.044  25.384   3.164  0.00  0.00    -0.401 NA
ATOM      2  N   UNL     1     -37.451  22.695   3.216  0.00  0.00    -0.401 NA
ATOM      3  C   UNL     1     -39.791  24.972   1.609  0.00  0.00    +0.049 C 
ATOM      4  C   UNL     1     -38.751  24.520   2.418  0.00  0.00    +0.160 C 
ATOM      5  C   UNL     1     -38.449  23.154   2.444  0.00  0.00    +0.160 C 
ATOM      6  C   UNL     1     -40.536  24.090   0.828  0.00  0.00    +0.002 C 
ATOM      7  C   UNL     1     -36.744  23.559   3.961  0.00  0.00    +0.149 C 
ATOM      8  C   UNL     1     -37.046  24.925   3.935  0.00  0.00    +0.139 C 
ATOM      9  C   UNL     1     -39.198  22.278   1.661  0.00  0.00    +0.035 C 
ATOM     10  C   UNL     1     -40.238  22.736   0.854  0.00  0.00    +0.003 C 
ATOM     11  C   UNL     1     -35.704  23.107   4.770  0.00  0.00    +0.175 C 
ATOM     12  C   UNL     1     -36.297  25.801   4.718  0.00  0.00    +0.087 C 
ATOM     13  C   UNL     1     -34.959  23.988   5.551  0.00  0.00    -0.012 C 
ATOM     14  C   UNL     1     -35.257  25.343   5.525  0.00  0.00    -0.022 C 
ENDROOT
BRANCH  11  16
ATOM     15  O   UNL     1     -35.284  21.014   5.850  0.00  0.00    -0.249 OA
ATOM     16  C   UNL     1     -35.363  21.689   4.821  0.00  0.00    +0.324 C 
BRANCH  16  17
ATOM     17  O   UNL     1     -35.135  21.169   3.587  0.00  0.00    -0.480 OA
ATOM     18  H   UNL     1     -35.365  21.659   2.821  0.00  0.00    +0.295 HD
ENDBRANCH  16  17
ENDBRANCH  11  16
BRANCH   3  19
ATOM     19  C   UNL     1     -40.136  26.427   1.560  0.00  0.00    +0.194 C 
ATOM     20  C   UNL     1     -39.685  27.094   0.260  0.00  0.00    +0.052 C 
BRANCH  19  21
ATOM     21  O   UNL     1     -41.550  26.595   1.699  0.00  0.00    -0.446 OA
BRANCH  21  23
ATOM     22  O   UNL     1     -41.679  26.438   3.995  0.00  0.00    -0.247 OA
ATOM     23  C   UNL     1     -41.981  26.976   2.937  0.00  0.00    +0.347 C 
BRANCH  23  24
ATOM     24  C   UNL     1     -42.878  28.194   2.817  0.00  0.00    +0.243 C 
BRANCH  24  25
ATOM     25  O   UNL     1     -42.138  29.207   2.149  0.00  0.00    -0.341 OA
ATOM     26  C   UNL     1     -42.906  29.827   1.127  0.00  0.00    +0.175 C 
ENDBRANCH  24  25
BRANCH  24  27
ATOM     27  C   UNL     1     -43.281  28.731   4.183  0.00  0.00    +0.178 C 
BRANCH  27  28
ATOM     28  O   UNL     1     -42.125  29.117   4.913  0.00  0.00    -0.379 OA
ATOM     29  H   UNL     1     -42.226  30.032   5.218  0.00  0.00    +0.211 HD
ENDBRANCH  27  28
ENDBRANCH  24  27
ENDBRANCH  23  24
ENDBRANCH  21  23
ENDBRANCH  19  21
ENDBRANCH   3  19
TORSDOF 9
ENDMDL
MODEL 3
REMARK VINA RESULT:      -5.9      3.260      4.173
REMARK  Name = 5487319
REMARK  9 active torsions:
REMARK  status: ('A' for Active; 'I' for Inactive)
REMARK    1  A    between atoms: C_3  and  C_19
REMARK    2  A    between atoms: C_11  and  C_16
REMARK    3  A    between atoms: C_16  and  O_17
REMARK    4  A    between atoms: C_19  and  O_21
REMARK    5  A    between atoms: O_21  and  C_23
REMARK    6  A    between atoms: C_23  and  C_24
REMARK    7  A    between atoms: C_24  and  O_25
REMARK    8  A    between atoms: C_24  and  C_27
REMARK    9  A    between atoms: C_27  and  O_28
REMARK                            x       y       z     vdW  Elec       q    Type
REMARK                         _______ _______ _______ _____ _____    ______ ____
ROOT
ATOM      1  N   UNL     1     -35.497  23.590   2.350  0.00  0.00    -0.401 NA
ATOM      2  N   UNL     1     -35.568  20.851   2.631  0.00  0.00    -0.401 NA
ATOM      3  C   UNL     1     -35.166  23.825   4.689  0.00  0.00    +0.049 C 
ATOM      4  C   UNL     1     -35.353  23.029   3.561  0.00  0.00    +0.160 C 
ATOM      5  C   UNL     1     -35.389  21.639   3.704  0.00  0.00    +0.160 C 
ATOM      6  C   UNL     1     -35.015  23.261   5.955  0.00  0.00    +0.002 C 
ATOM      7  C   UNL     1     -35.713  21.411   1.421  0.00  0.00    +0.149 C 
ATOM      8  C   UNL     1     -35.676  22.803   1.277  0.00  0.00    +0.139 C 
ATOM      9  C   UNL     1     -35.237  21.081   4.972  0.00  0.00    +0.035 C 
ATOM     10  C   UNL     1     -35.051  21.882   6.097  0.00  0.00    +0.003 C 
ATOM     11  C   UNL     1     -35.899  20.616   0.292  0.00  0.00    +0.175 C 
ATOM     12  C   UNL     1     -35.828  23.360   0.009  0.00  0.00    +0.087 C 
ATOM     13  C   UNL     1     -36.051  21.179  -0.974  0.00  0.00    -0.012 C 
ATOM     14  C   UNL     1     -36.015  22.559  -1.116  0.00  0.00    -0.022 C 
ENDROOT
BRANCH  11  16
ATOM     15  O   UNL     1     -35.101  18.388  -0.057  0.00  0.00    -0.249 OA
ATOM     16  C   UNL     1     -35.942  19.162   0.405  0.00  0.00    +0.324 C 
BRANCH  16  17
ATOM     17  O   UNL     1     -37.033  18.730   1.091  0.00  0.00    -0.480 OA
ATOM     18  H   UNL     1     -37.855  18.634   0.653  0.00  0.00    +0.295 HD
ENDBRANCH  16  17
ENDBRANCH  11  16
BRANCH   3  19
ATOM     19  C   UNL     1     -35.123  25.315   4.567  0.00  0.00    +0.194 C 
ATOM     20  C   UNL     1     -36.010  26.015   5.599  0.00  0.00    +0.052 C 
BRANCH  19  21
ATOM     21  O   UNL     1     -33.778  25.777   4.727  0.00  0.00    -0.446 OA
BRANCH  21  23
ATOM     22  O   UNL     1     -33.218  26.037   2.506  0.00  0.00    -0.247 OA
ATOM     23  C   UNL     1     -33.254  26.447   3.659  0.00  0.00    +0.347 C 
BRANCH  23  24
ATOM     24  C   UNL     1     -32.739  27.803   4.106  0.00  0.00    +0.243 C 
BRANCH  24  25
ATOM     25  O   UNL     1     -32.871  27.867   5.520  0.00  0.00    -0.341 OA
ATOM     26  C   UNL     1     -31.827  28.632   6.107  0.00  0.00    +0.175 C 
ENDBRANCH  24  25
BRANCH  24  27
ATOM     27  C   UNL     1     -33.555  28.939   3.507  0.00  0.00    +0.178 C 
BRANCH  27  28
ATOM     28  O   UNL     1     -34.918  28.552   3.397  0.00  0.00    -0.379 OA
ATOM     29  H   UNL     1     -35.485  29.269   3.720  0.00  0.00    +0.211 HD
ENDBRANCH  27  28
ENDBRANCH  24  27
ENDBRANCH  23  24
ENDBRANCH  21  23
ENDBRANCH  19  21
ENDBRANCH   3  19
TORSDOF 9
ENDMDL
MODEL 4
REMARK VINA RESULT:      -5.7      3.542      6.618
REMARK  Name = 5487319
REMARK  9 active torsions:
REMARK  status: ('A' for Active; 'I' for Inactive)
REMARK    1  A    between atoms: C_3  and  C_19
REMARK    2  A    between atoms: C_11  and  C_16
REMARK    3  A    between atoms: C_16  and  O_17
REMARK    4  A    between atoms: C_19  and  O_21
REMARK    5  A    between atoms: O_21  and  C_23
REMARK    6  A    between atoms: C_23  and  C_24
REMARK    7  A    between atoms: C_24  and  O_25
REMARK    8  A    between atoms: C_24  and  C_27
REMARK    9  A    between atoms: C_27  and  O_28
REMARK                            x       y       z     vdW  Elec       q    Type
REMARK                         _______ _______ _______ _____ _____    ______ ____
ROOT
ATOM      1  N   UNL     1     -35.808  21.300   2.836  0.00  0.00    -0.401 NA
ATOM      2  N   UNL     1     -36.256  24.018   2.811  0.00  0.00    -0.401 NA
ATOM      3  C   UNL     1     -36.381  21.182   0.534  0.00  0.00    +0.049 C 
ATOM      4  C   UNL     1     -36.198  21.913   1.706  0.00  0.00    +0.160 C 
ATOM      5  C   UNL     1     -36.426  23.293   1.694  0.00  0.00    +0.160 C 
ATOM      6  C   UNL     1     -36.786  21.800  -0.648  0.00  0.00    +0.002 C 
ATOM      7  C   UNL     1     -35.866  23.406   3.940  0.00  0.00    +0.149 C 
ATOM      8  C   UNL     1     -35.638  22.026   3.953  0.00  0.00    +0.139 C 
ATOM      9  C   UNL     1     -36.830  23.904   0.509  0.00  0.00    +0.035 C 
ATOM     10  C   UNL     1     -37.011  23.168  -0.661  0.00  0.00    +0.003 C 
ATOM     11  C   UNL     1     -35.683  24.136   5.112  0.00  0.00    +0.175 C 
ATOM     12  C   UNL     1     -35.234  21.414   5.138  0.00  0.00    +0.087 C 
ATOM     13  C   UNL     1     -35.278  23.519   6.294  0.00  0.00    -0.012 C 
ATOM     14  C   UNL     1     -35.052  22.150   6.307  0.00  0.00    -0.022 C 
ENDROOT
BRANCH  11  16
ATOM     15  O   UNL     1     -35.066  26.427   5.426  0.00  0.00    -0.249 OA
ATOM     16  C   UNL     1     -35.911  25.577   5.134  0.00  0.00    +0.324 C 
BRANCH  16  17
ATOM     17  O   UNL     1     -37.184  25.903   4.790  0.00  0.00    -0.480 OA
ATOM     18  H   UNL     1     -37.644  25.390   4.154  0.00  0.00    +0.295 HD
ENDBRANCH  16  17
ENDBRANCH  11  16
BRANCH   3  19
ATOM     19  C   UNL     1     -36.146  19.704   0.518  0.00  0.00    +0.194 C 
ATOM     20  C   UNL     1     -37.354  18.924  -0.004  0.00  0.00    +0.052 C 
BRANCH  19  21
ATOM     21  O   UNL     1     -35.013  19.403  -0.303  0.00  0.00    -0.446 OA
BRANCH  21  23
ATOM     22  O   UNL     1     -34.090  17.419   0.420  0.00  0.00    -0.247 OA
ATOM     23  C   UNL     1     -34.049  18.635   0.282  0.00  0.00    +0.347 C 
BRANCH  23  24
ATOM     24  C   UNL     1     -32.889  19.510   0.719  0.00  0.00    +0.243 C 
BRANCH  24  25
ATOM     25  O   UNL     1     -32.760  20.558  -0.232  0.00  0.00    -0.341 OA
ATOM     26  C   UNL     1     -31.400  20.914  -0.436  0.00  0.00    +0.175 C 
ENDBRANCH  24  25
BRANCH  24  27
ATOM     27  C   UNL     1     -31.579  18.736   0.745  0.00  0.00    +0.178 C 
BRANCH  27  28
ATOM     28  O   UNL     1     -31.637  17.717   1.733  0.00  0.00    -0.379 OA
ATOM     29  H   UNL     1     -31.050  17.948   2.470  0.00  0.00    +0.211 HD
ENDBRANCH  27  28
ENDBRANCH  24  27
ENDBRANCH  23  24
ENDBRANCH  21  23
ENDBRANCH  19  21
ENDBRANCH   3  19
TORSDOF 9
ENDMDL
MODEL 5
REMARK VINA RESULT:      -5.7      3.009      6.790
REMARK  Name = 5487319
REMARK  9 active torsions:
REMARK  status: ('A' for Active; 'I' for Inactive)
REMARK    1  A    between atoms: C_3  and  C_19
REMARK    2  A    between atoms: C_11  and  C_16
REMARK    3  A    between atoms: C_16  and  O_17
REMARK    4  A    between atoms: C_19  and  O_21
REMARK    5  A    between atoms: O_21  and  C_23
REMARK    6  A    between atoms: C_23  and  C_24
REMARK    7  A    between atoms: C_24  and  O_25
REMARK    8  A    between atoms: C_24  and  C_27
REMARK    9  A    between atoms: C_27  and  O_28
REMARK                            x       y       z     vdW  Elec       q    Type
REMARK                         _______ _______ _______ _____ _____    ______ ____
ROOT
ATOM      1  N   UNL     1     -36.692  22.140   2.692  0.00  0.00    -0.401 NA
ATOM      2  N   UNL     1     -36.573  24.878   2.969  0.00  0.00    -0.401 NA
ATOM      3  C   UNL     1     -37.748  22.397   0.581  0.00  0.00    +0.049 C 
ATOM      4  C   UNL     1     -37.178  22.941   1.730  0.00  0.00    +0.160 C 
ATOM      5  C   UNL     1     -37.118  24.331   1.871  0.00  0.00    +0.160 C 
ATOM      6  C   UNL     1     -38.259  23.212  -0.429  0.00  0.00    +0.002 C 
ATOM      7  C   UNL     1     -36.087  24.078   3.931  0.00  0.00    +0.149 C 
ATOM      8  C   UNL     1     -36.146  22.687   3.790  0.00  0.00    +0.139 C 
ATOM      9  C   UNL     1     -37.630  25.139   0.858  0.00  0.00    +0.035 C 
ATOM     10  C   UNL     1     -38.200  24.590  -0.289  0.00  0.00    +0.003 C 
ATOM     11  C   UNL     1     -35.516  24.621   5.080  0.00  0.00    +0.175 C 
ATOM     12  C   UNL     1     -35.634  21.879   4.803  0.00  0.00    +0.087 C 
ATOM     13  C   UNL     1     -35.006  23.807   6.089  0.00  0.00    -0.012 C 
ATOM     14  C   UNL     1     -35.065  22.428   5.950  0.00  0.00    -0.022 C 
ENDROOT
BRANCH  11  16
ATOM     15  O   UNL     1     -34.394  26.723   5.302  0.00  0.00    -0.249 OA
ATOM     16  C   UNL     1     -35.438  26.067   5.259  0.00  0.00    +0.324 C 
BRANCH  16  17
ATOM     17  O   UNL     1     -36.665  26.639   5.378  0.00  0.00    -0.480 OA
ATOM     18  H   UNL     1     -36.868  27.417   4.895  0.00  0.00    +0.295 HD
ENDBRANCH  16  17
ENDBRANCH  11  16
BRANCH   3  19
ATOM     19  C   UNL     1     -37.827  20.914   0.402  0.00  0.00    +0.194 C 
ATOM     20  C   UNL     1     -39.100  20.476  -0.324  0.00  0.00    +0.052 C 
BRANCH  19  21
ATOM     21  O   UNL     1     -36.692  20.454  -0.339  0.00  0.00    -0.446 OA
BRANCH  21  23
ATOM     22  O   UNL     1     -36.947  18.233   0.224  0.00  0.00    -0.247 OA
ATOM     23  C   UNL     1     -36.243  19.206  -0.015  0.00  0.00    +0.347 C 
BRANCH  23  24
ATOM     24  C   UNL     1     -34.725  19.188  -0.020  0.00  0.00    +0.243 C 
BRANCH  24  25
ATOM     25  O   UNL     1     -34.313  17.872  -0.363  0.00  0.00    -0.341 OA
ATOM     26  C   UNL     1     -33.218  17.444   0.434  0.00  0.00    +0.175 C 
ENDBRANCH  24  25
BRANCH  24  27
ATOM     27  C   UNL     1     -34.154  19.516   1.352  0.00  0.00    +0.178 C 
BRANCH  27  28
ATOM     28  O   UNL     1     -35.209  19.678   2.289  0.00  0.00    -0.379 OA
ATOM     29  H   UNL     1     -35.491  20.606   2.302  0.00  0.00    +0.211 HD
ENDBRANCH  27  28
ENDBRANCH  24  27
ENDBRANCH  23  24
ENDBRANCH  21  23
ENDBRANCH  19  21
ENDBRANCH   3  19
TORSDOF 9
ENDMDL
MODEL 6
REMARK VINA RESULT:      -5.7      2.425      7.261
REMARK  Name = 5487319
REMARK  9 active torsions:
REMARK  status: ('A' for Active; 'I' for Inactive)
REMARK    1  A    between atoms: C_3  and  C_19
REMARK    2  A    between atoms: C_11  and  C_16
REMARK    3  A    between atoms: C_16  and  O_17
REMARK    4  A    between atoms: C_19  and  O_21
REMARK    5  A    between atoms: O_21  and  C_23
REMARK    6  A    between atoms: C_23  and  C_24
REMARK    7  A    between atoms: C_24  and  O_25
REMARK    8  A    between atoms: C_24  and  C_27
REMARK    9  A    between atoms: C_27  and  O_28
REMARK                            x       y       z     vdW  Elec       q    Type
REMARK                         _______ _______ _______ _____ _____    ______ ____
ROOT
ATOM      1  N   UNL     1     -35.181  26.361   3.104  0.00  0.00    -0.401 NA
ATOM      2  N   UNL     1     -33.511  25.909   5.249  0.00  0.00    -0.401 NA
ATOM      3  C   UNL     1     -36.117  24.195   3.373  0.00  0.00    +0.049 C 
ATOM      4  C   UNL     1     -35.226  25.192   3.764  0.00  0.00    +0.160 C 
ATOM      5  C   UNL     1     -34.378  24.963   4.853  0.00  0.00    +0.160 C 
ATOM      6  C   UNL     1     -36.178  22.975   4.046  0.00  0.00    +0.002 C 
ATOM      7  C   UNL     1     -33.466  27.076   4.589  0.00  0.00    +0.149 C 
ATOM      8  C   UNL     1     -34.314  27.307   3.500  0.00  0.00    +0.139 C 
ATOM      9  C   UNL     1     -34.445  23.742   5.521  0.00  0.00    +0.035 C 
ATOM     10  C   UNL     1     -35.338  22.748   5.125  0.00  0.00    +0.003 C 
ATOM     11  C   UNL     1     -32.575  28.075   4.980  0.00  0.00    +0.175 C 
ATOM     12  C   UNL     1     -34.247  28.528   2.832  0.00  0.00    +0.087 C 
ATOM     13  C   UNL     1     -32.513  29.294   4.307  0.00  0.00    -0.012 C 
ATOM     14  C   UNL     1     -33.354  29.522   3.228  0.00  0.00    -0.022 C 
ENDROOT
BRANCH  11  16
ATOM     15  O   UNL     1     -30.448  27.809   6.041  0.00  0.00    -0.249 OA
ATOM     16  C   UNL     1     -31.677  27.869   6.111  0.00  0.00    +0.324 C 
BRANCH  16  17
ATOM     17  O   UNL     1     -32.348  27.745   7.286  0.00  0.00    -0.480 OA
ATOM     18  H   UNL     1     -31.930  27.978   8.092  0.00  0.00    +0.295 HD
ENDBRANCH  16  17
ENDBRANCH  11  16
BRANCH   3  19
ATOM     19  C   UNL     1     -37.035  24.412   2.212  0.00  0.00    +0.194 C 
ATOM     20  C   UNL     1     -36.796  23.411   1.080  0.00  0.00    +0.052 C 
BRANCH  19  21
ATOM     21  O   UNL     1     -38.395  24.304   2.644  0.00  0.00    -0.446 OA
BRANCH  21  23
ATOM     22  O   UNL     1     -38.671  26.576   2.375  0.00  0.00    -0.247 OA
ATOM     23  C   UNL     1     -39.119  25.460   2.606  0.00  0.00    +0.347 C 
BRANCH  23  24
ATOM     24  C   UNL     1     -40.584  25.159   2.867  0.00  0.00    +0.243 C 
BRANCH  24  25
ATOM     25  O   UNL     1     -41.055  24.356   1.793  0.00  0.00    -0.341 OA
ATOM     26  C   UNL     1     -41.755  25.132   0.830  0.00  0.00    +0.175 C 
ENDBRANCH  24  25
BRANCH  24  27
ATOM     27  C   UNL     1     -41.421  26.429   2.905  0.00  0.00    +0.178 C 
BRANCH  27  28
ATOM     28  O   UNL     1     -41.125  27.169   4.081  0.00  0.00    -0.379 OA
ATOM     29  H   UNL     1     -40.411  27.799   3.895  0.00  0.00    +0.211 HD
ENDBRANCH  27  28
ENDBRANCH  24  27
ENDBRANCH  23  24
ENDBRANCH  21  23
ENDBRANCH  19  21
ENDBRANCH   3  19
TORSDOF 9
ENDMDL
MODEL 7
REMARK VINA RESULT:      -5.6      2.365      6.828
REMARK  Name = 5487319
REMARK  9 active torsions:
REMARK  status: ('A' for Active; 'I' for Inactive)
REMARK    1  A    between atoms: C_3  and  C_19
REMARK    2  A    between atoms: C_11  and  C_16
REMARK    3  A    between atoms: C_16  and  O_17
REMARK    4  A    between atoms: C_19  and  O_21
REMARK    5  A    between atoms: O_21  and  C_23
REMARK    6  A    between atoms: C_23  and  C_24
REMARK    7  A    between atoms: C_24  and  O_25
REMARK    8  A    between atoms: C_24  and  C_27
REMARK    9  A    between atoms: C_27  and  O_28
REMARK                            x       y       z     vdW  Elec       q    Type
REMARK                         _______ _______ _______ _____ _____    ______ ____
ROOT
ATOM      1  N   UNL     1     -34.366  24.409   2.252  0.00  0.00    -0.401 NA
ATOM      2  N   UNL     1     -33.752  25.763   4.572  0.00  0.00    -0.401 NA
ATOM      3  C   UNL     1     -35.351  22.665   3.528  0.00  0.00    +0.049 C 
ATOM      4  C   UNL     1     -34.695  23.892   3.447  0.00  0.00    +0.160 C 
ATOM      5  C   UNL     1     -34.383  24.579   4.624  0.00  0.00    +0.160 C 
ATOM      6  C   UNL     1     -35.700  22.112   4.759  0.00  0.00    +0.002 C 
ATOM      7  C   UNL     1     -33.423  26.280   3.378  0.00  0.00    +0.149 C 
ATOM      8  C   UNL     1     -33.735  25.594   2.200  0.00  0.00    +0.139 C 
ATOM      9  C   UNL     1     -34.735  24.020   5.851  0.00  0.00    +0.035 C 
ATOM     10  C   UNL     1     -35.391  22.793   5.927  0.00  0.00    +0.003 C 
ATOM     11  C   UNL     1     -32.767  27.507   3.296  0.00  0.00    +0.175 C 
ATOM     12  C   UNL     1     -33.383  26.152   0.973  0.00  0.00    +0.087 C 
ATOM     13  C   UNL     1     -32.418  28.061   2.066  0.00  0.00    -0.012 C 
ATOM     14  C   UNL     1     -32.727  27.379   0.897  0.00  0.00    -0.022 C 
ENDROOT
BRANCH  11  16
ATOM     15  O   UNL     1     -32.785  29.404   4.754  0.00  0.00    -0.249 OA
ATOM     16  C   UNL     1     -32.427  28.251   4.504  0.00  0.00    +0.324 C 
BRANCH  16  17
ATOM     17  O   UNL     1     -31.653  27.526   5.354  0.00  0.00    -0.480 OA
ATOM     18  H   UNL     1     -31.831  27.535   6.274  0.00  0.00    +0.295 HD
ENDBRANCH  16  17
ENDBRANCH  11  16
BRANCH   3  19
ATOM     19  C   UNL     1     -35.697  21.907   2.286  0.00  0.00    +0.194 C 
ATOM     20  C   UNL     1     -35.209  20.458   2.327  0.00  0.00    +0.052 C 
BRANCH  19  21
ATOM     21  O   UNL     1     -37.116  21.910   2.095  0.00  0.00    -0.446 OA
BRANCH  21  23
ATOM     22  O   UNL     1     -36.939  23.391   0.338  0.00  0.00    -0.247 OA
ATOM     23  C   UNL     1     -37.590  22.841   1.217  0.00  0.00    +0.347 C 
BRANCH  23  24
ATOM     24  C   UNL     1     -39.068  23.080   1.470  0.00  0.00    +0.243 C 
BRANCH  24  25
ATOM     25  O   UNL     1     -39.234  23.297   2.865  0.00  0.00    -0.341 OA
ATOM     26  C   UNL     1     -39.518  24.659   3.152  0.00  0.00    +0.175 C 
ENDBRANCH  24  25
BRANCH  24  27
ATOM     27  C   UNL     1     -39.908  21.873   1.079  0.00  0.00    +0.178 C 
BRANCH  27  28
ATOM     28  O   UNL     1     -40.095  21.028   2.205  0.00  0.00    -0.379 OA
ATOM     29  H   UNL     1     -40.128  21.567   3.012  0.00  0.00    +0.211 HD
ENDBRANCH  27  28
ENDBRANCH  24  27
ENDBRANCH  23  24
ENDBRANCH  21  23
ENDBRANCH  19  21
ENDBRANCH   3  19
TORSDOF 9
ENDMDL
MODEL 8
REMARK VINA RESULT:      -5.6      2.572      6.863
REMARK  Name = 5487319
REMARK  9 active torsions:
REMARK  status: ('A' for Active; 'I' for Inactive)
REMARK    1  A    between atoms: C_3  and  C_19
REMARK    2  A    between atoms: C_11  and  C_16
REMARK    3  A    between atoms: C_16  and  O_17
REMARK    4  A    between atoms: C_19  and  O_21
REMARK    5  A    between atoms: O_21  and  C_23
REMARK    6  A    between atoms: C_23  and  C_24
REMARK    7  A    between atoms: C_24  and  O_25
REMARK    8  A    between atoms: C_24  and  C_27
REMARK    9  A    between atoms: C_27  and  O_28
REMARK                            x       y       z     vdW  Elec       q    Type
REMARK                         _______ _______ _______ _____ _____    ______ ____
ROOT
ATOM      1  N   UNL     1     -34.222  25.490   2.603  0.00  0.00    -0.401 NA
ATOM      2  N   UNL     1     -33.553  26.050   5.216  0.00  0.00    -0.401 NA
ATOM      3  C   UNL     1     -35.359  23.529   3.311  0.00  0.00    +0.049 C 
ATOM      4  C   UNL     1     -34.612  24.671   3.593  0.00  0.00    +0.160 C 
ATOM      5  C   UNL     1     -34.272  24.955   4.920  0.00  0.00    +0.160 C 
ATOM      6  C   UNL     1     -35.772  22.666   4.325  0.00  0.00    +0.002 C 
ATOM      7  C   UNL     1     -33.163  26.868   4.227  0.00  0.00    +0.149 C 
ATOM      8  C   UNL     1     -33.503  26.585   2.900  0.00  0.00    +0.139 C 
ATOM      9  C   UNL     1     -34.689  24.089   5.929  0.00  0.00    +0.035 C 
ATOM     10  C   UNL     1     -35.435  22.948   5.641  0.00  0.00    +0.003 C 
ATOM     11  C   UNL     1     -32.416  28.011   4.508  0.00  0.00    +0.175 C 
ATOM     12  C   UNL     1     -33.086  27.451   1.891  0.00  0.00    +0.087 C 
ATOM     13  C   UNL     1     -32.002  28.873   3.495  0.00  0.00    -0.012 C 
ATOM     14  C   UNL     1     -32.340  28.592   2.178  0.00  0.00    -0.022 C 
ENDROOT
BRANCH  11  16
ATOM     15  O   UNL     1     -32.246  29.421   6.433  0.00  0.00    -0.249 OA
ATOM     16  C   UNL     1     -32.045  28.337   5.880  0.00  0.00    +0.324 C 
BRANCH  16  17
ATOM     17  O   UNL     1     -31.437  27.298   6.511  0.00  0.00    -0.480 OA
ATOM     18  H   UNL     1     -31.000  27.436   7.329  0.00  0.00    +0.295 HD
ENDBRANCH  16  17
ENDBRANCH  11  16
BRANCH   3  19
ATOM     19  C   UNL     1     -35.736  23.199   1.902  0.00  0.00    +0.194 C 
ATOM     20  C   UNL     1     -35.300  21.792   1.491  0.00  0.00    +0.052 C 
BRANCH  19  21
ATOM     21  O   UNL     1     -37.155  23.307   1.742  0.00  0.00    -0.446 OA
BRANCH  21  23
ATOM     22  O   UNL     1     -37.355  24.329  -0.314  0.00  0.00    -0.247 OA
ATOM     23  C   UNL     1     -37.580  24.283   0.889  0.00  0.00    +0.347 C 
BRANCH  23  24
ATOM     24  C   UNL     1     -38.405  25.306   1.648  0.00  0.00    +0.243 C 
BRANCH  24  25
ATOM     25  O   UNL     1     -37.504  26.245   2.220  0.00  0.00    -0.341 OA
ATOM     26  C   UNL     1     -37.230  27.316   1.328  0.00  0.00    +0.175 C 
ENDBRANCH  24  25
BRANCH  24  27
ATOM     27  C   UNL     1     -39.194  24.664   2.780  0.00  0.00    +0.178 C 
BRANCH  27  28
ATOM     28  O   UNL     1     -38.523  24.867   4.015  0.00  0.00    -0.379 OA
ATOM     29  H   UNL     1     -38.918  25.624   4.476  0.00  0.00    +0.211 HD
ENDBRANCH  27  28
ENDBRANCH  24  27
ENDBRANCH  23  24
ENDBRANCH  21  23
ENDBRANCH  19  21
ENDBRANCH   3  19
TORSDOF 9
ENDMDL
MODEL 9
REMARK VINA RESULT:      -5.4      2.714      6.347
REMARK  Name = 5487319
REMARK  9 active torsions:
REMARK  status: ('A' for Active; 'I' for Inactive)
REMARK    1  A    between atoms: C_3  and  C_19
REMARK    2  A    between atoms: C_11  and  C_16
REMARK    3  A    between atoms: C_16  and  O_17
REMARK    4  A    between atoms: C_19  and  O_21
REMARK    5  A    between atoms: O_21  and  C_23
REMARK    6  A    between atoms: C_23  and  C_24
REMARK    7  A    between atoms: C_24  and  O_25
REMARK    8  A    between atoms: C_24  and  C_27
REMARK    9  A    between atoms: C_27  and  O_28
REMARK                            x       y       z     vdW  Elec       q    Type
REMARK                         _______ _______ _______ _____ _____    ______ ____
ROOT
ATOM      1  N   UNL     1     -36.029  25.731   1.972  0.00  0.00    -0.401 NA
ATOM      2  N   UNL     1     -34.926  27.596   3.673  0.00  0.00    -0.401 NA
ATOM      3  C   UNL     1     -35.699  24.041   3.608  0.00  0.00    +0.049 C 
ATOM      4  C   UNL     1     -35.596  25.366   3.190  0.00  0.00    +0.160 C 
ATOM      5  C   UNL     1     -35.036  26.313   4.053  0.00  0.00    +0.160 C 
ATOM      6  C   UNL     1     -35.255  23.643   4.868  0.00  0.00    +0.002 C 
ATOM      7  C   UNL     1     -35.358  27.961   2.456  0.00  0.00    +0.149 C 
ATOM      8  C   UNL     1     -35.919  27.014   1.592  0.00  0.00    +0.139 C 
ATOM      9  C   UNL     1     -34.594  25.909   5.311  0.00  0.00    +0.035 C 
ATOM     10  C   UNL     1     -34.700  24.582   5.724  0.00  0.00    +0.003 C 
ATOM     11  C   UNL     1     -35.255  29.286   2.037  0.00  0.00    +0.175 C 
ATOM     12  C   UNL     1     -36.361  27.418   0.334  0.00  0.00    +0.087 C 
ATOM     13  C   UNL     1     -35.699  29.684   0.778  0.00  0.00    -0.012 C 
ATOM     14  C   UNL     1     -36.255  28.745  -0.079  0.00  0.00    -0.022 C 
ENDROOT
BRANCH  11  16
ATOM     15  O   UNL     1     -33.533  30.752   2.818  0.00  0.00    -0.249 OA
ATOM     16  C   UNL     1     -34.676  30.299   2.912  0.00  0.00    +0.324 C 
BRANCH  16  17
ATOM     17  O   UNL     1     -35.546  30.710   3.872  0.00  0.00    -0.480 OA
ATOM     18  H   UNL     1     -35.421  30.447   4.763  0.00  0.00    +0.295 HD
ENDBRANCH  16  17
ENDBRANCH  11  16
BRANCH   3  19
ATOM     19  C   UNL     1     -36.294  23.006   2.706  0.00  0.00    +0.194 C 
ATOM     20  C   UNL     1     -35.409  21.765   2.573  0.00  0.00    +0.052 C 
BRANCH  19  21
ATOM     21  O   UNL     1     -37.575  22.608   3.203  0.00  0.00    -0.446 OA
BRANCH  21  23
ATOM     22  O   UNL     1     -39.413  23.998   3.148  0.00  0.00    -0.247 OA
ATOM     23  C   UNL     1     -38.650  23.206   2.611  0.00  0.00    +0.347 C 
BRANCH  23  24
ATOM     24  C   UNL     1     -38.749  22.764   1.162  0.00  0.00    +0.243 C 
BRANCH  24  25
ATOM     25  O   UNL     1     -39.104  23.904   0.390  0.00  0.00    -0.341 OA
ATOM     26  C   UNL     1     -38.120  24.196  -0.592  0.00  0.00    +0.175 C 
ENDBRANCH  24  25
BRANCH  24  27
ATOM     27  C   UNL     1     -39.830  21.711   0.968  0.00  0.00    +0.178 C 
BRANCH  27  28
ATOM     28  O   UNL     1     -40.116  21.076   2.206  0.00  0.00    -0.379 OA
ATOM     29  H   UNL     1     -39.646  20.228   2.251  0.00  0.00    +0.211 HD
ENDBRANCH  27  28
ENDBRANCH  24  27
ENDBRANCH  23  24
ENDBRANCH  21  23
ENDBRANCH  19  21
ENDBRANCH   3  19
TORSDOF 9
ENDMDL
