MODEL 1
REMARK VINA RESULT:      -7.3      0.000      0.000
REMARK  Name = 195690
REMARK  7 active torsions:
REMARK  status: ('A' for Active; 'I' for Inactive)
REMARK    1  A    between atoms: C_10  and  O_19
REMARK    2  A    between atoms: O_19  and  C_21
REMARK    3  A    between atoms: C_22  and  O_26
REMARK    4  A    between atoms: C_23  and  O_28
REMARK    5  A    between atoms: C_24  and  O_30
REMARK    6  A    between atoms: C_25  and  C_33
REMARK    7  A    between atoms: C_33  and  O_34
REMARK                            x       y       z     vdW  Elec       q    Type
REMARK                         _______ _______ _______ _____ _____    ______ ____
ROOT
ATOM      1  O   UNL     1     -37.196  19.913  -0.506  0.00  0.00    -0.356 OA
ATOM      2  O   UNL     1     -29.011  19.190  -1.065  0.00  0.00    -0.473 OA
ATOM      3  C   UNL     1     -35.308  19.433   0.874  0.00  0.00    +0.055 C 
ATOM      4  C   UNL     1     -33.768  19.473   1.008  0.00  0.00    +0.005 C 
ATOM      5  C   UNL     1     -33.049  20.299  -0.095  0.00  0.00    +0.004 C 
ATOM      6  C   UNL     1     -35.875  19.319  -0.553  0.00  0.00    +0.095 C 
ATOM      7  C   UNL     1     -33.561  19.897  -1.489  0.00  0.00    +0.003 C 
ATOM      8  C   UNL     1     -31.501  20.248   0.088  0.00  0.00    +0.025 C 
ATOM      9  C   UNL     1     -35.070  20.099  -1.599  0.00  0.00    +0.027 C 
ATOM     10  C   UNL     1     -36.053  20.643   1.431  0.00  0.00    +0.149 C 
ATOM     11  C   UNL     1     -33.207  18.035   1.069  0.00  0.00    +0.005 C 
ATOM     12  C   UNL     1     -37.417  20.487   0.790  0.00  0.00    +0.171 C 
ATOM     13  C   UNL     1     -31.704  18.011   1.317  0.00  0.00    +0.025 C 
ATOM     14  C   UNL     1     -30.960  18.859   0.329  0.00  0.00    -0.007 C 
ATOM     15  C   UNL     1     -36.075  17.868  -0.999  0.00  0.00    +0.030 C 
ATOM     16  C   UNL     1     -30.724  20.934  -1.052  0.00  0.00    +0.051 C 
ATOM     17  C   UNL     1     -29.241  20.601  -0.952  0.00  0.00    +0.206 C 
ATOM     18  C   UNL     1     -29.835  18.436  -0.268  0.00  0.00    +0.164 C 
ENDROOT
BRANCH  10  19
ATOM     19  O   UNL     1     -35.475  21.872   1.027  0.00  0.00    -0.328 OA
BRANCH  19  21
ATOM     20  O   UNL     1     -35.471  22.027   3.355  0.00  0.00    -0.317 OA
ATOM     21  C   UNL     1     -35.240  22.735   2.140  0.00  0.00    +0.266 C 
ATOM     22  C   UNL     1     -36.197  23.922   2.026  0.00  0.00    +0.196 C 
ATOM     23  C   UNL     1     -36.105  24.828   3.253  0.00  0.00    +0.172 C 
ATOM     24  C   UNL     1     -36.184  24.020   4.549  0.00  0.00    +0.178 C 
ATOM     25  C   UNL     1     -35.232  22.832   4.504  0.00  0.00    +0.245 C 
BRANCH  22  26
ATOM     26  O   UNL     1     -35.849  24.668   0.860  0.00  0.00    -0.378 OA
ATOM     27  H   UNL     1     -36.438  24.421   0.129  0.00  0.00    +0.211 HD
ENDBRANCH  22  26
BRANCH  23  28
ATOM     28  O   UNL     1     -37.190  25.756   3.244  0.00  0.00    -0.379 OA
ATOM     29  H   UNL     1     -38.029  25.272   3.200  0.00  0.00    +0.211 HD
ENDBRANCH  23  28
BRANCH  24  30
ATOM     30  O   UNL     1     -35.818  24.859   5.644  0.00  0.00    -0.379 OA
ATOM     31  H   UNL     1     -36.475  24.771   6.353  0.00  0.00    +0.211 HD
ENDBRANCH  24  30
BRANCH  25  33
ATOM     32  O   UNL     1     -36.007  22.207   6.702  0.00  0.00    -0.247 OA
ATOM     33  C   UNL     1     -35.489  21.895   5.640  0.00  0.00    +0.344 C 
BRANCH  33  34
ATOM     34  O   UNL     1     -35.065  20.645   5.335  0.00  0.00    -0.478 OA
ATOM     35  H   UNL     1     -34.385  20.522   4.703  0.00  0.00    +0.295 HD
ENDBRANCH  33  34
ENDBRANCH  25  33
ENDBRANCH  19  21
ENDBRANCH  10  19
TORSDOF 7
ENDMDL
MODEL 2
REMARK VINA RESULT:      -6.5      1.306      2.812
REMARK  Name = 195690
REMARK  7 active torsions:
REMARK  status: ('A' for Active; 'I' for Inactive)
REMARK    1  A    between atoms: C_10  and  O_19
REMARK    2  A    between atoms: O_19  and  C_21
REMARK    3  A    between atoms: C_22  and  O_26
REMARK    4  A    between atoms: C_23  and  O_28
REMARK    5  A    between atoms: C_24  and  O_30
REMARK    6  A    between atoms: C_25  and  C_33
REMARK    7  A    between atoms: C_33  and  O_34
REMARK                            x       y       z     vdW  Elec       q    Type
REMARK                         _______ _______ _______ _____ _____    ______ ____
ROOT
ATOM      1  O   UNL     1     -37.958  20.720   0.323  0.00  0.00    -0.356 OA
ATOM      2  O   UNL     1     -29.959  19.888  -1.456  0.00  0.00    -0.473 OA
ATOM      3  C   UNL     1     -35.944  19.898   1.309  0.00  0.00    +0.055 C 
ATOM      4  C   UNL     1     -34.400  19.861   1.243  0.00  0.00    +0.005 C 
ATOM      5  C   UNL     1     -33.776  20.883   0.252  0.00  0.00    +0.004 C 
ATOM      6  C   UNL     1     -36.689  20.110  -0.021  0.00  0.00    +0.095 C 
ATOM      7  C   UNL     1     -34.479  20.806  -1.115  0.00  0.00    +0.003 C 
ATOM      8  C   UNL     1     -32.223  20.747   0.214  0.00  0.00    +0.025 C 
ATOM      9  C   UNL     1     -35.975  21.072  -0.979  0.00  0.00    +0.027 C 
ATOM     10  C   UNL     1     -36.545  20.981   2.201  0.00  0.00    +0.149 C 
ATOM     11  C   UNL     1     -33.920  18.427   0.927  0.00  0.00    +0.005 C 
ATOM     12  C   UNL     1     -37.983  21.009   1.729  0.00  0.00    +0.171 C 
ATOM     13  C   UNL     1     -32.402  18.305   0.963  0.00  0.00    +0.025 C 
ATOM     14  C   UNL     1     -31.737  19.324   0.084  0.00  0.00    -0.007 C 
ATOM     15  C   UNL     1     -37.026  18.796  -0.731  0.00  0.00    +0.030 C 
ATOM     16  C   UNL     1     -31.554  21.639  -0.851  0.00  0.00    +0.051 C 
ATOM     17  C   UNL     1     -30.092  21.248  -1.021  0.00  0.00    +0.206 C 
ATOM     18  C   UNL     1     -30.721  19.005  -0.732  0.00  0.00    +0.164 C 
ENDROOT
BRANCH  10  19
ATOM     19  O   UNL     1     -35.950  22.250   1.990  0.00  0.00    -0.328 OA
BRANCH  19  21
ATOM     20  O   UNL     1     -36.615  24.465   2.309  0.00  0.00    -0.317 OA
ATOM     21  C   UNL     1     -36.400  23.209   2.948  0.00  0.00    +0.266 C 
ATOM     22  C   UNL     1     -35.323  23.338   4.026  0.00  0.00    +0.196 C 
ATOM     23  C   UNL     1     -35.667  24.447   5.021  0.00  0.00    +0.172 C 
ATOM     24  C   UNL     1     -36.060  25.738   4.303  0.00  0.00    +0.178 C 
ATOM     25  C   UNL     1     -37.085  25.458   3.212  0.00  0.00    +0.245 C 
BRANCH  22  26
ATOM     26  O   UNL     1     -35.231  22.093   4.719  0.00  0.00    -0.378 OA
ATOM     27  H   UNL     1     -36.098  21.656   4.716  0.00  0.00    +0.211 HD
ENDBRANCH  22  26
BRANCH  23  28
ATOM     28  O   UNL     1     -34.528  24.724   5.838  0.00  0.00    -0.379 OA
ATOM     29  H   UNL     1     -34.150  25.580   5.585  0.00  0.00    +0.211 HD
ENDBRANCH  23  28
BRANCH  24  30
ATOM     30  O   UNL     1     -36.632  26.642   5.248  0.00  0.00    -0.379 OA
ATOM     31  H   UNL     1     -36.483  27.554   4.954  0.00  0.00    +0.211 HD
ENDBRANCH  24  30
BRANCH  25  33
ATOM     32  O   UNL     1     -38.189  26.799   1.536  0.00  0.00    -0.247 OA
ATOM     33  C   UNL     1     -37.277  26.655   2.337  0.00  0.00    +0.344 C 
BRANCH  33  34
ATOM     34  O   UNL     1     -36.295  27.565   2.548  0.00  0.00    -0.478 OA
ATOM     35  H   UNL     1     -35.924  27.663   3.403  0.00  0.00    +0.295 HD
ENDBRANCH  33  34
ENDBRANCH  25  33
ENDBRANCH  19  21
ENDBRANCH  10  19
TORSDOF 7
ENDMDL
MODEL 3
REMARK VINA RESULT:      -6.3      4.724      8.885
REMARK  Name = 195690
REMARK  7 active torsions:
REMARK  status: ('A' for Active; 'I' for Inactive)
REMARK    1  A    between atoms: C_10  and  O_19
REMARK    2  A    between atoms: O_19  and  C_21
REMARK    3  A    between atoms: C_22  and  O_26
REMARK    4  A    between atoms: C_23  and  O_28
REMARK    5  A    between atoms: C_24  and  O_30
REMARK    6  A    between atoms: C_25  and  C_33
REMARK    7  A    between atoms: C_33  and  O_34
REMARK                            x       y       z     vdW  Elec       q    Type
REMARK                         _______ _______ _______ _____ _____    ______ ____
ROOT
ATOM      1  O   UNL     1     -39.385  22.836  -0.728  0.00  0.00    -0.356 OA
ATOM      2  O   UNL     1     -44.286  28.563   2.590  0.00  0.00    -0.473 OA
ATOM      3  C   UNL     1     -39.419  25.185  -0.303  0.00  0.00    +0.055 C 
ATOM      4  C   UNL     1     -40.094  26.345   0.465  0.00  0.00    +0.005 C 
ATOM      5  C   UNL     1     -41.075  25.889   1.582  0.00  0.00    +0.004 C 
ATOM      6  C   UNL     1     -40.295  23.958  -0.613  0.00  0.00    +0.095 C 
ATOM      7  C   UNL     1     -42.046  24.824   1.044  0.00  0.00    +0.003 C 
ATOM      8  C   UNL     1     -41.745  27.118   2.272  0.00  0.00    +0.025 C 
ATOM      9  C   UNL     1     -41.290  23.615   0.503  0.00  0.00    +0.027 C 
ATOM     10  C   UNL     1     -38.202  24.561   0.375  0.00  0.00    +0.149 C 
ATOM     11  C   UNL     1     -40.799  27.295  -0.529  0.00  0.00    +0.005 C 
ATOM     12  C   UNL     1     -38.057  23.260  -0.387  0.00  0.00    +0.171 C 
ATOM     13  C   UNL     1     -41.385  28.521   0.161  0.00  0.00    +0.025 C 
ATOM     14  C   UNL     1     -42.280  28.145   1.304  0.00  0.00    -0.007 C 
ATOM     15  C   UNL     1     -41.013  24.065  -1.961  0.00  0.00    +0.030 C 
ATOM     16  C   UNL     1     -42.830  26.731   3.296  0.00  0.00    +0.051 C 
ATOM     17  C   UNL     1     -43.623  27.963   3.711  0.00  0.00    +0.206 C 
ATOM     18  C   UNL     1     -43.471  28.733   1.499  0.00  0.00    +0.164 C 
ENDROOT
BRANCH  10  19
ATOM     19  O   UNL     1     -38.426  24.286   1.748  0.00  0.00    -0.328 OA
BRANCH  19  21
ATOM     20  O   UNL     1     -36.965  23.246   3.242  0.00  0.00    -0.317 OA
ATOM     21  C   UNL     1     -37.234  24.445   2.518  0.00  0.00    +0.266 C 
ATOM     22  C   UNL     1     -37.448  25.612   3.482  0.00  0.00    +0.196 C 
ATOM     23  C   UNL     1     -36.266  25.763   4.439  0.00  0.00    +0.172 C 
ATOM     24  C   UNL     1     -35.889  24.424   5.074  0.00  0.00    +0.178 C 
ATOM     25  C   UNL     1     -35.775  23.336   4.014  0.00  0.00    +0.245 C 
BRANCH  22  26
ATOM     26  O   UNL     1     -37.590  26.807   2.714  0.00  0.00    -0.378 OA
ATOM     27  H   UNL     1     -37.886  26.582   1.817  0.00  0.00    +0.211 HD
ENDBRANCH  22  26
BRANCH  23  28
ATOM     28  O   UNL     1     -36.614  26.667   5.488  0.00  0.00    -0.379 OA
ATOM     29  H   UNL     1     -37.429  26.366   5.918  0.00  0.00    +0.211 HD
ENDBRANCH  23  28
BRANCH  24  30
ATOM     30  O   UNL     1     -34.629  24.558   5.732  0.00  0.00    -0.379 OA
ATOM     31  H   UNL     1     -34.743  24.409   6.683  0.00  0.00    +0.211 HD
ENDBRANCH  24  30
BRANCH  25  33
ATOM     32  O   UNL     1     -35.295  20.972   4.070  0.00  0.00    -0.247 OA
ATOM     33  C   UNL     1     -35.669  21.985   4.643  0.00  0.00    +0.344 C 
BRANCH  33  34
ATOM     34  O   UNL     1     -36.050  22.030   5.943  0.00  0.00    -0.478 OA
ATOM     35  H   UNL     1     -35.475  21.713   6.610  0.00  0.00    +0.295 HD
ENDBRANCH  33  34
ENDBRANCH  25  33
ENDBRANCH  19  21
ENDBRANCH  10  19
TORSDOF 7
ENDMDL
MODEL 4
REMARK VINA RESULT:      -6.3      5.647      9.039
REMARK  Name = 195690
REMARK  7 active torsions:
REMARK  status: ('A' for Active; 'I' for Inactive)
REMARK    1  A    between atoms: C_10  and  O_19
REMARK    2  A    between atoms: O_19  and  C_21
REMARK    3  A    between atoms: C_22  and  O_26
REMARK    4  A    between atoms: C_23  and  O_28
REMARK    5  A    between atoms: C_24  and  O_30
REMARK    6  A    between atoms: C_25  and  C_33
REMARK    7  A    between atoms: C_33  and  O_34
REMARK                            x       y       z     vdW  Elec       q    Type
REMARK                         _______ _______ _______ _____ _____    ______ ____
ROOT
ATOM      1  O   UNL     1     -35.716  30.473   1.845  0.00  0.00    -0.356 OA
ATOM      2  O   UNL     1     -28.645  30.111   6.052  0.00  0.00    -0.473 OA
ATOM      3  C   UNL     1     -33.585  29.399   1.746  0.00  0.00    +0.055 C 
ATOM      4  C   UNL     1     -32.289  29.037   2.507  0.00  0.00    +0.005 C 
ATOM      5  C   UNL     1     -32.353  29.292   4.039  0.00  0.00    +0.004 C 
ATOM      6  C   UNL     1     -34.325  30.669   2.203  0.00  0.00    +0.095 C 
ATOM      7  C   UNL     1     -32.895  30.703   4.328  0.00  0.00    +0.003 C 
ATOM      8  C   UNL     1     -30.993  28.946   4.720  0.00  0.00    +0.025 C 
ATOM      9  C   UNL     1     -34.281  30.894   3.719  0.00  0.00    +0.027 C 
ATOM     10  C   UNL     1     -34.689  28.344   1.777  0.00  0.00    +0.149 C 
ATOM     11  C   UNL     1     -31.086  29.774   1.878  0.00  0.00    +0.005 C 
ATOM     12  C   UNL     1     -35.894  29.145   1.331  0.00  0.00    +0.171 C 
ATOM     13  C   UNL     1     -29.763  29.368   2.515  0.00  0.00    +0.025 C 
ATOM     14  C   UNL     1     -29.791  29.515   4.007  0.00  0.00    -0.007 C 
ATOM     15  C   UNL     1     -33.865  31.925   1.458  0.00  0.00    +0.030 C 
ATOM     16  C   UNL     1     -30.947  29.306   6.218  0.00  0.00    +0.051 C 
ATOM     17  C   UNL     1     -29.519  29.205   6.738  0.00  0.00    +0.206 C 
ATOM     18  C   UNL     1     -28.774  30.068   4.687  0.00  0.00    +0.164 C 
ENDROOT
BRANCH  10  19
ATOM     19  O   UNL     1     -34.913  27.830   3.078  0.00  0.00    -0.328 OA
BRANCH  19  21
ATOM     20  O   UNL     1     -36.688  26.320   3.212  0.00  0.00    -0.317 OA
ATOM     21  C   UNL     1     -35.278  26.450   3.044  0.00  0.00    +0.266 C 
ATOM     22  C   UNL     1     -34.540  25.738   4.178  0.00  0.00    +0.196 C 
ATOM     23  C   UNL     1     -34.980  24.279   4.296  0.00  0.00    +0.172 C 
ATOM     24  C   UNL     1     -36.505  24.156   4.302  0.00  0.00    +0.178 C 
ATOM     25  C   UNL     1     -37.116  24.965   3.166  0.00  0.00    +0.245 C 
BRANCH  22  26
ATOM     26  O   UNL     1     -33.140  25.789   3.902  0.00  0.00    -0.378 OA
ATOM     27  H   UNL     1     -32.646  25.815   4.737  0.00  0.00    +0.211 HD
ENDBRANCH  22  26
BRANCH  23  28
ATOM     28  O   UNL     1     -34.487  23.730   5.518  0.00  0.00    -0.379 OA
ATOM     29  H   UNL     1     -34.995  22.935   5.744  0.00  0.00    +0.211 HD
ENDBRANCH  23  28
BRANCH  24  30
ATOM     30  O   UNL     1     -36.862  22.785   4.134  0.00  0.00    -0.379 OA
ATOM     31  H   UNL     1     -37.003  22.600   3.193  0.00  0.00    +0.211 HD
ENDBRANCH  24  30
BRANCH  25  33
ATOM     32  O   UNL     1     -39.366  24.117   3.367  0.00  0.00    -0.247 OA
ATOM     33  C   UNL     1     -38.599  25.067   3.319  0.00  0.00    +0.344 C 
BRANCH  33  34
ATOM     34  O   UNL     1     -38.985  26.364   3.395  0.00  0.00    -0.478 OA
ATOM     35  H   UNL     1     -38.753  26.962   2.713  0.00  0.00    +0.295 HD
ENDBRANCH  33  34
ENDBRANCH  25  33
ENDBRANCH  19  21
ENDBRANCH  10  19
TORSDOF 7
ENDMDL
MODEL 5
REMARK VINA RESULT:      -6.3      1.127      1.437
REMARK  Name = 195690
REMARK  7 active torsions:
REMARK  status: ('A' for Active; 'I' for Inactive)
REMARK    1  A    between atoms: C_10  and  O_19
REMARK    2  A    between atoms: O_19  and  C_21
REMARK    3  A    between atoms: C_22  and  O_26
REMARK    4  A    between atoms: C_23  and  O_28
REMARK    5  A    between atoms: C_24  and  O_30
REMARK    6  A    between atoms: C_25  and  C_33
REMARK    7  A    between atoms: C_33  and  O_34
REMARK                            x       y       z     vdW  Elec       q    Type
REMARK                         _______ _______ _______ _____ _____    ______ ____
ROOT
ATOM      1  O   UNL     1     -37.412  20.167  -0.160  0.00  0.00    -0.356 OA
ATOM      2  O   UNL     1     -29.312  19.233  -1.328  0.00  0.00    -0.473 OA
ATOM      3  C   UNL     1     -35.426  19.726   1.090  0.00  0.00    +0.055 C 
ATOM      4  C   UNL     1     -33.880  19.740   1.099  0.00  0.00    +0.005 C 
ATOM      5  C   UNL     1     -33.239  20.485  -0.106  0.00  0.00    +0.004 C 
ATOM      6  C   UNL     1     -36.109  19.543  -0.277  0.00  0.00    +0.095 C 
ATOM      7  C   UNL     1     -33.869  20.014  -1.428  0.00  0.00    +0.003 C 
ATOM      8  C   UNL     1     -31.681  20.410  -0.044  0.00  0.00    +0.025 C 
ATOM      9  C   UNL     1     -35.378  20.243  -1.428  0.00  0.00    +0.027 C 
ATOM     10  C   UNL     1     -36.103  20.982   1.633  0.00  0.00    +0.149 C 
ATOM     11  C   UNL     1     -33.341  18.295   1.199  0.00  0.00    +0.005 C 
ATOM     12  C   UNL     1     -37.516  20.820   1.113  0.00  0.00    +0.171 C 
ATOM     13  C   UNL     1     -31.823  18.252   1.327  0.00  0.00    +0.025 C 
ATOM     14  C   UNL     1     -31.147  19.026   0.235  0.00  0.00    -0.007 C 
ATOM     15  C   UNL     1     -36.370  18.073  -0.619  0.00  0.00    +0.030 C 
ATOM     16  C   UNL     1     -30.988  21.012  -1.281  0.00  0.00    +0.051 C 
ATOM     17  C   UNL     1     -29.508  20.653  -1.281  0.00  0.00    +0.206 C 
ATOM     18  C   UNL     1     -30.082  18.544  -0.424  0.00  0.00    +0.164 C 
ENDROOT
BRANCH  10  19
ATOM     19  O   UNL     1     -35.537  22.173   1.112  0.00  0.00    -0.328 OA
BRANCH  19  21
ATOM     20  O   UNL     1     -35.515  22.948   3.313  0.00  0.00    -0.317 OA
ATOM     21  C   UNL     1     -34.774  22.869   2.097  0.00  0.00    +0.266 C 
ATOM     22  C   UNL     1     -34.479  24.270   1.562  0.00  0.00    +0.196 C 
ATOM     23  C   UNL     1     -33.780  25.130   2.614  0.00  0.00    +0.172 C 
ATOM     24  C   UNL     1     -34.503  25.060   3.961  0.00  0.00    +0.178 C 
ATOM     25  C   UNL     1     -34.795  23.615   4.342  0.00  0.00    +0.245 C 
BRANCH  22  26
ATOM     26  O   UNL     1     -33.635  24.144   0.417  0.00  0.00    -0.378 OA
ATOM     27  H   UNL     1     -32.887  23.563   0.629  0.00  0.00    +0.211 HD
ENDBRANCH  22  26
BRANCH  23  28
ATOM     28  O   UNL     1     -33.770  26.493   2.188  0.00  0.00    -0.379 OA
ATOM     29  H   UNL     1     -33.824  27.074   2.962  0.00  0.00    +0.211 HD
ENDBRANCH  23  28
BRANCH  24  30
ATOM     30  O   UNL     1     -33.673  25.641   4.966  0.00  0.00    -0.379 OA
ATOM     31  H   UNL     1     -34.218  26.171   5.569  0.00  0.00    +0.211 HD
ENDBRANCH  24  30
BRANCH  25  33
ATOM     32  O   UNL     1     -35.870  22.574   6.235  0.00  0.00    -0.247 OA
ATOM     33  C   UNL     1     -35.724  23.547   5.511  0.00  0.00    +0.344 C 
BRANCH  33  34
ATOM     34  O   UNL     1     -36.393  24.717   5.659  0.00  0.00    -0.478 OA
ATOM     35  H   UNL     1     -36.379  25.354   4.974  0.00  0.00    +0.295 HD
ENDBRANCH  33  34
ENDBRANCH  25  33
ENDBRANCH  19  21
ENDBRANCH  10  19
TORSDOF 7
ENDMDL
MODEL 6
REMARK VINA RESULT:      -6.1      4.094      7.074
REMARK  Name = 195690
REMARK  7 active torsions:
REMARK  status: ('A' for Active; 'I' for Inactive)
REMARK    1  A    between atoms: C_10  and  O_19
REMARK    2  A    between atoms: O_19  and  C_21
REMARK    3  A    between atoms: C_22  and  O_26
REMARK    4  A    between atoms: C_23  and  O_28
REMARK    5  A    between atoms: C_24  and  O_30
REMARK    6  A    between atoms: C_25  and  C_33
REMARK    7  A    between atoms: C_33  and  O_34
REMARK                            x       y       z     vdW  Elec       q    Type
REMARK                         _______ _______ _______ _____ _____    ______ ____
ROOT
ATOM      1  O   UNL     1     -37.046  21.260   1.535  0.00  0.00    -0.356 OA
ATOM      2  O   UNL     1     -32.760  27.697   4.368  0.00  0.00    -0.473 OA
ATOM      3  C   UNL     1     -37.052  22.795   3.364  0.00  0.00    +0.055 C 
ATOM      4  C   UNL     1     -36.514  24.132   3.926  0.00  0.00    +0.005 C 
ATOM      5  C   UNL     1     -35.769  25.011   2.883  0.00  0.00    +0.004 C 
ATOM      6  C   UNL     1     -36.155  22.057   2.355  0.00  0.00    +0.095 C 
ATOM      7  C   UNL     1     -34.732  24.174   2.114  0.00  0.00    +0.003 C 
ATOM      8  C   UNL     1     -35.220  26.314   3.542  0.00  0.00    +0.025 C 
ATOM      9  C   UNL     1     -35.394  22.993   1.409  0.00  0.00    +0.027 C 
ATOM     10  C   UNL     1     -38.386  22.876   2.625  0.00  0.00    +0.149 C 
ATOM     11  C   UNL     1     -35.619  23.864   5.156  0.00  0.00    +0.005 C 
ATOM     12  C   UNL     1     -38.407  21.557   1.881  0.00  0.00    +0.171 C 
ATOM     13  C   UNL     1     -35.152  25.151   5.822  0.00  0.00    +0.025 C 
ATOM     14  C   UNL     1     -34.495  26.080   4.845  0.00  0.00    -0.007 C 
ATOM     15  C   UNL     1     -35.195  21.070   3.024  0.00  0.00    +0.030 C 
ATOM     16  C   UNL     1     -34.354  27.165   2.593  0.00  0.00    +0.051 C 
ATOM     17  C   UNL     1     -33.631  28.254   3.375  0.00  0.00    +0.206 C 
ATOM     18  C   UNL     1     -33.352  26.723   5.132  0.00  0.00    +0.164 C 
ENDROOT
BRANCH  10  19
ATOM     19  O   UNL     1     -38.429  23.946   1.697  0.00  0.00    -0.328 OA
BRANCH  19  21
ATOM     20  O   UNL     1     -40.522  24.015   0.667  0.00  0.00    -0.317 OA
ATOM     21  C   UNL     1     -39.706  24.585   1.688  0.00  0.00    +0.266 C 
ATOM     22  C   UNL     1     -39.486  26.074   1.423  0.00  0.00    +0.196 C 
ATOM     23  C   UNL     1     -40.816  26.811   1.263  0.00  0.00    +0.172 C 
ATOM     24  C   UNL     1     -41.742  26.082   0.289  0.00  0.00    +0.178 C 
ATOM     25  C   UNL     1     -41.818  24.598   0.623  0.00  0.00    +0.245 C 
BRANCH  22  26
ATOM     26  O   UNL     1     -38.771  26.625   2.530  0.00  0.00    -0.378 OA
ATOM     27  H   UNL     1     -39.334  26.607   3.320  0.00  0.00    +0.211 HD
ENDBRANCH  22  26
BRANCH  23  28
ATOM     28  O   UNL     1     -40.577  28.122   0.750  0.00  0.00    -0.379 OA
ATOM     29  H   UNL     1     -41.261  28.344   0.100  0.00  0.00    +0.211 HD
ENDBRANCH  23  28
BRANCH  24  30
ATOM     30  O   UNL     1     -43.052  26.642   0.383  0.00  0.00    -0.379 OA
ATOM     31  H   UNL     1     -43.588  26.338  -0.365  0.00  0.00    +0.211 HD
ENDBRANCH  24  30
BRANCH  25  33
ATOM     32  O   UNL     1     -42.904  22.688  -0.375  0.00  0.00    -0.247 OA
ATOM     33  C   UNL     1     -42.501  23.838  -0.468  0.00  0.00    +0.344 C 
BRANCH  33  34
ATOM     34  O   UNL     1     -42.610  24.597  -1.585  0.00  0.00    -0.478 OA
ATOM     35  H   UNL     1     -42.446  24.219  -2.426  0.00  0.00    +0.295 HD
ENDBRANCH  33  34
ENDBRANCH  25  33
ENDBRANCH  19  21
ENDBRANCH  10  19
TORSDOF 7
ENDMDL
MODEL 7
REMARK VINA RESULT:      -6.1      2.473      7.064
REMARK  Name = 195690
REMARK  7 active torsions:
REMARK  status: ('A' for Active; 'I' for Inactive)
REMARK    1  A    between atoms: C_10  and  O_19
REMARK    2  A    between atoms: O_19  and  C_21
REMARK    3  A    between atoms: C_22  and  O_26
REMARK    4  A    between atoms: C_23  and  O_28
REMARK    5  A    between atoms: C_24  and  O_30
REMARK    6  A    between atoms: C_25  and  C_33
REMARK    7  A    between atoms: C_33  and  O_34
REMARK                            x       y       z     vdW  Elec       q    Type
REMARK                         _______ _______ _______ _____ _____    ______ ____
ROOT
ATOM      1  O   UNL     1     -38.221  20.750  -1.029  0.00  0.00    -0.356 OA
ATOM      2  O   UNL     1     -35.502  24.817   5.596  0.00  0.00    -0.473 OA
ATOM      3  C   UNL     1     -36.375  22.101  -0.347  0.00  0.00    +0.055 C 
ATOM      4  C   UNL     1     -35.606  22.729   0.839  0.00  0.00    +0.005 C 
ATOM      5  C   UNL     1     -36.033  22.192   2.234  0.00  0.00    +0.004 C 
ATOM      6  C   UNL     1     -37.877  21.840  -0.139  0.00  0.00    +0.095 C 
ATOM      7  C   UNL     1     -37.565  22.218   2.376  0.00  0.00    +0.003 C 
ATOM      8  C   UNL     1     -35.244  22.909   3.373  0.00  0.00    +0.025 C 
ATOM      9  C   UNL     1     -38.231  21.387   1.283  0.00  0.00    +0.027 C 
ATOM     10  C   UNL     1     -35.866  20.743  -0.822  0.00  0.00    +0.149 C 
ATOM     11  C   UNL     1     -35.721  24.269   0.786  0.00  0.00    +0.005 C 
ATOM     12  C   UNL     1     -37.031  20.251  -1.655  0.00  0.00    +0.171 C 
ATOM     13  C   UNL     1     -34.888  24.948   1.865  0.00  0.00    +0.025 C 
ATOM     14  C   UNL     1     -35.197  24.411   3.231  0.00  0.00    -0.007 C 
ATOM     15  C   UNL     1     -38.750  23.026  -0.559  0.00  0.00    +0.030 C 
ATOM     16  C   UNL     1     -35.717  22.521   4.787  0.00  0.00    +0.051 C 
ATOM     17  C   UNL     1     -35.107  23.457   5.822  0.00  0.00    +0.206 C 
ATOM     18  C   UNL     1     -35.364  25.218   4.291  0.00  0.00    +0.164 C 
ENDROOT
BRANCH  10  19
ATOM     19  O   UNL     1     -35.633  19.844   0.249  0.00  0.00    -0.328 OA
BRANCH  19  21
ATOM     20  O   UNL     1     -35.434  17.539  -0.056  0.00  0.00    -0.317 OA
ATOM     21  C   UNL     1     -34.751  18.788  -0.132  0.00  0.00    +0.266 C 
ATOM     22  C   UNL     1     -33.559  18.802   0.825  0.00  0.00    +0.196 C 
ATOM     23  C   UNL     1     -32.630  17.614   0.571  0.00  0.00    +0.172 C 
ATOM     24  C   UNL     1     -33.413  16.303   0.486  0.00  0.00    +0.178 C 
ATOM     25  C   UNL     1     -34.610  16.447  -0.445  0.00  0.00    +0.245 C 
BRANCH  22  26
ATOM     26  O   UNL     1     -32.837  20.017   0.625  0.00  0.00    -0.378 OA
ATOM     27  H   UNL     1     -33.021  20.360  -0.264  0.00  0.00    +0.211 HD
ENDBRANCH  22  26
BRANCH  23  28
ATOM     28  O   UNL     1     -31.694  17.502   1.643  0.00  0.00    -0.379 OA
ATOM     29  H   UNL     1     -32.106  17.034   2.385  0.00  0.00    +0.211 HD
ENDBRANCH  23  28
BRANCH  24  30
ATOM     30  O   UNL     1     -32.557  15.281  -0.021  0.00  0.00    -0.379 OA
ATOM     31  H   UNL     1     -32.144  14.808   0.718  0.00  0.00    +0.211 HD
ENDBRANCH  24  30
BRANCH  25  33
ATOM     32  O   UNL     1     -35.334  14.182  -0.856  0.00  0.00    -0.247 OA
ATOM     33  C   UNL     1     -35.522  15.269  -0.331  0.00  0.00    +0.344 C 
BRANCH  33  34
ATOM     34  O   UNL     1     -36.599  15.570   0.436  0.00  0.00    -0.478 OA
ATOM     35  H   UNL     1     -37.395  15.857   0.034  0.00  0.00    +0.295 HD
ENDBRANCH  33  34
ENDBRANCH  25  33
ENDBRANCH  19  21
ENDBRANCH  10  19
TORSDOF 7
ENDMDL
MODEL 8
REMARK VINA RESULT:      -6.1      1.714      2.958
REMARK  Name = 195690
REMARK  7 active torsions:
REMARK  status: ('A' for Active; 'I' for Inactive)
REMARK    1  A    between atoms: C_10  and  O_19
REMARK    2  A    between atoms: O_19  and  C_21
REMARK    3  A    between atoms: C_22  and  O_26
REMARK    4  A    between atoms: C_23  and  O_28
REMARK    5  A    between atoms: C_24  and  O_30
REMARK    6  A    between atoms: C_25  and  C_33
REMARK    7  A    between atoms: C_33  and  O_34
REMARK                            x       y       z     vdW  Elec       q    Type
REMARK                         _______ _______ _______ _____ _____    ______ ____
ROOT
ATOM      1  O   UNL     1     -35.746  21.760  -2.042  0.00  0.00    -0.356 OA
ATOM      2  O   UNL     1     -30.037  16.216   0.077  0.00  0.00    -0.473 OA
ATOM      3  C   UNL     1     -35.529  19.769  -0.741  0.00  0.00    +0.055 C 
ATOM      4  C   UNL     1     -34.559  18.771  -0.068  0.00  0.00    +0.005 C 
ATOM      5  C   UNL     1     -33.081  19.249  -0.016  0.00  0.00    +0.004 C 
ATOM      6  C   UNL     1     -35.003  20.518  -1.979  0.00  0.00    +0.095 C 
ATOM      7  C   UNL     1     -32.628  19.750  -1.398  0.00  0.00    +0.003 C 
ATOM      8  C   UNL     1     -32.166  18.165   0.635  0.00  0.00    +0.025 C 
ATOM      9  C   UNL     1     -33.518  20.889  -1.887  0.00  0.00    +0.027 C 
ATOM     10  C   UNL     1     -36.030  20.907   0.145  0.00  0.00    +0.149 C 
ATOM     11  C   UNL     1     -34.665  17.390  -0.753  0.00  0.00    +0.005 C 
ATOM     12  C   UNL     1     -36.579  21.878  -0.879  0.00  0.00    +0.171 C 
ATOM     13  C   UNL     1     -33.816  16.333  -0.058  0.00  0.00    +0.025 C 
ATOM     14  C   UNL     1     -32.390  16.773   0.095  0.00  0.00    -0.007 C 
ATOM     15  C   UNL     1     -35.293  19.779  -3.289  0.00  0.00    +0.030 C 
ATOM     16  C   UNL     1     -30.668  18.520   0.592  0.00  0.00    +0.051 C 
ATOM     17  C   UNL     1     -29.829  17.310   0.981  0.00  0.00    +0.206 C 
ATOM     18  C   UNL     1     -31.360  15.955  -0.172  0.00  0.00    +0.164 C 
ENDROOT
BRANCH  10  19
ATOM     19  O   UNL     1     -34.986  21.527   0.876  0.00  0.00    -0.328 OA
BRANCH  19  21
ATOM     20  O   UNL     1     -34.715  23.318   2.347  0.00  0.00    -0.317 OA
ATOM     21  C   UNL     1     -35.473  22.143   2.069  0.00  0.00    +0.266 C 
ATOM     22  C   UNL     1     -35.331  21.136   3.211  0.00  0.00    +0.196 C 
ATOM     23  C   UNL     1     -35.705  21.766   4.553  0.00  0.00    +0.172 C 
ATOM     24  C   UNL     1     -35.007  23.113   4.751  0.00  0.00    +0.178 C 
ATOM     25  C   UNL     1     -35.168  23.990   3.516  0.00  0.00    +0.245 C 
BRANCH  22  26
ATOM     26  O   UNL     1     -36.200  20.035   2.948  0.00  0.00    -0.378 OA
ATOM     27  H   UNL     1     -35.716  19.203   3.076  0.00  0.00    +0.211 HD
ENDBRANCH  22  26
BRANCH  23  28
ATOM     28  O   UNL     1     -35.302  20.900   5.615  0.00  0.00    -0.379 OA
ATOM     29  H   UNL     1     -34.583  20.326   5.309  0.00  0.00    +0.211 HD
ENDBRANCH  23  28
BRANCH  24  30
ATOM     30  O   UNL     1     -35.592  23.781   5.868  0.00  0.00    -0.379 OA
ATOM     31  H   UNL     1     -35.974  23.126   6.473  0.00  0.00    +0.211 HD
ENDBRANCH  24  30
BRANCH  25  33
ATOM     32  O   UNL     1     -34.306  26.132   2.816  0.00  0.00    -0.247 OA
ATOM     33  C   UNL     1     -34.278  25.188   3.591  0.00  0.00    +0.344 C 
BRANCH  33  34
ATOM     34  O   UNL     1     -33.425  25.086   4.640  0.00  0.00    -0.478 OA
ATOM     35  H   UNL     1     -32.648  25.609   4.663  0.00  0.00    +0.295 HD
ENDBRANCH  33  34
ENDBRANCH  25  33
ENDBRANCH  19  21
ENDBRANCH  10  19
TORSDOF 7
ENDMDL
MODEL 9
REMARK VINA RESULT:      -6.0      1.547      2.036
REMARK  Name = 195690
REMARK  7 active torsions:
REMARK  status: ('A' for Active; 'I' for Inactive)
REMARK    1  A    between atoms: C_10  and  O_19
REMARK    2  A    between atoms: O_19  and  C_21
REMARK    3  A    between atoms: C_22  and  O_26
REMARK    4  A    between atoms: C_23  and  O_28
REMARK    5  A    between atoms: C_24  and  O_30
REMARK    6  A    between atoms: C_25  and  C_33
REMARK    7  A    between atoms: C_33  and  O_34
REMARK                            x       y       z     vdW  Elec       q    Type
REMARK                         _______ _______ _______ _____ _____    ______ ____
ROOT
ATOM      1  O   UNL     1     -36.779  23.435  -1.360  0.00  0.00    -0.356 OA
ATOM      2  O   UNL     1     -30.567  18.071  -0.677  0.00  0.00    -0.473 OA
ATOM      3  C   UNL     1     -35.996  21.727   0.113  0.00  0.00    +0.055 C 
ATOM      4  C   UNL     1     -34.810  20.821   0.520  0.00  0.00    +0.005 C 
ATOM      5  C   UNL     1     -33.454  21.208  -0.134  0.00  0.00    +0.004 C 
ATOM      6  C   UNL     1     -36.044  22.186  -1.355  0.00  0.00    +0.095 C 
ATOM      7  C   UNL     1     -33.623  21.402  -1.651  0.00  0.00    +0.003 C 
ATOM      8  C   UNL     1     -32.326  20.218   0.292  0.00  0.00    +0.025 C 
ATOM      9  C   UNL     1     -34.663  22.476  -1.955  0.00  0.00    +0.027 C 
ATOM     10  C   UNL     1     -36.116  23.044   0.875  0.00  0.00    +0.149 C 
ATOM     11  C   UNL     1     -35.155  19.343   0.233  0.00  0.00    +0.005 C 
ATOM     12  C   UNL     1     -37.062  23.828  -0.010  0.00  0.00    +0.171 C 
ATOM     13  C   UNL     1     -34.069  18.392   0.720  0.00  0.00    +0.025 C 
ATOM     14  C   UNL     1     -32.718  18.765   0.186  0.00  0.00    -0.007 C 
ATOM     15  C   UNL     1     -36.830  21.225  -2.253  0.00  0.00    +0.030 C 
ATOM     16  C   UNL     1     -30.987  20.466  -0.429  0.00  0.00    +0.051 C 
ATOM     17  C   UNL     1     -30.033  19.305  -0.179  0.00  0.00    +0.206 C 
ATOM     18  C   UNL     1     -31.869  17.848  -0.306  0.00  0.00    +0.164 C 
ENDROOT
BRANCH  10  19
ATOM     19  O   UNL     1     -34.879  23.729   0.975  0.00  0.00    -0.328 OA
BRANCH  19  21
ATOM     20  O   UNL     1     -35.130  23.125   3.215  0.00  0.00    -0.317 OA
ATOM     21  C   UNL     1     -34.587  24.096   2.324  0.00  0.00    +0.266 C 
ATOM     22  C   UNL     1     -35.212  25.467   2.585  0.00  0.00    +0.196 C 
ATOM     23  C   UNL     1     -35.061  25.874   4.051  0.00  0.00    +0.172 C 
ATOM     24  C   UNL     1     -35.491  24.746   4.990  0.00  0.00    +0.178 C 
ATOM     25  C   UNL     1     -34.852  23.426   4.577  0.00  0.00    +0.245 C 
BRANCH  22  26
ATOM     26  O   UNL     1     -34.552  26.425   1.758  0.00  0.00    -0.378 OA
ATOM     27  H   UNL     1     -33.890  25.977   1.208  0.00  0.00    +0.211 HD
ENDBRANCH  22  26
BRANCH  23  28
ATOM     28  O   UNL     1     -35.884  27.010   4.318  0.00  0.00    -0.379 OA
ATOM     29  H   UNL     1     -35.477  27.802   3.934  0.00  0.00    +0.211 HD
ENDBRANCH  23  28
BRANCH  24  30
ATOM     30  O   UNL     1     -35.077  25.061   6.318  0.00  0.00    -0.379 OA
ATOM     31  H   UNL     1     -35.787  24.840   6.940  0.00  0.00    +0.211 HD
ENDBRANCH  24  30
BRANCH  25  33
ATOM     32  O   UNL     1     -35.874  22.326   6.466  0.00  0.00    -0.247 OA
ATOM     33  C   UNL     1     -35.465  22.280   5.315  0.00  0.00    +0.344 C 
BRANCH  33  34
ATOM     34  O   UNL     1     -35.504  21.174   4.534  0.00  0.00    -0.478 OA
ATOM     35  H   UNL     1     -36.296  20.679   4.462  0.00  0.00    +0.295 HD
ENDBRANCH  33  34
ENDBRANCH  25  33
ENDBRANCH  19  21
ENDBRANCH  10  19
TORSDOF 7
ENDMDL
