MODEL 1
REMARK VINA RESULT:      -6.9      0.000      0.000
REMARK  Name = 59001466
REMARK  5 active torsions:
REMARK  status: ('A' for Active; 'I' for Inactive)
REMARK    1  A    between atoms: N_3  and  C_34
REMARK    2  A    between atoms: C_7  and  C_19
REMARK    3  A    between atoms: C_11  and  C_27
REMARK    4  A    between atoms: C_15  and  C_20
REMARK    5  A    between atoms: C_20  and  N_21
REMARK                            x       y       z     vdW  Elec       q    Type
REMARK                         _______ _______ _______ _____ _____    ______ ____
ROOT
ATOM      1  S   UNL     1     -35.923  27.859   2.005  0.00  0.00    -0.053 S 
ATOM      2  O   UNL     1     -34.206  32.246   1.935  0.00  0.00    -0.270 OA
ATOM      3  N   UNL     1     -32.274  27.296   2.512  0.00  0.00    -0.191 N 
ATOM      4  N   UNL     1     -32.389  25.943   2.585  0.00  0.00    -0.175 NA
ATOM      5  N   UNL     1     -33.713  29.287   2.197  0.00  0.00    -0.367 NA
ATOM      6  N   UNL     1     -35.779  30.492   1.851  0.00  0.00    -0.251 N 
ATOM      7  C   UNL     1     -33.724  25.818   2.421  0.00  0.00    +0.148 C 
ATOM      8  C   UNL     1     -34.426  27.050   2.250  0.00  0.00    +0.170 C 
ATOM      9  C   UNL     1     -33.440  27.976   2.317  0.00  0.00    +0.197 C 
ATOM     10  C   UNL     1     -35.023  29.362   2.023  0.00  0.00    +0.215 C 
ATOM     11  C   UNL     1     -35.358  31.844   1.814  0.00  0.00    +0.252 C 
ATOM     12  H   UNL     1     -36.746  30.344   1.736  0.00  0.00    +0.158 HD
ENDROOT
BRANCH   7  19
ATOM     13  O   UNL     1     -34.573  23.971   1.329  0.00  0.00    -0.269 OA
ATOM     14  N   UNL     1     -34.752  23.977   3.651  0.00  0.00    -0.279 N 
ATOM     15  C   UNL     1     -35.386  22.664   3.779  0.00  0.00    +0.055 C 
ATOM     16  C   UNL     1     -35.259  22.342   5.270  0.00  0.00    +0.019 C 
ATOM     17  C   UNL     1     -35.316  23.715   5.932  0.00  0.00    +0.023 C 
ATOM     18  C   UNL     1     -34.540  24.592   4.961  0.00  0.00    +0.094 C 
ATOM     19  C   UNL     1     -34.385  24.504   2.420  0.00  0.00    +0.265 C 
BRANCH  15  20
ATOM     20  C   UNL     1     -36.845  22.696   3.323  0.00  0.00    -0.057 C 
BRANCH  20  21
ATOM     21  N   UNL     1     -37.177  21.502   2.561  0.00  0.00    +0.388 N 
ATOM     22  C   UNL     1     -37.869  21.812   1.311  0.00  0.00    -0.077 C 
ATOM     23  C   UNL     1     -35.989  20.747   2.161  0.00  0.00    -0.077 C 
ATOM     24  C   UNL     1     -37.761  20.511   0.529  0.00  0.00    -0.025 C 
ATOM     25  C   UNL     1     -36.527  19.809   1.090  0.00  0.00    -0.025 C 
ATOM     26  H   UNL     1     -37.768  20.963   3.193  0.00  0.00    -0.080 HD
ENDBRANCH  20  21
ENDBRANCH  15  20
ENDBRANCH   7  19
BRANCH  11  27
ATOM     27  C   UNL     1     -36.423  32.855   1.582  0.00  0.00    +0.054 C 
ATOM     28  C   UNL     1     -37.755  32.538   1.850  0.00  0.00    +0.004 C 
ATOM     29  C   UNL     1     -36.092  34.119   1.094  0.00  0.00    +0.004 C 
ATOM     30  C   UNL     1     -38.756  33.485   1.632  0.00  0.00    -0.004 C 
ATOM     31  C   UNL     1     -37.092  35.066   0.875  0.00  0.00    -0.004 C 
ATOM     32  C   UNL     1     -38.423  34.750   1.144  0.00  0.00    -0.022 C 
ATOM     33  C   UNL     1     -39.493  35.763   0.910  0.00  0.00    +0.031 C 
ENDBRANCH  11  27
BRANCH   3  34
ATOM     34  C   UNL     1     -30.978  27.920   2.638  0.00  0.00    +0.082 C 
ATOM     35  C   UNL     1     -30.725  29.046   1.610  0.00  0.00    +0.022 C 
ATOM     36  C   UNL     1     -30.837  28.545   4.042  0.00  0.00    +0.022 C 
ATOM     37  C   UNL     1     -29.871  26.863   2.438  0.00  0.00    +0.022 C 
ENDBRANCH   3  34
TORSDOF 5
ENDMDL
MODEL 2
REMARK VINA RESULT:      -6.9      5.062     10.466
REMARK  Name = 59001466
REMARK  5 active torsions:
REMARK  status: ('A' for Active; 'I' for Inactive)
REMARK    1  A    between atoms: N_3  and  C_34
REMARK    2  A    between atoms: C_7  and  C_19
REMARK    3  A    between atoms: C_11  and  C_27
REMARK    4  A    between atoms: C_15  and  C_20
REMARK    5  A    between atoms: C_20  and  N_21
REMARK                            x       y       z     vdW  Elec       q    Type
REMARK                         _______ _______ _______ _____ _____    ______ ____
ROOT
ATOM      1  S   UNL     1     -38.104  22.165   1.338  0.00  0.00    -0.053 S 
ATOM      2  O   UNL     1     -34.065  19.851   2.070  0.00  0.00    -0.270 OA
ATOM      3  N   UNL     1     -36.551  24.122   4.104  0.00  0.00    -0.191 N 
ATOM      4  N   UNL     1     -37.576  25.013   4.186  0.00  0.00    -0.175 NA
ATOM      5  N   UNL     1     -35.904  22.121   2.795  0.00  0.00    -0.367 NA
ATOM      6  N   UNL     1     -36.153  20.396   1.121  0.00  0.00    -0.251 N 
ATOM      7  C   UNL     1     -38.379  24.527   3.215  0.00  0.00    +0.148 C 
ATOM      8  C   UNL     1     -37.878  23.369   2.545  0.00  0.00    +0.170 C 
ATOM      9  C   UNL     1     -36.691  23.149   3.159  0.00  0.00    +0.197 C 
ATOM     10  C   UNL     1     -36.552  21.507   1.818  0.00  0.00    +0.215 C 
ATOM     11  C   UNL     1     -34.967  19.635   1.267  0.00  0.00    +0.252 C 
ATOM     12  H   UNL     1     -36.775  20.085   0.425  0.00  0.00    +0.158 HD
ENDROOT
BRANCH   7  19
ATOM     13  O   UNL     1     -40.604  24.946   3.658  0.00  0.00    -0.269 OA
ATOM     14  N   UNL     1     -39.726  25.924   1.735  0.00  0.00    -0.279 N 
ATOM     15  C   UNL     1     -40.945  26.625   1.325  0.00  0.00    +0.055 C 
ATOM     16  C   UNL     1     -40.457  27.612   0.262  0.00  0.00    +0.019 C 
ATOM     17  C   UNL     1     -39.279  26.885  -0.378  0.00  0.00    +0.023 C 
ATOM     18  C   UNL     1     -38.628  26.185   0.805  0.00  0.00    +0.094 C 
ATOM     19  C   UNL     1     -39.668  25.155   2.889  0.00  0.00    +0.265 C 
BRANCH  15  20
ATOM     20  C   UNL     1     -41.991  25.658   0.771  0.00  0.00    -0.057 C 
BRANCH  20  21
ATOM     21  N   UNL     1     -43.045  25.419   1.745  0.00  0.00    +0.388 N 
ATOM     22  C   UNL     1     -43.425  26.634   2.466  0.00  0.00    -0.077 C 
ATOM     23  C   UNL     1     -44.281  24.943   1.125  0.00  0.00    -0.077 C 
ATOM     24  C   UNL     1     -44.750  26.250   3.108  0.00  0.00    -0.025 C 
ATOM     25  C   UNL     1     -45.311  25.136   2.228  0.00  0.00    -0.025 C 
ATOM     26  H   UNL     1     -42.648  24.721   2.373  0.00  0.00    -0.080 HD
ENDBRANCH  20  21
ENDBRANCH  15  20
ENDBRANCH   7  19
BRANCH  11  27
ATOM     27  C   UNL     1     -34.831  18.456   0.372  0.00  0.00    +0.054 C 
ATOM     28  C   UNL     1     -33.670  17.685   0.407  0.00  0.00    +0.004 C 
ATOM     29  C   UNL     1     -35.865  18.122  -0.503  0.00  0.00    +0.004 C 
ATOM     30  C   UNL     1     -33.541  16.579  -0.433  0.00  0.00    -0.004 C 
ATOM     31  C   UNL     1     -35.737  17.016  -1.343  0.00  0.00    -0.004 C 
ATOM     32  C   UNL     1     -34.576  16.244  -1.308  0.00  0.00    -0.022 C 
ATOM     33  C   UNL     1     -34.438  15.062  -2.207  0.00  0.00    +0.031 C 
ENDBRANCH  11  27
BRANCH   3  34
ATOM     34  C   UNL     1     -35.413  24.244   4.984  0.00  0.00    +0.082 C 
ATOM     35  C   UNL     1     -34.062  24.375   4.245  0.00  0.00    +0.022 C 
ATOM     36  C   UNL     1     -35.573  25.501   5.867  0.00  0.00    +0.022 C 
ATOM     37  C   UNL     1     -35.320  22.996   5.888  0.00  0.00    +0.022 C 
ENDBRANCH   3  34
TORSDOF 5
ENDMDL
MODEL 3
REMARK VINA RESULT:      -6.7      4.936      7.003
REMARK  Name = 59001466
REMARK  5 active torsions:
REMARK  status: ('A' for Active; 'I' for Inactive)
REMARK    1  A    between atoms: N_3  and  C_34
REMARK    2  A    between atoms: C_7  and  C_19
REMARK    3  A    between atoms: C_11  and  C_27
REMARK    4  A    between atoms: C_15  and  C_20
REMARK    5  A    between atoms: C_20  and  N_21
REMARK                            x       y       z     vdW  Elec       q    Type
REMARK                         _______ _______ _______ _____ _____    ______ ____
ROOT
ATOM      1  S   UNL     1     -38.816  22.730   2.244  0.00  0.00    -0.053 S 
ATOM      2  O   UNL     1     -40.547  26.974   3.338  0.00  0.00    -0.270 OA
ATOM      3  N   UNL     1     -35.827  24.483   3.616  0.00  0.00    -0.191 N 
ATOM      4  N   UNL     1     -34.996  23.420   3.439  0.00  0.00    -0.175 NA
ATOM      5  N   UNL     1     -38.199  25.091   3.247  0.00  0.00    -0.367 NA
ATOM      6  N   UNL     1     -40.490  24.751   2.555  0.00  0.00    -0.251 N 
ATOM      7  C   UNL     1     -35.867  22.536   2.905  0.00  0.00    +0.148 C 
ATOM      8  C   UNL     1     -37.200  23.025   2.751  0.00  0.00    +0.170 C 
ATOM      9  C   UNL     1     -37.120  24.290   3.226  0.00  0.00    +0.197 C 
ATOM     10  C   UNL     1     -39.187  24.369   2.743  0.00  0.00    +0.215 C 
ATOM     11  C   UNL     1     -41.101  25.995   2.849  0.00  0.00    +0.252 C 
ATOM     12  H   UNL     1     -41.081  24.068   2.164  0.00  0.00    +0.158 HD
ENDROOT
BRANCH   7  19
ATOM     13  O   UNL     1     -35.510  20.307   3.382  0.00  0.00    -0.269 OA
ATOM     14  N   UNL     1     -35.021  20.995   1.212  0.00  0.00    -0.279 N 
ATOM     15  C   UNL     1     -34.616  19.683   0.702  0.00  0.00    +0.055 C 
ATOM     16  C   UNL     1     -34.596  19.874  -0.817  0.00  0.00    +0.019 C 
ATOM     17  C   UNL     1     -34.210  21.340  -0.982  0.00  0.00    +0.023 C 
ATOM     18  C   UNL     1     -34.944  22.016   0.167  0.00  0.00    +0.094 C 
ATOM     19  C   UNL     1     -35.453  21.179   2.518  0.00  0.00    +0.265 C 
BRANCH  15  20
ATOM     20  C   UNL     1     -33.249  19.266   1.244  0.00  0.00    -0.057 C 
BRANCH  20  21
ATOM     21  N   UNL     1     -32.620  18.289   0.370  0.00  0.00    +0.388 N 
ATOM     22  C   UNL     1     -31.216  18.058   0.710  0.00  0.00    -0.077 C 
ATOM     23  C   UNL     1     -33.253  16.973   0.455  0.00  0.00    -0.077 C 
ATOM     24  C   UNL     1     -30.892  16.772  -0.036  0.00  0.00    -0.025 C 
ATOM     25  C   UNL     1     -32.231  16.060  -0.206  0.00  0.00    -0.025 C 
ATOM     26  H   UNL     1     -32.718  18.692  -0.562  0.00  0.00    -0.080 HD
ENDBRANCH  20  21
ENDBRANCH  15  20
ENDBRANCH   7  19
BRANCH  11  27
ATOM     27  C   UNL     1     -42.542  26.114   2.503  0.00  0.00    +0.054 C 
ATOM     28  C   UNL     1     -43.386  26.893   3.294  0.00  0.00    +0.004 C 
ATOM     29  C   UNL     1     -43.049  25.446   1.389  0.00  0.00    +0.004 C 
ATOM     30  C   UNL     1     -44.738  27.005   2.971  0.00  0.00    -0.004 C 
ATOM     31  C   UNL     1     -44.401  25.557   1.065  0.00  0.00    -0.004 C 
ATOM     32  C   UNL     1     -45.246  26.337   1.856  0.00  0.00    -0.022 C 
ATOM     33  C   UNL     1     -46.692  26.456   1.511  0.00  0.00    +0.031 C 
ENDBRANCH  11  27
BRANCH   3  34
ATOM     34  C   UNL     1     -35.321  25.710   4.183  0.00  0.00    +0.082 C 
ATOM     35  C   UNL     1     -35.586  26.958   3.310  0.00  0.00    +0.022 C 
ATOM     36  C   UNL     1     -35.987  25.963   5.553  0.00  0.00    +0.022 C 
ATOM     37  C   UNL     1     -33.793  25.603   4.373  0.00  0.00    +0.022 C 
ENDBRANCH   3  34
TORSDOF 5
ENDMDL
MODEL 4
REMARK VINA RESULT:      -6.7      5.149     10.740
REMARK  Name = 59001466
REMARK  5 active torsions:
REMARK  status: ('A' for Active; 'I' for Inactive)
REMARK    1  A    between atoms: N_3  and  C_34
REMARK    2  A    between atoms: C_7  and  C_19
REMARK    3  A    between atoms: C_11  and  C_27
REMARK    4  A    between atoms: C_15  and  C_20
REMARK    5  A    between atoms: C_20  and  N_21
REMARK                            x       y       z     vdW  Elec       q    Type
REMARK                         _______ _______ _______ _____ _____    ______ ____
ROOT
ATOM      1  S   UNL     1     -39.199  22.334   1.358  0.00  0.00    -0.053 S 
ATOM      2  O   UNL     1     -35.371  19.591   1.509  0.00  0.00    -0.270 OA
ATOM      3  N   UNL     1     -37.019  24.137   3.785  0.00  0.00    -0.191 N 
ATOM      4  N   UNL     1     -37.915  25.138   4.002  0.00  0.00    -0.175 NA
ATOM      5  N   UNL     1     -36.812  22.062   2.450  0.00  0.00    -0.367 NA
ATOM      6  N   UNL     1     -37.513  20.356   0.888  0.00  0.00    -0.251 N 
ATOM      7  C   UNL     1     -38.912  24.733   3.185  0.00  0.00    +0.148 C 
ATOM      8  C   UNL     1     -38.653  23.520   2.478  0.00  0.00    +0.170 C 
ATOM      9  C   UNL     1     -37.415  23.175   2.903  0.00  0.00    +0.197 C 
ATOM     10  C   UNL     1     -37.671  21.512   1.606  0.00  0.00    +0.215 C 
ATOM     11  C   UNL     1     -36.408  19.469   0.866  0.00  0.00    +0.252 C 
ATOM     12  H   UNL     1     -38.269  20.108   0.308  0.00  0.00    +0.158 HD
ENDROOT
BRANCH   7  19
ATOM     13  O   UNL     1     -40.948  25.459   3.992  0.00  0.00    -0.269 OA
ATOM     14  N   UNL     1     -40.354  26.193   1.863  0.00  0.00    -0.279 N 
ATOM     15  C   UNL     1     -41.541  27.016   1.626  0.00  0.00    +0.055 C 
ATOM     16  C   UNL     1     -41.159  27.864   0.411  0.00  0.00    +0.019 C 
ATOM     17  C   UNL     1     -40.217  26.954  -0.371  0.00  0.00    +0.023 C 
ATOM     18  C   UNL     1     -39.432  26.254   0.729  0.00  0.00    +0.094 C 
ATOM     19  C   UNL     1     -40.160  25.498   3.049  0.00  0.00    +0.265 C 
BRANCH  15  20
ATOM     20  C   UNL     1     -42.777  26.156   1.359  0.00  0.00    -0.057 C 
BRANCH  20  21
ATOM     21  N   UNL     1     -43.576  26.008   2.566  0.00  0.00    +0.388 N 
ATOM     22  C   UNL     1     -43.764  27.276   3.271  0.00  0.00    -0.077 C 
ATOM     23  C   UNL     1     -44.929  25.526   2.284  0.00  0.00    -0.077 C 
ATOM     24  C   UNL     1     -44.906  26.968   4.228  0.00  0.00    -0.025 C 
ATOM     25  C   UNL     1     -45.670  25.817   3.580  0.00  0.00    -0.025 C 
ATOM     26  H   UNL     1     -43.051  25.340   3.129  0.00  0.00    -0.080 HD
ENDBRANCH  20  21
ENDBRANCH  15  20
ENDBRANCH   7  19
BRANCH  11  27
ATOM     27  C   UNL     1     -36.547  18.271  -0.004  0.00  0.00    +0.054 C 
ATOM     28  C   UNL     1     -37.812  17.851  -0.412  0.00  0.00    +0.004 C 
ATOM     29  C   UNL     1     -35.413  17.569  -0.410  0.00  0.00    +0.004 C 
ATOM     30  C   UNL     1     -37.944  16.727  -1.229  0.00  0.00    -0.004 C 
ATOM     31  C   UNL     1     -35.544  16.445  -1.226  0.00  0.00    -0.004 C 
ATOM     32  C   UNL     1     -36.809  16.024  -1.635  0.00  0.00    -0.022 C 
ATOM     33  C   UNL     1     -36.950  14.822  -2.507  0.00  0.00    +0.031 C 
ENDBRANCH  11  27
BRANCH   3  34
ATOM     34  C   UNL     1     -35.749  24.142   4.471  0.00  0.00    +0.082 C 
ATOM     35  C   UNL     1     -35.473  22.856   5.284  0.00  0.00    +0.022 C 
ATOM     36  C   UNL     1     -34.605  24.285   3.444  0.00  0.00    +0.022 C 
ATOM     37  C   UNL     1     -35.697  25.327   5.459  0.00  0.00    +0.022 C 
ENDBRANCH   3  34
TORSDOF 5
ENDMDL
MODEL 5
REMARK VINA RESULT:      -6.7      2.247      2.846
REMARK  Name = 59001466
REMARK  5 active torsions:
REMARK  status: ('A' for Active; 'I' for Inactive)
REMARK    1  A    between atoms: N_3  and  C_34
REMARK    2  A    between atoms: C_7  and  C_19
REMARK    3  A    between atoms: C_11  and  C_27
REMARK    4  A    between atoms: C_15  and  C_20
REMARK    5  A    between atoms: C_20  and  N_21
REMARK                            x       y       z     vdW  Elec       q    Type
REMARK                         _______ _______ _______ _____ _____    ______ ____
ROOT
ATOM      1  S   UNL     1     -34.111  29.670   2.069  0.00  0.00    -0.053 S 
ATOM      2  O   UNL     1     -32.206  33.870   3.037  0.00  0.00    -0.270 OA
ATOM      3  N   UNL     1     -31.255  28.761   4.285  0.00  0.00    -0.191 N 
ATOM      4  N   UNL     1     -31.510  27.426   4.236  0.00  0.00    -0.175 NA
ATOM      5  N   UNL     1     -32.169  30.880   3.385  0.00  0.00    -0.367 NA
ATOM      6  N   UNL     1     -33.678  32.276   2.115  0.00  0.00    -0.251 N 
ATOM      7  C   UNL     1     -32.594  27.429   3.430  0.00  0.00    +0.148 C 
ATOM      8  C   UNL     1     -33.008  28.722   2.987  0.00  0.00    +0.170 C 
ATOM      9  C   UNL     1     -32.108  29.549   3.569  0.00  0.00    +0.197 C 
ATOM     10  C   UNL     1     -33.209  31.080   2.591  0.00  0.00    +0.215 C 
ATOM     11  C   UNL     1     -33.177  33.581   2.347  0.00  0.00    +0.252 C 
ATOM     12  H   UNL     1     -34.471  32.222   1.533  0.00  0.00    +0.158 HD
ENDROOT
BRANCH   7  19
ATOM     13  O   UNL     1     -32.960  25.673   1.980  0.00  0.00    -0.269 OA
ATOM     14  N   UNL     1     -34.243  25.698   3.923  0.00  0.00    -0.279 N 
ATOM     15  C   UNL     1     -34.969  24.453   3.668  0.00  0.00    +0.055 C 
ATOM     16  C   UNL     1     -35.609  24.122   5.018  0.00  0.00    +0.019 C 
ATOM     17  C   UNL     1     -35.864  25.495   5.632  0.00  0.00    +0.023 C 
ATOM     18  C   UNL     1     -34.642  26.291   5.200  0.00  0.00    +0.094 C 
ATOM     19  C   UNL     1     -33.281  26.186   3.050  0.00  0.00    +0.265 C 
BRANCH  15  20
ATOM     20  C   UNL     1     -36.013  24.626   2.566  0.00  0.00    -0.057 C 
BRANCH  20  21
ATOM     21  N   UNL     1     -37.220  23.873   2.872  0.00  0.00    +0.388 N 
ATOM     22  C   UNL     1     -38.438  24.642   2.616  0.00  0.00    -0.077 C 
ATOM     23  C   UNL     1     -37.351  22.670   2.049  0.00  0.00    -0.077 C 
ATOM     24  C   UNL     1     -39.523  23.575   2.620  0.00  0.00    -0.025 C 
ATOM     25  C   UNL     1     -38.808  22.278   2.250  0.00  0.00    -0.025 C 
ATOM     26  H   UNL     1     -37.123  23.642   3.860  0.00  0.00    -0.080 HD
ENDBRANCH  20  21
ENDBRANCH  15  20
ENDBRANCH   7  19
BRANCH  11  27
ATOM     27  C   UNL     1     -33.895  34.689   1.662  0.00  0.00    +0.054 C 
ATOM     28  C   UNL     1     -35.227  34.526   1.282  0.00  0.00    +0.004 C 
ATOM     29  C   UNL     1     -33.236  35.889   1.397  0.00  0.00    +0.004 C 
ATOM     30  C   UNL     1     -35.901  35.564   0.639  0.00  0.00    -0.004 C 
ATOM     31  C   UNL     1     -33.908  36.927   0.753  0.00  0.00    -0.004 C 
ATOM     32  C   UNL     1     -35.241  36.765   0.375  0.00  0.00    -0.022 C 
ATOM     33  C   UNL     1     -35.961  37.875  -0.314  0.00  0.00    +0.031 C 
ENDBRANCH  11  27
BRANCH   3  34
ATOM     34  C   UNL     1     -30.143  29.258   5.059  0.00  0.00    +0.082 C 
ATOM     35  C   UNL     1     -29.287  30.310   4.318  0.00  0.00    +0.022 C 
ATOM     36  C   UNL     1     -30.664  29.922   6.352  0.00  0.00    +0.022 C 
ATOM     37  C   UNL     1     -29.206  28.088   5.431  0.00  0.00    +0.022 C 
ENDBRANCH   3  34
TORSDOF 5
ENDMDL
MODEL 6
REMARK VINA RESULT:      -6.7      2.087      2.759
REMARK  Name = 59001466
REMARK  5 active torsions:
REMARK  status: ('A' for Active; 'I' for Inactive)
REMARK    1  A    between atoms: N_3  and  C_34
REMARK    2  A    between atoms: C_7  and  C_19
REMARK    3  A    between atoms: C_11  and  C_27
REMARK    4  A    between atoms: C_15  and  C_20
REMARK    5  A    between atoms: C_20  and  N_21
REMARK                            x       y       z     vdW  Elec       q    Type
REMARK                         _______ _______ _______ _____ _____    ______ ____
ROOT
ATOM      1  S   UNL     1     -34.170  29.664   2.129  0.00  0.00    -0.053 S 
ATOM      2  O   UNL     1     -32.178  33.864   2.898  0.00  0.00    -0.270 OA
ATOM      3  N   UNL     1     -31.144  28.763   4.110  0.00  0.00    -0.191 N 
ATOM      4  N   UNL     1     -31.406  27.428   4.094  0.00  0.00    -0.175 NA
ATOM      5  N   UNL     1     -32.122  30.877   3.269  0.00  0.00    -0.367 NA
ATOM      6  N   UNL     1     -33.727  32.268   2.115  0.00  0.00    -0.251 N 
ATOM      7  C   UNL     1     -32.553  27.429   3.381  0.00  0.00    +0.148 C 
ATOM      8  C   UNL     1     -32.998  28.719   2.961  0.00  0.00    +0.170 C 
ATOM      9  C   UNL     1     -32.050  29.548   3.460  0.00  0.00    +0.197 C 
ATOM     10  C   UNL     1     -33.224  31.074   2.562  0.00  0.00    +0.215 C 
ATOM     11  C   UNL     1     -33.204  33.573   2.293  0.00  0.00    +0.252 C 
ATOM     12  H   UNL     1     -34.564  32.212   1.601  0.00  0.00    +0.158 HD
ENDROOT
BRANCH   7  19
ATOM     13  O   UNL     1     -33.078  25.686   1.963  0.00  0.00    -0.269 OA
ATOM     14  N   UNL     1     -34.122  25.680   4.045  0.00  0.00    -0.279 N 
ATOM     15  C   UNL     1     -34.865  24.432   3.863  0.00  0.00    +0.055 C 
ATOM     16  C   UNL     1     -35.340  24.082   5.275  0.00  0.00    +0.019 C 
ATOM     17  C   UNL     1     -35.528  25.446   5.931  0.00  0.00    +0.023 C 
ATOM     18  C   UNL     1     -34.370  26.256   5.366  0.00  0.00    +0.094 C 
ATOM     19  C   UNL     1     -33.272  26.185   3.069  0.00  0.00    +0.265 C 
BRANCH  15  20
ATOM     20  C   UNL     1     -36.034  24.610   2.894  0.00  0.00    -0.057 C 
BRANCH  20  21
ATOM     21  N   UNL     1     -36.221  23.418   2.082  0.00  0.00    +0.388 N 
ATOM     22  C   UNL     1     -34.994  22.633   1.951  0.00  0.00    -0.077 C 
ATOM     23  C   UNL     1     -37.201  22.497   2.659  0.00  0.00    -0.077 C 
ATOM     24  C   UNL     1     -35.498  21.295   1.429  0.00  0.00    -0.025 C 
ATOM     25  C   UNL     1     -36.949  21.208   1.891  0.00  0.00    -0.025 C 
ATOM     26  H   UNL     1     -36.532  23.779   1.180  0.00  0.00    -0.080 HD
ENDBRANCH  20  21
ENDBRANCH  15  20
ENDBRANCH   7  19
BRANCH  11  27
ATOM     27  C   UNL     1     -33.972  34.677   1.660  0.00  0.00    +0.054 C 
ATOM     28  C   UNL     1     -35.320  34.499   1.348  0.00  0.00    +0.004 C 
ATOM     29  C   UNL     1     -33.345  35.890   1.375  0.00  0.00    +0.004 C 
ATOM     30  C   UNL     1     -36.042  35.534   0.753  0.00  0.00    -0.004 C 
ATOM     31  C   UNL     1     -34.065  36.925   0.780  0.00  0.00    -0.004 C 
ATOM     32  C   UNL     1     -35.413  36.748   0.469  0.00  0.00    -0.022 C 
ATOM     33  C   UNL     1     -36.185  37.854  -0.168  0.00  0.00    +0.031 C 
ENDBRANCH  11  27
BRANCH   3  34
ATOM     34  C   UNL     1     -29.970  29.262   4.785  0.00  0.00    +0.082 C 
ATOM     35  C   UNL     1     -28.989  28.154   5.232  0.00  0.00    +0.022 C 
ATOM     36  C   UNL     1     -29.192  30.207   3.845  0.00  0.00    +0.022 C 
ATOM     37  C   UNL     1     -30.390  30.038   6.052  0.00  0.00    +0.022 C 
ENDBRANCH   3  34
TORSDOF 5
ENDMDL
MODEL 7
REMARK VINA RESULT:      -6.7      6.513      8.907
REMARK  Name = 59001466
REMARK  5 active torsions:
REMARK  status: ('A' for Active; 'I' for Inactive)
REMARK    1  A    between atoms: N_3  and  C_34
REMARK    2  A    between atoms: C_7  and  C_19
REMARK    3  A    between atoms: C_11  and  C_27
REMARK    4  A    between atoms: C_15  and  C_20
REMARK    5  A    between atoms: C_20  and  N_21
REMARK                            x       y       z     vdW  Elec       q    Type
REMARK                         _______ _______ _______ _____ _____    ______ ____
ROOT
ATOM      1  S   UNL     1     -41.773  26.993   3.731  0.00  0.00    -0.053 S 
ATOM      2  O   UNL     1     -46.085  28.489   2.558  0.00  0.00    -0.270 OA
ATOM      3  N   UNL     1     -42.617  24.808   0.831  0.00  0.00    -0.191 N 
ATOM      4  N   UNL     1     -41.437  24.132   0.867  0.00  0.00    -0.175 NA
ATOM      5  N   UNL     1     -43.772  26.631   2.046  0.00  0.00    -0.367 NA
ATOM      6  N   UNL     1     -44.041  28.348   3.725  0.00  0.00    -0.251 N 
ATOM      7  C   UNL     1     -40.850  24.751   1.915  0.00  0.00    +0.148 C 
ATOM      8  C   UNL     1     -41.634  25.782   2.518  0.00  0.00    +0.170 C 
ATOM      9  C   UNL     1     -42.768  25.778   1.778  0.00  0.00    +0.197 C 
ATOM     10  C   UNL     1     -43.363  27.346   3.082  0.00  0.00    +0.215 C 
ATOM     11  C   UNL     1     -45.332  28.865   3.450  0.00  0.00    +0.252 C 
ATOM     12  H   UNL     1     -43.568  28.766   4.481  0.00  0.00    +0.158 HD
ENDROOT
BRANCH   7  19
ATOM     13  O   UNL     1     -39.410  23.340   3.035  0.00  0.00    -0.269 OA
ATOM     14  N   UNL     1     -38.461  25.230   2.061  0.00  0.00    -0.279 N 
ATOM     15  C   UNL     1     -37.077  24.946   2.443  0.00  0.00    +0.055 C 
ATOM     16  C   UNL     1     -36.256  25.908   1.580  0.00  0.00    +0.019 C 
ATOM     17  C   UNL     1     -37.180  27.111   1.419  0.00  0.00    +0.023 C 
ATOM     18  C   UNL     1     -38.553  26.469   1.288  0.00  0.00    +0.094 C 
ATOM     19  C   UNL     1     -39.508  24.377   2.383  0.00  0.00    +0.265 C 
BRANCH  15  20
ATOM     20  C   UNL     1     -36.847  25.179   3.936  0.00  0.00    -0.057 C 
BRANCH  20  21
ATOM     21  N   UNL     1     -36.574  23.924   4.621  0.00  0.00    +0.388 N 
ATOM     22  C   UNL     1     -36.035  22.904   3.722  0.00  0.00    -0.077 C 
ATOM     23  C   UNL     1     -35.569  24.071   5.675  0.00  0.00    -0.077 C 
ATOM     24  C   UNL     1     -35.474  21.865   4.683  0.00  0.00    -0.025 C 
ATOM     25  C   UNL     1     -35.171  22.631   5.967  0.00  0.00    -0.025 C 
ATOM     26  H   UNL     1     -37.478  23.649   5.002  0.00  0.00    -0.080 HD
ENDBRANCH  20  21
ENDBRANCH  15  20
ENDBRANCH   7  19
BRANCH  11  27
ATOM     27  C   UNL     1     -45.809  29.946   4.352  0.00  0.00    +0.054 C 
ATOM     28  C   UNL     1     -47.127  29.938   4.810  0.00  0.00    +0.004 C 
ATOM     29  C   UNL     1     -44.942  30.968   4.737  0.00  0.00    +0.004 C 
ATOM     30  C   UNL     1     -47.577  30.953   5.656  0.00  0.00    -0.004 C 
ATOM     31  C   UNL     1     -45.391  31.982   5.582  0.00  0.00    -0.004 C 
ATOM     32  C   UNL     1     -46.708  31.975   6.042  0.00  0.00    -0.022 C 
ATOM     33  C   UNL     1     -47.189  33.060   6.946  0.00  0.00    +0.031 C 
ENDBRANCH  11  27
BRANCH   3  34
ATOM     34  C   UNL     1     -43.609  24.480  -0.165  0.00  0.00    +0.082 C 
ATOM     35  C   UNL     1     -44.980  24.083   0.427  0.00  0.00    +0.022 C 
ATOM     36  C   UNL     1     -43.844  25.698  -1.085  0.00  0.00    +0.022 C 
ATOM     37  C   UNL     1     -43.116  23.289  -1.015  0.00  0.00    +0.022 C 
ENDBRANCH   3  34
TORSDOF 5
ENDMDL
MODEL 8
REMARK VINA RESULT:      -6.6      4.328     11.445
REMARK  Name = 59001466
REMARK  5 active torsions:
REMARK  status: ('A' for Active; 'I' for Inactive)
REMARK    1  A    between atoms: N_3  and  C_34
REMARK    2  A    between atoms: C_7  and  C_19
REMARK    3  A    between atoms: C_11  and  C_27
REMARK    4  A    between atoms: C_15  and  C_20
REMARK    5  A    between atoms: C_20  and  N_21
REMARK                            x       y       z     vdW  Elec       q    Type
REMARK                         _______ _______ _______ _____ _____    ______ ____
ROOT
ATOM      1  S   UNL     1     -37.669  20.446   0.501  0.00  0.00    -0.053 S 
ATOM      2  O   UNL     1     -37.105  15.979  -0.887  0.00  0.00    -0.270 OA
ATOM      3  N   UNL     1     -33.959  20.100   0.406  0.00  0.00    -0.191 N 
ATOM      4  N   UNL     1     -33.727  21.379   0.807  0.00  0.00    -0.175 NA
ATOM      5  N   UNL     1     -35.871  18.600  -0.069  0.00  0.00    -0.367 NA
ATOM      6  N   UNL     1     -38.197  17.975  -0.271  0.00  0.00    -0.251 N 
ATOM      7  C   UNL     1     -35.000  21.812   0.938  0.00  0.00    +0.148 C 
ATOM      8  C   UNL     1     -35.999  20.838   0.630  0.00  0.00    +0.170 C 
ATOM      9  C   UNL     1     -35.272  19.748   0.292  0.00  0.00    +0.197 C 
ATOM     10  C   UNL     1     -37.171  18.841   0.001  0.00  0.00    +0.215 C 
ATOM     11  C   UNL     1     -38.130  16.623  -0.690  0.00  0.00    +0.252 C 
ATOM     12  H   UNL     1     -39.104  18.342  -0.161  0.00  0.00    +0.158 HD
ENDROOT
BRANCH   7  19
ATOM     13  O   UNL     1     -35.363  24.046   0.492  0.00  0.00    -0.269 OA
ATOM     14  N   UNL     1     -35.513  23.395   2.723  0.00  0.00    -0.279 N 
ATOM     15  C   UNL     1     -35.862  24.710   3.264  0.00  0.00    +0.055 C 
ATOM     16  C   UNL     1     -36.349  24.403   4.682  0.00  0.00    +0.019 C 
ATOM     17  C   UNL     1     -35.530  23.178   5.077  0.00  0.00    +0.023 C 
ATOM     18  C   UNL     1     -35.457  22.386   3.781  0.00  0.00    +0.094 C 
ATOM     19  C   UNL     1     -35.312  23.183   1.366  0.00  0.00    +0.265 C 
BRANCH  15  20
ATOM     20  C   UNL     1     -34.661  25.655   3.263  0.00  0.00    -0.057 C 
BRANCH  20  21
ATOM     21  N   UNL     1     -34.894  26.790   2.383  0.00  0.00    +0.388 N 
ATOM     22  C   UNL     1     -36.313  26.990   2.093  0.00  0.00    -0.077 C 
ATOM     23  C   UNL     1     -34.444  28.053   2.968  0.00  0.00    -0.077 C 
ATOM     24  C   UNL     1     -36.349  28.397   1.515  0.00  0.00    -0.025 C 
ATOM     25  C   UNL     1     -35.118  29.095   2.088  0.00  0.00    -0.025 C 
ATOM     26  H   UNL     1     -34.368  26.560   1.540  0.00  0.00    -0.080 HD
ENDBRANCH  20  21
ENDBRANCH  15  20
ENDBRANCH   7  19
BRANCH  11  27
ATOM     27  C   UNL     1     -39.432  15.932  -0.881  0.00  0.00    +0.054 C 
ATOM     28  C   UNL     1     -39.611  14.638  -0.392  0.00  0.00    +0.004 C 
ATOM     29  C   UNL     1     -40.473  16.575  -1.549  0.00  0.00    +0.004 C 
ATOM     30  C   UNL     1     -40.832  13.987  -0.571  0.00  0.00    -0.004 C 
ATOM     31  C   UNL     1     -41.694  15.926  -1.728  0.00  0.00    -0.004 C 
ATOM     32  C   UNL     1     -41.874  14.632  -1.239  0.00  0.00    -0.022 C 
ATOM     33  C   UNL     1     -43.179  13.936  -1.431  0.00  0.00    +0.031 C 
ENDBRANCH  11  27
BRANCH   3  34
ATOM     34  C   UNL     1     -32.851  19.215   0.134  0.00  0.00    +0.082 C 
ATOM     35  C   UNL     1     -32.985  18.437  -1.194  0.00  0.00    +0.022 C 
ATOM     36  C   UNL     1     -31.542  20.030   0.055  0.00  0.00    +0.022 C 
ATOM     37  C   UNL     1     -32.732  18.170   1.265  0.00  0.00    +0.022 C 
ENDBRANCH   3  34
TORSDOF 5
ENDMDL
MODEL 9
REMARK VINA RESULT:      -6.4      7.209     11.195
REMARK  Name = 59001466
REMARK  5 active torsions:
REMARK  status: ('A' for Active; 'I' for Inactive)
REMARK    1  A    between atoms: N_3  and  C_34
REMARK    2  A    between atoms: C_7  and  C_19
REMARK    3  A    between atoms: C_11  and  C_27
REMARK    4  A    between atoms: C_15  and  C_20
REMARK    5  A    between atoms: C_20  and  N_21
REMARK                            x       y       z     vdW  Elec       q    Type
REMARK                         _______ _______ _______ _____ _____    ______ ____
ROOT
ATOM      1  S   UNL     1     -41.610  26.584   4.008  0.00  0.00    -0.053 S 
ATOM      2  O   UNL     1     -37.858  25.151   1.544  0.00  0.00    -0.270 OA
ATOM      3  N   UNL     1     -42.271  28.024   0.635  0.00  0.00    -0.191 N 
ATOM      4  N   UNL     1     -43.448  28.603   1.000  0.00  0.00    -0.175 NA
ATOM      5  N   UNL     1     -40.466  26.652   1.631  0.00  0.00    -0.367 NA
ATOM      6  N   UNL     1     -39.317  25.435   3.374  0.00  0.00    -0.251 N 
ATOM      7  C   UNL     1     -43.494  28.226   2.297  0.00  0.00    +0.148 C 
ATOM      8  C   UNL     1     -42.386  27.438   2.733  0.00  0.00    +0.170 C 
ATOM      9  C   UNL     1     -41.623  27.337   1.619  0.00  0.00    +0.197 C 
ATOM     10  C   UNL     1     -40.339  26.193   2.866  0.00  0.00    +0.215 C 
ATOM     11  C   UNL     1     -38.155  24.959   2.719  0.00  0.00    +0.252 C 
ATOM     12  H   UNL     1     -39.401  25.188   4.323  0.00  0.00    +0.158 HD
ENDROOT
BRANCH   7  19
ATOM     13  O   UNL     1     -44.683  29.791   3.505  0.00  0.00    -0.269 OA
ATOM     14  N   UNL     1     -45.482  27.605   3.570  0.00  0.00    -0.279 N 
ATOM     15  C   UNL     1     -46.647  27.870   4.415  0.00  0.00    +0.055 C 
ATOM     16  C   UNL     1     -47.496  26.604   4.275  0.00  0.00    +0.019 C 
ATOM     17  C   UNL     1     -46.457  25.508   4.061  0.00  0.00    +0.023 C 
ATOM     18  C   UNL     1     -45.414  26.193   3.191  0.00  0.00    +0.094 C 
ATOM     19  C   UNL     1     -44.609  28.609   3.175  0.00  0.00    +0.265 C 
BRANCH  15  20
ATOM     20  C   UNL     1     -46.241  28.130   5.866  0.00  0.00    -0.057 C 
BRANCH  20  21
ATOM     21  N   UNL     1     -45.831  29.514   6.051  0.00  0.00    +0.388 N 
ATOM     22  C   UNL     1     -46.960  30.396   6.346  0.00  0.00    -0.077 C 
ATOM     23  C   UNL     1     -44.915  29.679   7.179  0.00  0.00    -0.077 C 
ATOM     24  C   UNL     1     -46.282  31.652   6.873  0.00  0.00    -0.025 C 
ATOM     25  C   UNL     1     -44.937  31.181   7.418  0.00  0.00    -0.025 C 
ATOM     26  H   UNL     1     -45.385  29.759   5.167  0.00  0.00    -0.080 HD
ENDBRANCH  20  21
ENDBRANCH  15  20
ENDBRANCH   7  19
BRANCH  11  27
ATOM     27  C   UNL     1     -37.206  24.176   3.554  0.00  0.00    +0.054 C 
ATOM     28  C   UNL     1     -36.898  22.860   3.210  0.00  0.00    +0.004 C 
ATOM     29  C   UNL     1     -36.627  24.756   4.682  0.00  0.00    +0.004 C 
ATOM     30  C   UNL     1     -36.009  22.124   3.993  0.00  0.00    -0.004 C 
ATOM     31  C   UNL     1     -35.739  24.021   5.466  0.00  0.00    -0.004 C 
ATOM     32  C   UNL     1     -35.429  22.705   5.122  0.00  0.00    -0.022 C 
ATOM     33  C   UNL     1     -34.479  21.917   5.960  0.00  0.00    +0.031 C 
ENDBRANCH  11  27
BRANCH   3  34
ATOM     34  C   UNL     1     -41.787  28.162  -0.718  0.00  0.00    +0.082 C 
ATOM     35  C   UNL     1     -40.481  28.981  -0.834  0.00  0.00    +0.022 C 
ATOM     36  C   UNL     1     -41.504  26.765  -1.313  0.00  0.00    +0.022 C 
ATOM     37  C   UNL     1     -42.851  28.875  -1.580  0.00  0.00    +0.022 C 
ENDBRANCH   3  34
TORSDOF 5
ENDMDL
