MODEL 1
REMARK VINA RESULT:      -7.1      0.000      0.000
REMARK  Name = 50937035
REMARK  4 active torsions:
REMARK  status: ('A' for Active; 'I' for Inactive)
REMARK    1  A    between atoms: C_7  and  O_25
REMARK    2  A    between atoms: C_13  and  O_27
REMARK    3  A    between atoms: C_21  and  O_29
REMARK    4  A    between atoms: C_23  and  O_31
REMARK                            x       y       z     vdW  Elec       q    Type
REMARK                         _______ _______ _______ _____ _____    ______ ____
ROOT
ATOM      1  O   UNL     1     -37.445  24.749   4.455  0.00  0.00    -0.320 OA
ATOM      2  O   UNL     1     -36.758  26.010   2.506  0.00  0.00    -0.459 OA
ATOM      3  O   UNL     1     -32.027  27.322   6.544  0.00  0.00    -0.286 OA
ATOM      4  O   UNL     1     -33.507  29.777   2.034  0.00  0.00    -0.287 OA
ATOM      5  C   UNL     1     -37.499  24.889   3.031  0.00  0.00    +0.229 C 
ATOM      6  C   UNL     1     -36.097  24.581   4.902  0.00  0.00    +0.173 C 
ATOM      7  C   UNL     1     -35.508  23.273   4.357  0.00  0.00    +0.142 C 
ATOM      8  C   UNL     1     -37.038  23.579   2.366  0.00  0.00    +0.072 C 
ATOM      9  C   UNL     1     -35.645  23.159   2.836  0.00  0.00    +0.038 C 
ATOM     10  C   UNL     1     -35.329  25.793   4.459  0.00  0.00    +0.075 C 
ATOM     11  C   UNL     1     -35.707  26.438   3.276  0.00  0.00    +0.142 C 
ATOM     12  C   UNL     1     -38.963  25.154   2.674  0.00  0.00    +0.076 C 
ATOM     13  C   UNL     1     -34.232  26.269   5.185  0.00  0.00    +0.138 C 
ATOM     14  C   UNL     1     -35.003  27.553   2.823  0.00  0.00    +0.040 C 
ATOM     15  C   UNL     1     -33.524  27.390   4.733  0.00  0.00    +0.076 C 
ATOM     16  C   UNL     1     -33.910  28.032   3.555  0.00  0.00    +0.048 C 
ATOM     17  C   UNL     1     -32.370  27.884   5.512  0.00  0.00    +0.202 C 
ATOM     18  C   UNL     1     -33.170  29.215   3.069  0.00  0.00    +0.196 C 
ATOM     19  C   UNL     1     -31.630  29.068   5.027  0.00  0.00    +0.076 C 
ATOM     20  C   UNL     1     -32.017  29.710   3.850  0.00  0.00    +0.048 C 
ATOM     21  C   UNL     1     -30.537  29.548   5.757  0.00  0.00    +0.140 C 
ATOM     22  C   UNL     1     -31.309  30.831   3.401  0.00  0.00    +0.040 C 
ATOM     23  C   UNL     1     -30.219  31.305   4.131  0.00  0.00    +0.137 C 
ATOM     24  C   UNL     1     -29.834  30.665   5.308  0.00  0.00    +0.073 C 
ENDROOT
BRANCH   7  25
ATOM     25  O   UNL     1     -36.207  22.175   4.946  0.00  0.00    -0.382 OA
ATOM     26  H   UNL     1     -37.033  22.021   4.461  0.00  0.00    +0.210 HD
ENDBRANCH   7  25
BRANCH  13  27
ATOM     27  O   UNL     1     -33.878  25.605   6.324  0.00  0.00    -0.506 OA
ATOM     28  H   UNL     1     -33.848  24.668   6.330  0.00  0.00    +0.292 HD
ENDBRANCH  13  27
BRANCH  21  29
ATOM     29  O   UNL     1     -30.105  28.970   6.915  0.00  0.00    -0.505 OA
ATOM     30  H   UNL     1     -29.314  29.268   7.321  0.00  0.00    +0.292 HD
ENDBRANCH  21  29
BRANCH  23  31
ATOM     31  O   UNL     1     -29.532  32.396   3.695  0.00  0.00    -0.505 OA
ATOM     32  H   UNL     1     -29.385  32.523   2.778  0.00  0.00    +0.292 HD
ENDBRANCH  23  31
TORSDOF 4
ENDMDL
MODEL 2
REMARK VINA RESULT:      -7.1      3.984      9.426
REMARK  Name = 50937035
REMARK  4 active torsions:
REMARK  status: ('A' for Active; 'I' for Inactive)
REMARK    1  A    between atoms: C_7  and  O_25
REMARK    2  A    between atoms: C_13  and  O_27
REMARK    3  A    between atoms: C_21  and  O_29
REMARK    4  A    between atoms: C_23  and  O_31
REMARK                            x       y       z     vdW  Elec       q    Type
REMARK                         _______ _______ _______ _____ _____    ______ ____
ROOT
ATOM      1  O   UNL     1     -36.305  24.389   5.647  0.00  0.00    -0.320 OA
ATOM      2  O   UNL     1     -36.180  22.603   4.018  0.00  0.00    -0.459 OA
ATOM      3  O   UNL     1     -40.806  26.195   1.545  0.00  0.00    -0.286 OA
ATOM      4  O   UNL     1     -39.449  21.126   0.537  0.00  0.00    -0.287 OA
ATOM      5  C   UNL     1     -35.502  23.376   5.029  0.00  0.00    +0.229 C 
ATOM      6  C   UNL     1     -36.779  25.327   4.677  0.00  0.00    +0.173 C 
ATOM      7  C   UNL     1     -35.605  26.088   4.044  0.00  0.00    +0.142 C 
ATOM      8  C   UNL     1     -34.222  24.010   4.455  0.00  0.00    +0.072 C 
ATOM      9  C   UNL     1     -34.535  25.148   3.482  0.00  0.00    +0.038 C 
ATOM     10  C   UNL     1     -37.582  24.556   3.670  0.00  0.00    +0.075 C 
ATOM     11  C   UNL     1     -37.229  23.230   3.396  0.00  0.00    +0.142 C 
ATOM     12  C   UNL     1     -35.129  22.384   6.131  0.00  0.00    +0.076 C 
ATOM     13  C   UNL     1     -38.650  25.143   2.982  0.00  0.00    +0.138 C 
ATOM     14  C   UNL     1     -37.939  22.490   2.451  0.00  0.00    +0.040 C 
ATOM     15  C   UNL     1     -39.366  24.402   2.034  0.00  0.00    +0.076 C 
ATOM     16  C   UNL     1     -39.012  23.077   1.770  0.00  0.00    +0.048 C 
ATOM     17  C   UNL     1     -40.494  25.033   1.318  0.00  0.00    +0.202 C 
ATOM     18  C   UNL     1     -39.760  22.287   0.770  0.00  0.00    +0.196 C 
ATOM     19  C   UNL     1     -41.243  24.242   0.320  0.00  0.00    +0.076 C 
ATOM     20  C   UNL     1     -40.890  22.917   0.057  0.00  0.00    +0.048 C 
ATOM     21  C   UNL     1     -42.316  24.827  -0.363  0.00  0.00    +0.140 C 
ATOM     22  C   UNL     1     -41.608  22.178  -0.891  0.00  0.00    +0.040 C 
ATOM     23  C   UNL     1     -42.676  22.766  -1.569  0.00  0.00    +0.137 C 
ATOM     24  C   UNL     1     -43.030  24.087  -1.306  0.00  0.00    +0.073 C 
ENDROOT
BRANCH   7  25
ATOM     25  O   UNL     1     -34.995  26.903   5.046  0.00  0.00    -0.382 OA
ATOM     26  H   UNL     1     -35.510  27.718   5.158  0.00  0.00    +0.210 HD
ENDBRANCH   7  25
BRANCH  13  27
ATOM     27  O   UNL     1     -38.956  26.444   3.260  0.00  0.00    -0.506 OA
ATOM     28  H   UNL     1     -39.070  27.057   2.560  0.00  0.00    +0.292 HD
ENDBRANCH  13  27
BRANCH  21  29
ATOM     29  O   UNL     1     -42.716  26.115  -0.155  0.00  0.00    -0.505 OA
ATOM     30  H   UNL     1     -43.563  26.290   0.206  0.00  0.00    +0.292 HD
ENDBRANCH  21  29
BRANCH  23  31
ATOM     31  O   UNL     1     -43.374  22.046  -2.490  0.00  0.00    -0.505 OA
ATOM     32  H   UNL     1     -44.303  22.147  -2.558  0.00  0.00    +0.292 HD
ENDBRANCH  23  31
TORSDOF 4
ENDMDL
MODEL 3
REMARK VINA RESULT:      -6.9      1.336      1.686
REMARK  Name = 50937035
REMARK  4 active torsions:
REMARK  status: ('A' for Active; 'I' for Inactive)
REMARK    1  A    between atoms: C_7  and  O_25
REMARK    2  A    between atoms: C_13  and  O_27
REMARK    3  A    between atoms: C_21  and  O_29
REMARK    4  A    between atoms: C_23  and  O_31
REMARK                            x       y       z     vdW  Elec       q    Type
REMARK                         _______ _______ _______ _____ _____    ______ ____
ROOT
ATOM      1  O   UNL     1     -37.625  22.957   3.375  0.00  0.00    -0.320 OA
ATOM      2  O   UNL     1     -37.072  24.542   1.631  0.00  0.00    -0.459 OA
ATOM      3  O   UNL     1     -32.973  26.250   6.179  0.00  0.00    -0.286 OA
ATOM      4  O   UNL     1     -34.607  28.885   1.827  0.00  0.00    -0.287 OA
ATOM      5  C   UNL     1     -37.610  23.248   1.972  0.00  0.00    +0.229 C 
ATOM      6  C   UNL     1     -36.302  22.997   3.919  0.00  0.00    +0.173 C 
ATOM      7  C   UNL     1     -35.431  21.896   3.299  0.00  0.00    +0.142 C 
ATOM      8  C   UNL     1     -36.856  22.135   1.222  0.00  0.00    +0.072 C 
ATOM      9  C   UNL     1     -35.442  21.935   1.768  0.00  0.00    +0.038 C 
ATOM     10  C   UNL     1     -35.762  24.375   3.669  0.00  0.00    +0.075 C 
ATOM     11  C   UNL     1     -36.181  25.069   2.529  0.00  0.00    +0.142 C 
ATOM     12  C   UNL     1     -39.070  23.271   1.517  0.00  0.00    +0.076 C 
ATOM     13  C   UNL     1     -34.831  24.963   4.532  0.00  0.00    +0.138 C 
ATOM     14  C   UNL     1     -35.683  26.342   2.253  0.00  0.00    +0.040 C 
ATOM     15  C   UNL     1     -34.331  26.242   4.260  0.00  0.00    +0.076 C 
ATOM     16  C   UNL     1     -34.757  26.931   3.123  0.00  0.00    +0.048 C 
ATOM     17  C   UNL     1     -33.351  26.852   5.183  0.00  0.00    +0.202 C 
ATOM     18  C   UNL     1     -34.235  28.281   2.825  0.00  0.00    +0.196 C 
ATOM     19  C   UNL     1     -32.830  28.203   4.887  0.00  0.00    +0.076 C 
ATOM     20  C   UNL     1     -33.257  28.892   3.750  0.00  0.00    +0.048 C 
ATOM     21  C   UNL     1     -31.904  28.793   5.754  0.00  0.00    +0.140 C 
ATOM     22  C   UNL     1     -32.757  30.172   3.480  0.00  0.00    +0.040 C 
ATOM     23  C   UNL     1     -31.833  30.755   4.348  0.00  0.00    +0.137 C 
ATOM     24  C   UNL     1     -31.408  30.068   5.483  0.00  0.00    +0.073 C 
ENDROOT
BRANCH   7  25
ATOM     25  O   UNL     1     -35.937  20.625   3.711  0.00  0.00    -0.382 OA
ATOM     26  H   UNL     1     -36.200  20.668   4.644  0.00  0.00    +0.210 HD
ENDBRANCH   7  25
BRANCH  13  27
ATOM     27  O   UNL     1     -34.430  24.251   5.626  0.00  0.00    -0.506 OA
ATOM     28  H   UNL     1     -33.522  24.215   5.854  0.00  0.00    +0.292 HD
ENDBRANCH  13  27
BRANCH  21  29
ATOM     29  O   UNL     1     -31.445  28.178   6.882  0.00  0.00    -0.505 OA
ATOM     30  H   UNL     1     -31.775  28.431   7.721  0.00  0.00    +0.292 HD
ENDBRANCH  21  29
BRANCH  23  31
ATOM     31  O   UNL     1     -31.348  32.000   4.085  0.00  0.00    -0.505 OA
ATOM     32  H   UNL     1     -30.687  32.371   4.635  0.00  0.00    +0.292 HD
ENDBRANCH  23  31
TORSDOF 4
ENDMDL
MODEL 4
REMARK VINA RESULT:      -6.9     12.422     14.447
REMARK  Name = 50937035
REMARK  4 active torsions:
REMARK  status: ('A' for Active; 'I' for Inactive)
REMARK    1  A    between atoms: C_7  and  O_25
REMARK    2  A    between atoms: C_13  and  O_27
REMARK    3  A    between atoms: C_21  and  O_29
REMARK    4  A    between atoms: C_23  and  O_31
REMARK                            x       y       z     vdW  Elec       q    Type
REMARK                         _______ _______ _______ _____ _____    ______ ____
ROOT
ATOM      1  O   UNL     1     -40.977  33.952   1.262  0.00  0.00    -0.320 OA
ATOM      2  O   UNL     1     -39.063  34.642  -0.050  0.00  0.00    -0.459 OA
ATOM      3  O   UNL     1     -43.330  39.056  -1.699  0.00  0.00    -0.286 OA
ATOM      4  O   UNL     1     -38.748  37.626  -4.047  0.00  0.00    -0.287 OA
ATOM      5  C   UNL     1     -39.551  33.960   1.123  0.00  0.00    +0.229 C 
ATOM      6  C   UNL     1     -41.490  35.286   1.331  0.00  0.00    +0.173 C 
ATOM      7  C   UNL     1     -40.978  35.996   2.591  0.00  0.00    +0.142 C 
ATOM      8  C   UNL     1     -38.912  34.548   2.394  0.00  0.00    +0.072 C 
ATOM      9  C   UNL     1     -39.452  35.944   2.711  0.00  0.00    +0.038 C 
ATOM     10  C   UNL     1     -41.085  35.984   0.065  0.00  0.00    +0.075 C 
ATOM     11  C   UNL     1     -39.883  35.618  -0.553  0.00  0.00    +0.142 C 
ATOM     12  C   UNL     1     -39.121  32.500   0.965  0.00  0.00    +0.076 C 
ATOM     13  C   UNL     1     -41.864  37.005  -0.489  0.00  0.00    +0.138 C 
ATOM     14  C   UNL     1     -39.464  36.260  -1.718  0.00  0.00    +0.040 C 
ATOM     15  C   UNL     1     -41.447  37.650  -1.660  0.00  0.00    +0.076 C 
ATOM     16  C   UNL     1     -40.249  37.277  -2.274  0.00  0.00    +0.048 C 
ATOM     17  C   UNL     1     -42.282  38.725  -2.236  0.00  0.00    +0.202 C 
ATOM     18  C   UNL     1     -39.799  37.952  -3.509  0.00  0.00    +0.196 C 
ATOM     19  C   UNL     1     -41.832  39.398  -3.472  0.00  0.00    +0.076 C 
ATOM     20  C   UNL     1     -40.636  39.024  -4.086  0.00  0.00    +0.048 C 
ATOM     21  C   UNL     1     -42.615  40.415  -4.029  0.00  0.00    +0.140 C 
ATOM     22  C   UNL     1     -40.221  39.670  -5.258  0.00  0.00    +0.040 C 
ATOM     23  C   UNL     1     -41.005  40.684  -5.809  0.00  0.00    +0.137 C 
ATOM     24  C   UNL     1     -42.199  41.056  -5.197  0.00  0.00    +0.073 C 
ENDROOT
BRANCH   7  25
ATOM     25  O   UNL     1     -41.533  35.351   3.738  0.00  0.00    -0.382 OA
ATOM     26  H   UNL     1     -41.979  36.008   4.295  0.00  0.00    +0.210 HD
ENDBRANCH   7  25
BRANCH  13  27
ATOM     27  O   UNL     1     -43.020  37.349   0.149  0.00  0.00    -0.506 OA
ATOM     28  H   UNL     1     -43.736  37.706  -0.339  0.00  0.00    +0.292 HD
ENDBRANCH  13  27
BRANCH  21  29
ATOM     29  O   UNL     1     -43.794  40.831  -3.483  0.00  0.00    -0.505 OA
ATOM     30  H   UNL     1     -44.387  41.353  -3.988  0.00  0.00    +0.292 HD
ENDBRANCH  21  29
BRANCH  23  31
ATOM     31  O   UNL     1     -40.601  41.310  -6.949  0.00  0.00    -0.505 OA
ATOM     32  H   UNL     1     -39.716  41.602  -7.035  0.00  0.00    +0.292 HD
ENDBRANCH  23  31
TORSDOF 4
ENDMDL
MODEL 5
REMARK VINA RESULT:      -6.9      4.566      9.974
REMARK  Name = 50937035
REMARK  4 active torsions:
REMARK  status: ('A' for Active; 'I' for Inactive)
REMARK    1  A    between atoms: C_7  and  O_25
REMARK    2  A    between atoms: C_13  and  O_27
REMARK    3  A    between atoms: C_21  and  O_29
REMARK    4  A    between atoms: C_23  and  O_31
REMARK                            x       y       z     vdW  Elec       q    Type
REMARK                         _______ _______ _______ _____ _____    ______ ____
ROOT
ATOM      1  O   UNL     1     -37.432  24.702   4.486  0.00  0.00    -0.320 OA
ATOM      2  O   UNL     1     -35.324  23.849   3.658  0.00  0.00    -0.459 OA
ATOM      3  O   UNL     1     -39.453  20.401   0.271  0.00  0.00    -0.286 OA
ATOM      4  O   UNL     1     -34.246  19.634   1.197  0.00  0.00    -0.287 OA
ATOM      5  C   UNL     1     -36.040  24.948   4.257  0.00  0.00    +0.229 C 
ATOM      6  C   UNL     1     -38.107  24.405   3.261  0.00  0.00    +0.173 C 
ATOM      7  C   UNL     1     -38.074  25.617   2.319  0.00  0.00    +0.142 C 
ATOM      8  C   UNL     1     -35.874  26.225   3.412  0.00  0.00    +0.072 C 
ATOM      9  C   UNL     1     -36.654  26.145   2.099  0.00  0.00    +0.038 C 
ATOM     10  C   UNL     1     -37.444  23.193   2.672  0.00  0.00    +0.075 C 
ATOM     11  C   UNL     1     -36.080  22.989   2.905  0.00  0.00    +0.142 C 
ATOM     12  C   UNL     1     -35.403  25.161   5.631  0.00  0.00    +0.076 C 
ATOM     13  C   UNL     1     -38.152  22.287   1.875  0.00  0.00    +0.138 C 
ATOM     14  C   UNL     1     -35.427  21.886   2.356  0.00  0.00    +0.040 C 
ATOM     15  C   UNL     1     -37.500  21.177   1.324  0.00  0.00    +0.076 C 
ATOM     16  C   UNL     1     -36.139  20.976   1.565  0.00  0.00    +0.048 C 
ATOM     17  C   UNL     1     -38.261  20.227   0.487  0.00  0.00    +0.202 C 
ATOM     18  C   UNL     1     -35.440  19.810   0.987  0.00  0.00    +0.196 C 
ATOM     19  C   UNL     1     -37.563  19.059  -0.089  0.00  0.00    +0.076 C 
ATOM     20  C   UNL     1     -36.202  18.858   0.153  0.00  0.00    +0.048 C 
ATOM     21  C   UNL     1     -38.273  18.149  -0.881  0.00  0.00    +0.140 C 
ATOM     22  C   UNL     1     -35.552  17.747  -0.398  0.00  0.00    +0.040 C 
ATOM     23  C   UNL     1     -36.264  16.843  -1.187  0.00  0.00    +0.137 C 
ATOM     24  C   UNL     1     -37.622  17.044  -1.428  0.00  0.00    +0.073 C 
ENDROOT
BRANCH   7  25
ATOM     25  O   UNL     1     -38.850  26.667   2.898  0.00  0.00    -0.382 OA
ATOM     26  H   UNL     1     -39.399  26.308   3.613  0.00  0.00    +0.210 HD
ENDBRANCH   7  25
BRANCH  13  27
ATOM     27  O   UNL     1     -39.478  22.526   1.652  0.00  0.00    -0.506 OA
ATOM     28  H   UNL     1     -40.127  22.062   2.145  0.00  0.00    +0.292 HD
ENDBRANCH  13  27
BRANCH  21  29
ATOM     29  O   UNL     1     -39.602  18.284  -1.158  0.00  0.00    -0.505 OA
ATOM     30  H   UNL     1     -39.898  18.989  -1.699  0.00  0.00    +0.292 HD
ENDBRANCH  21  29
BRANCH  23  31
ATOM     31  O   UNL     1     -35.631  15.763  -1.721  0.00  0.00    -0.505 OA
ATOM     32  H   UNL     1     -35.817  15.498  -2.600  0.00  0.00    +0.292 HD
ENDBRANCH  23  31
TORSDOF 4
ENDMDL
MODEL 6
REMARK VINA RESULT:      -6.8      1.983      8.173
REMARK  Name = 50937035
REMARK  4 active torsions:
REMARK  status: ('A' for Active; 'I' for Inactive)
REMARK    1  A    between atoms: C_7  and  O_25
REMARK    2  A    between atoms: C_13  and  O_27
REMARK    3  A    between atoms: C_21  and  O_29
REMARK    4  A    between atoms: C_23  and  O_31
REMARK                            x       y       z     vdW  Elec       q    Type
REMARK                         _______ _______ _______ _____ _____    ______ ____
ROOT
ATOM      1  O   UNL     1     -33.133  29.204   4.481  0.00  0.00    -0.320 OA
ATOM      2  O   UNL     1     -32.734  26.817   4.532  0.00  0.00    -0.459 OA
ATOM      3  O   UNL     1     -38.243  27.070   1.370  0.00  0.00    -0.286 OA
ATOM      4  O   UNL     1     -35.847  22.971   3.822  0.00  0.00    -0.287 OA
ATOM      5  C   UNL     1     -32.172  28.144   4.564  0.00  0.00    +0.229 C 
ATOM      6  C   UNL     1     -33.886  29.117   3.268  0.00  0.00    +0.173 C 
ATOM      7  C   UNL     1     -32.973  29.320   2.051  0.00  0.00    +0.142 C 
ATOM      8  C   UNL     1     -31.122  28.312   3.451  0.00  0.00    +0.072 C 
ATOM      9  C   UNL     1     -31.764  28.379   2.065  0.00  0.00    +0.038 C 
ATOM     10  C   UNL     1     -34.569  27.780   3.266  0.00  0.00    +0.075 C 
ATOM     11  C   UNL     1     -33.945  26.701   3.901  0.00  0.00    +0.142 C 
ATOM     12  C   UNL     1     -31.494  28.277   5.929  0.00  0.00    +0.076 C 
ATOM     13  C   UNL     1     -35.795  27.587   2.619  0.00  0.00    +0.138 C 
ATOM     14  C   UNL     1     -34.541  25.439   3.899  0.00  0.00    +0.040 C 
ATOM     15  C   UNL     1     -36.397  26.322   2.618  0.00  0.00    +0.076 C 
ATOM     16  C   UNL     1     -35.771  25.251   3.258  0.00  0.00    +0.048 C 
ATOM     17  C   UNL     1     -37.693  26.134   1.935  0.00  0.00    +0.202 C 
ATOM     18  C   UNL     1     -36.396  23.912   3.262  0.00  0.00    +0.196 C 
ATOM     19  C   UNL     1     -38.319  24.795   1.940  0.00  0.00    +0.076 C 
ATOM     20  C   UNL     1     -37.694  23.724   2.581  0.00  0.00    +0.048 C 
ATOM     21  C   UNL     1     -39.549  24.604   1.299  0.00  0.00    +0.140 C 
ATOM     22  C   UNL     1     -38.298  22.461   2.579  0.00  0.00    +0.040 C 
ATOM     23  C   UNL     1     -39.523  22.275   1.939  0.00  0.00    +0.137 C 
ATOM     24  C   UNL     1     -40.147  23.344   1.300  0.00  0.00    +0.073 C 
ENDROOT
BRANCH   7  25
ATOM     25  O   UNL     1     -32.487  30.663   2.062  0.00  0.00    -0.382 OA
ATOM     26  H   UNL     1     -31.571  30.673   2.382  0.00  0.00    +0.210 HD
ENDBRANCH   7  25
BRANCH  13  27
ATOM     27  O   UNL     1     -36.367  28.657   1.994  0.00  0.00    -0.506 OA
ATOM     28  H   UNL     1     -37.298  28.769   2.016  0.00  0.00    +0.292 HD
ENDBRANCH  13  27
BRANCH  21  29
ATOM     29  O   UNL     1     -40.215  25.605   0.655  0.00  0.00    -0.505 OA
ATOM     30  H   UNL     1     -40.090  26.496   0.917  0.00  0.00    +0.292 HD
ENDBRANCH  21  29
BRANCH  23  31
ATOM     31  O   UNL     1     -40.110  21.047   1.939  0.00  0.00    -0.505 OA
ATOM     32  H   UNL     1     -41.038  20.970   2.038  0.00  0.00    +0.292 HD
ENDBRANCH  23  31
TORSDOF 4
ENDMDL
MODEL 7
REMARK VINA RESULT:      -6.7      6.478      8.023
REMARK  Name = 50937035
REMARK  4 active torsions:
REMARK  status: ('A' for Active; 'I' for Inactive)
REMARK    1  A    between atoms: C_7  and  O_25
REMARK    2  A    between atoms: C_13  and  O_27
REMARK    3  A    between atoms: C_21  and  O_29
REMARK    4  A    between atoms: C_23  and  O_31
REMARK                            x       y       z     vdW  Elec       q    Type
REMARK                         _______ _______ _______ _____ _____    ______ ____
ROOT
ATOM      1  O   UNL     1     -38.206  23.194   2.683  0.00  0.00    -0.320 OA
ATOM      2  O   UNL     1     -36.993  24.150   0.819  0.00  0.00    -0.459 OA
ATOM      3  O   UNL     1     -33.764  18.753   1.739  0.00  0.00    -0.286 OA
ATOM      4  O   UNL     1     -32.423  23.171  -0.950  0.00  0.00    -0.287 OA
ATOM      5  C   UNL     1     -38.238  24.059   1.541  0.00  0.00    +0.229 C 
ATOM      6  C   UNL     1     -37.865  21.858   2.302  0.00  0.00    +0.173 C 
ATOM      7  C   UNL     1     -38.948  21.264   1.391  0.00  0.00    +0.142 C 
ATOM      8  C   UNL     1     -39.378  23.629   0.600  0.00  0.00    +0.072 C 
ATOM      9  C   UNL     1     -39.255  22.161   0.188  0.00  0.00    +0.038 C 
ATOM     10  C   UNL     1     -36.517  21.916   1.642  0.00  0.00    +0.075 C 
ATOM     11  C   UNL     1     -36.161  23.067   0.932  0.00  0.00    +0.142 C 
ATOM     12  C   UNL     1     -38.517  25.467   2.070  0.00  0.00    +0.076 C 
ATOM     13  C   UNL     1     -35.629  20.836   1.698  0.00  0.00    +0.138 C 
ATOM     14  C   UNL     1     -34.927  23.147   0.288  0.00  0.00    +0.040 C 
ATOM     15  C   UNL     1     -34.388  20.914   1.055  0.00  0.00    +0.076 C 
ATOM     16  C   UNL     1     -34.037  22.068   0.352  0.00  0.00    +0.048 C 
ATOM     17  C   UNL     1     -33.458  19.767   1.126  0.00  0.00    +0.202 C 
ATOM     18  C   UNL     1     -32.730  22.160  -0.332  0.00  0.00    +0.196 C 
ATOM     19  C   UNL     1     -32.151  19.860   0.444  0.00  0.00    +0.076 C 
ATOM     20  C   UNL     1     -31.800  21.015  -0.258  0.00  0.00    +0.048 C 
ATOM     21  C   UNL     1     -31.260  18.782   0.506  0.00  0.00    +0.140 C 
ATOM     22  C   UNL     1     -30.557  21.090  -0.900  0.00  0.00    +0.040 C 
ATOM     23  C   UNL     1     -29.673  20.013  -0.836  0.00  0.00    +0.137 C 
ATOM     24  C   UNL     1     -30.023  18.862  -0.134  0.00  0.00    +0.073 C 
ENDROOT
BRANCH   7  25
ATOM     25  O   UNL     1     -40.150  21.113   2.147  0.00  0.00    -0.382 OA
ATOM     26  H   UNL     1     -39.962  21.264   3.087  0.00  0.00    +0.210 HD
ENDBRANCH   7  25
BRANCH  13  27
ATOM     27  O   UNL     1     -36.016  19.721   2.385  0.00  0.00    -0.506 OA
ATOM     28  H   UNL     1     -36.821  19.722   2.865  0.00  0.00    +0.292 HD
ENDBRANCH  13  27
BRANCH  21  29
ATOM     29  O   UNL     1     -31.538  17.626   1.174  0.00  0.00    -0.505 OA
ATOM     30  H   UNL     1     -32.199  17.046   0.851  0.00  0.00    +0.292 HD
ENDBRANCH  21  29
BRANCH  23  31
ATOM     31  O   UNL     1     -28.465  20.089  -1.460  0.00  0.00    -0.505 OA
ATOM     32  H   UNL     1     -28.391  20.521  -2.287  0.00  0.00    +0.292 HD
ENDBRANCH  23  31
TORSDOF 4
ENDMDL
MODEL 8
REMARK VINA RESULT:      -6.7      1.521      7.278
REMARK  Name = 50937035
REMARK  4 active torsions:
REMARK  status: ('A' for Active; 'I' for Inactive)
REMARK    1  A    between atoms: C_7  and  O_25
REMARK    2  A    between atoms: C_13  and  O_27
REMARK    3  A    between atoms: C_21  and  O_29
REMARK    4  A    between atoms: C_23  and  O_31
REMARK                            x       y       z     vdW  Elec       q    Type
REMARK                         _______ _______ _______ _____ _____    ______ ____
ROOT
ATOM      1  O   UNL     1     -30.287  29.188   4.486  0.00  0.00    -0.320 OA
ATOM      2  O   UNL     1     -32.033  30.323   3.253  0.00  0.00    -0.459 OA
ATOM      3  O   UNL     1     -35.010  24.964   4.933  0.00  0.00    -0.286 OA
ATOM      4  O   UNL     1     -36.241  28.579   1.196  0.00  0.00    -0.287 OA
ATOM      5  C   UNL     1     -30.831  30.436   4.040  0.00  0.00    +0.229 C 
ATOM      6  C   UNL     1     -31.231  28.480   5.295  0.00  0.00    +0.173 C 
ATOM      7  C   UNL     1     -31.528  29.260   6.583  0.00  0.00    +0.142 C 
ATOM      8  C   UNL     1     -31.062  31.359   5.250  0.00  0.00    +0.072 C 
ATOM      9  C   UNL     1     -31.955  30.704   6.305  0.00  0.00    +0.038 C 
ATOM     10  C   UNL     1     -32.455  28.255   4.455  0.00  0.00    +0.075 C 
ATOM     11  C   UNL     1     -32.787  29.201   3.478  0.00  0.00    +0.142 C 
ATOM     12  C   UNL     1     -29.784  31.061   3.115  0.00  0.00    +0.076 C 
ATOM     13  C   UNL     1     -33.281  27.143   4.650  0.00  0.00    +0.138 C 
ATOM     14  C   UNL     1     -33.929  29.036   2.695  0.00  0.00    +0.040 C 
ATOM     15  C   UNL     1     -34.427  26.973   3.863  0.00  0.00    +0.076 C 
ATOM     16  C   UNL     1     -34.749  27.918   2.886  0.00  0.00    +0.048 C 
ATOM     17  C   UNL     1     -35.288  25.792   4.076  0.00  0.00    +0.202 C 
ATOM     18  C   UNL     1     -35.957  27.750   2.051  0.00  0.00    +0.196 C 
ATOM     19  C   UNL     1     -36.494  25.623   3.240  0.00  0.00    +0.076 C 
ATOM     20  C   UNL     1     -36.816  26.566   2.263  0.00  0.00    +0.048 C 
ATOM     21  C   UNL     1     -37.317  24.506   3.430  0.00  0.00    +0.140 C 
ATOM     22  C   UNL     1     -37.962  26.394   1.477  0.00  0.00    +0.040 C 
ATOM     23  C   UNL     1     -38.779  25.280   1.670  0.00  0.00    +0.137 C 
ATOM     24  C   UNL     1     -38.457  24.338   2.645  0.00  0.00    +0.073 C 
ENDROOT
BRANCH   7  25
ATOM     25  O   UNL     1     -30.344  29.295   7.381  0.00  0.00    -0.382 OA
ATOM     26  H   UNL     1     -30.186  30.203   7.685  0.00  0.00    +0.210 HD
ENDBRANCH   7  25
BRANCH  13  27
ATOM     27  O   UNL     1     -32.938  26.250   5.623  0.00  0.00    -0.506 OA
ATOM     28  H   UNL     1     -32.036  26.032   5.762  0.00  0.00    +0.292 HD
ENDBRANCH  13  27
BRANCH  21  29
ATOM     29  O   UNL     1     -37.063  23.546   4.365  0.00  0.00    -0.505 OA
ATOM     30  H   UNL     1     -36.845  23.792   5.243  0.00  0.00    +0.292 HD
ENDBRANCH  21  29
BRANCH  23  31
ATOM     31  O   UNL     1     -39.892  25.114   0.905  0.00  0.00    -0.505 OA
ATOM     32  H   UNL     1     -40.741  25.137   1.300  0.00  0.00    +0.292 HD
ENDBRANCH  23  31
TORSDOF 4
ENDMDL
MODEL 9
REMARK VINA RESULT:      -6.6      4.788      7.936
REMARK  Name = 50937035
REMARK  4 active torsions:
REMARK  status: ('A' for Active; 'I' for Inactive)
REMARK    1  A    between atoms: C_7  and  O_25
REMARK    2  A    between atoms: C_13  and  O_27
REMARK    3  A    between atoms: C_21  and  O_29
REMARK    4  A    between atoms: C_23  and  O_31
REMARK                            x       y       z     vdW  Elec       q    Type
REMARK                         _______ _______ _______ _____ _____    ______ ____
ROOT
ATOM      1  O   UNL     1     -39.416  18.427  -1.124  0.00  0.00    -0.320 OA
ATOM      2  O   UNL     1     -39.789  20.803  -1.395  0.00  0.00    -0.459 OA
ATOM      3  O   UNL     1     -35.608  20.760   3.392  0.00  0.00    -0.286 OA
ATOM      4  O   UNL     1     -38.887  24.624   1.698  0.00  0.00    -0.287 OA
ATOM      5  C   UNL     1     -39.793  19.494  -2.001  0.00  0.00    +0.229 C 
ATOM      6  C   UNL     1     -38.095  18.628  -0.613  0.00  0.00    +0.173 C 
ATOM      7  C   UNL     1     -37.064  18.583  -1.749  0.00  0.00    +0.142 C 
ATOM      8  C   UNL     1     -38.894  19.477  -3.251  0.00  0.00    +0.072 C 
ATOM      9  C   UNL     1     -37.410  19.546  -2.889  0.00  0.00    +0.038 C 
ATOM     10  C   UNL     1     -38.097  19.939   0.119  0.00  0.00    +0.075 C 
ATOM     11  C   UNL     1     -38.949  20.957  -0.323  0.00  0.00    +0.142 C 
ATOM     12  C   UNL     1     -41.242  19.229  -2.412  0.00  0.00    +0.076 C 
ATOM     13  C   UNL     1     -37.249  20.171   1.206  0.00  0.00    +0.138 C 
ATOM     14  C   UNL     1     -38.962  22.196   0.319  0.00  0.00    +0.040 C 
ATOM     15  C   UNL     1     -37.261  21.413   1.854  0.00  0.00    +0.076 C 
ATOM     16  C   UNL     1     -38.117  22.423   1.412  0.00  0.00    +0.048 C 
ATOM     17  C   UNL     1     -36.362  21.642   3.004  0.00  0.00    +0.202 C 
ATOM     18  C   UNL     1     -38.138  23.737   2.087  0.00  0.00    +0.196 C 
ATOM     19  C   UNL     1     -36.383  22.956   3.680  0.00  0.00    +0.076 C 
ATOM     20  C   UNL     1     -37.240  23.965   3.238  0.00  0.00    +0.048 C 
ATOM     21  C   UNL     1     -35.539  23.186   4.772  0.00  0.00    +0.140 C 
ATOM     22  C   UNL     1     -37.252  25.206   3.888  0.00  0.00    +0.040 C 
ATOM     23  C   UNL     1     -36.408  25.430   4.976  0.00  0.00    +0.137 C 
ATOM     24  C   UNL     1     -35.553  24.422   5.417  0.00  0.00    +0.073 C 
ENDROOT
BRANCH   7  25
ATOM     25  O   UNL     1     -37.031  17.259  -2.285  0.00  0.00    -0.382 OA
ATOM     26  H   UNL     1     -36.121  16.925  -2.265  0.00  0.00    +0.210 HD
ENDBRANCH   7  25
BRANCH  13  27
ATOM     27  O   UNL     1     -36.417  19.162   1.599  0.00  0.00    -0.506 OA
ATOM     28  H   UNL     1     -36.499  18.796   2.458  0.00  0.00    +0.292 HD
ENDBRANCH  13  27
BRANCH  21  29
ATOM     29  O   UNL     1     -34.677  22.245   5.257  0.00  0.00    -0.505 OA
ATOM     30  H   UNL     1     -34.368  21.560   4.697  0.00  0.00    +0.292 HD
ENDBRANCH  21  29
BRANCH  23  31
ATOM     31  O   UNL     1     -36.420  26.636   5.608  0.00  0.00    -0.505 OA
ATOM     32  H   UNL     1     -35.619  27.017   5.908  0.00  0.00    +0.292 HD
ENDBRANCH  23  31
TORSDOF 4
ENDMDL
