MODEL 1
REMARK VINA RESULT:      -6.6      0.000      0.000
REMARK  Name = 5282250
REMARK  6 active torsions:
REMARK  status: ('A' for Active; 'I' for Inactive)
REMARK    1  A    between atoms: C_1  and  C_16
REMARK    2  A    between atoms: C_2  and  S_12
REMARK    3  A    between atoms: C_4  and  N_8
REMARK    4  A    between atoms: C_17  and  C_18
REMARK    5  A    between atoms: C_19  and  S_24
REMARK    6  A    between atoms: C_22  and  N_29
REMARK                            x       y       z     vdW  Elec       q    Type
REMARK                         _______ _______ _______ _____ _____    ______ ____
ROOT
ATOM      1  C   UNL     1     -35.074  25.914   4.280  0.00  0.00    +0.018 C 
ATOM      2  C   UNL     1     -34.325  26.817   3.541  0.00  0.00    +0.114 C 
ATOM      3  C   UNL     1     -33.270  27.494   4.153  0.00  0.00    +0.034 C 
ATOM      4  C   UNL     1     -32.976  27.260   5.496  0.00  0.00    +0.052 C 
ATOM      5  C   UNL     1     -34.793  25.671   5.617  0.00  0.00    +0.003 C 
ATOM      6  C   UNL     1     -33.737  26.349   6.228  0.00  0.00    +0.015 C 
ENDROOT
BRANCH   4   8
ATOM      7  O   UNL     1     -32.441  30.210   5.768  0.00  0.00    -0.275 OA
ATOM      8  N   UNL     1     -31.919  27.936   6.107  0.00  0.00    -0.284 N 
ATOM      9  C   UNL     1     -31.719  29.320   6.204  0.00  0.00    +0.227 C 
ATOM     10  C   UNL     1     -30.448  29.650   6.946  0.00  0.00    +0.095 C 
ATOM     11  H   UNL     1     -31.229  27.371   6.521  0.00  0.00    +0.155 HD
ENDBRANCH   4   8
BRANCH   2  12
ATOM     12  S   UNL     1     -34.654  27.147   1.852  0.00  0.00    +0.042 S 
ATOM     13  O   UNL     1     -33.544  28.261   1.414  0.00  0.00    -0.065 OA
ATOM     14  O   UNL     1     -34.367  25.936   1.100  0.00  0.00    -0.065 OA
ATOM     15  O   UNL     1     -35.967  27.766   1.795  0.00  0.00    -0.065 OA
ENDBRANCH   2  12
BRANCH   1  16
ATOM     16  C   UNL     1     -36.198  25.177   3.676  0.00  0.00    +0.001 C 
ATOM     17  C   UNL     1     -36.175  23.869   3.332  0.00  0.00    +0.001 C 
BRANCH  17  18
ATOM     18  C   UNL     1     -37.292  23.135   2.752  0.00  0.00    +0.018 C 
ATOM     19  C   UNL     1     -37.135  21.855   2.221  0.00  0.00    +0.114 C 
ATOM     20  C   UNL     1     -38.545  23.747   2.736  0.00  0.00    +0.003 C 
ATOM     21  C   UNL     1     -38.231  21.187   1.674  0.00  0.00    +0.039 C 
ATOM     22  C   UNL     1     -39.483  21.799   1.659  0.00  0.00    +0.092 C 
ATOM     23  C   UNL     1     -39.641  23.080   2.190  0.00  0.00    +0.020 C 
BRANCH  19  24
ATOM     24  S   UNL     1     -35.581  21.042   2.216  0.00  0.00    +0.042 S 
ATOM     25  O   UNL     1     -35.822  19.676   1.353  0.00  0.00    -0.065 OA
ATOM     26  O   UNL     1     -34.653  21.867   1.461  0.00  0.00    -0.065 OA
ATOM     27  O   UNL     1     -35.301  20.669   3.592  0.00  0.00    -0.065 OA
ENDBRANCH  19  24
BRANCH  22  29
ATOM     28  S   UNL     1     -40.625  21.131  -1.665  0.00  0.00    +0.021 S 
ATOM     29  N   UNL     1     -40.582  21.130   1.109  0.00  0.00    -0.196 NA
ATOM     30  C   UNL     1     -40.590  21.137  -0.071  0.00  0.00    +0.041 C 
ENDBRANCH  22  29
ENDBRANCH  17  18
ENDBRANCH   1  16
TORSDOF 6
ENDMDL
MODEL 2
REMARK VINA RESULT:      -6.5      1.376      1.554
REMARK  Name = 5282250
REMARK  6 active torsions:
REMARK  status: ('A' for Active; 'I' for Inactive)
REMARK    1  A    between atoms: C_1  and  C_16
REMARK    2  A    between atoms: C_2  and  S_12
REMARK    3  A    between atoms: C_4  and  N_8
REMARK    4  A    between atoms: C_17  and  C_18
REMARK    5  A    between atoms: C_19  and  S_24
REMARK    6  A    between atoms: C_22  and  N_29
REMARK                            x       y       z     vdW  Elec       q    Type
REMARK                         _______ _______ _______ _____ _____    ______ ____
ROOT
ATOM      1  C   UNL     1     -34.233  26.583   4.432  0.00  0.00    +0.018 C 
ATOM      2  C   UNL     1     -33.469  27.554   3.804  0.00  0.00    +0.114 C 
ATOM      3  C   UNL     1     -32.460  28.200   4.519  0.00  0.00    +0.034 C 
ATOM      4  C   UNL     1     -32.226  27.865   5.853  0.00  0.00    +0.052 C 
ATOM      5  C   UNL     1     -34.012  26.240   5.757  0.00  0.00    +0.003 C 
ATOM      6  C   UNL     1     -33.003  26.885   6.472  0.00  0.00    +0.015 C 
ENDROOT
BRANCH   4   8
ATOM      7  O   UNL     1     -29.231  27.665   5.617  0.00  0.00    -0.275 OA
ATOM      8  N   UNL     1     -31.216  28.510   6.567  0.00  0.00    -0.284 N 
ATOM      9  C   UNL     1     -29.830  28.378   6.416  0.00  0.00    +0.227 C 
ATOM     10  C   UNL     1     -29.075  29.251   7.387  0.00  0.00    +0.095 C 
ATOM     11  H   UNL     1     -31.516  29.136   7.265  0.00  0.00    +0.155 HD
ENDBRANCH   4   8
BRANCH   2  12
ATOM     12  S   UNL     1     -33.722  28.011   2.131  0.00  0.00    +0.042 S 
ATOM     13  O   UNL     1     -32.598  29.157   1.830  0.00  0.00    -0.065 OA
ATOM     14  O   UNL     1     -33.395  26.861   1.304  0.00  0.00    -0.065 OA
ATOM     15  O   UNL     1     -35.034  28.631   2.061  0.00  0.00    -0.065 OA
ENDBRANCH   2  12
BRANCH   1  16
ATOM     16  C   UNL     1     -35.310  25.876   3.716  0.00  0.00    +0.001 C 
ATOM     17  C   UNL     1     -36.172  24.998   4.278  0.00  0.00    +0.001 C 
BRANCH  17  18
ATOM     18  C   UNL     1     -37.250  24.313   3.576  0.00  0.00    +0.018 C 
ATOM     19  C   UNL     1     -37.104  23.013   3.093  0.00  0.00    +0.114 C 
ATOM     20  C   UNL     1     -38.452  24.996   3.390  0.00  0.00    +0.003 C 
ATOM     21  C   UNL     1     -38.161  22.394   2.425  0.00  0.00    +0.039 C 
ATOM     22  C   UNL     1     -39.362  23.076   2.239  0.00  0.00    +0.092 C 
ATOM     23  C   UNL     1     -39.509  24.377   2.721  0.00  0.00    +0.020 C 
BRANCH  19  24
ATOM     24  S   UNL     1     -35.613  22.113   3.301  0.00  0.00    +0.042 S 
ATOM     25  O   UNL     1     -35.990  20.573   2.907  0.00  0.00    -0.065 OA
ATOM     26  O   UNL     1     -34.667  22.590   2.306  0.00  0.00    -0.065 OA
ATOM     27  O   UNL     1     -35.293  22.157   4.717  0.00  0.00    -0.065 OA
ENDBRANCH  19  24
BRANCH  22  29
ATOM     28  S   UNL     1     -39.618  20.777  -0.490  0.00  0.00    +0.021 S 
ATOM     29  N   UNL     1     -40.422  22.456   1.568  0.00  0.00    -0.196 NA
ATOM     30  C   UNL     1     -40.068  21.745   0.695  0.00  0.00    +0.041 C 
ENDBRANCH  22  29
ENDBRANCH  17  18
ENDBRANCH   1  16
TORSDOF 6
ENDMDL
MODEL 3
REMARK VINA RESULT:      -6.4      4.449      7.000
REMARK  Name = 5282250
REMARK  6 active torsions:
REMARK  status: ('A' for Active; 'I' for Inactive)
REMARK    1  A    between atoms: C_1  and  C_16
REMARK    2  A    between atoms: C_2  and  S_12
REMARK    3  A    between atoms: C_4  and  N_8
REMARK    4  A    between atoms: C_17  and  C_18
REMARK    5  A    between atoms: C_19  and  S_24
REMARK    6  A    between atoms: C_22  and  N_29
REMARK                            x       y       z     vdW  Elec       q    Type
REMARK                         _______ _______ _______ _____ _____    ______ ____
ROOT
ATOM      1  C   UNL     1     -36.692  22.898   2.847  0.00  0.00    +0.018 C 
ATOM      2  C   UNL     1     -36.587  23.960   3.732  0.00  0.00    +0.114 C 
ATOM      3  C   UNL     1     -37.706  24.751   3.989  0.00  0.00    +0.034 C 
ATOM      4  C   UNL     1     -38.918  24.471   3.358  0.00  0.00    +0.052 C 
ATOM      5  C   UNL     1     -37.891  22.608   2.212  0.00  0.00    +0.003 C 
ATOM      6  C   UNL     1     -39.011  23.400   2.469  0.00  0.00    +0.015 C 
ENDROOT
BRANCH   4   8
ATOM      7  O   UNL     1     -40.088  26.769   1.804  0.00  0.00    -0.275 OA
ATOM      8  N   UNL     1     -40.038  25.262   3.616  0.00  0.00    -0.284 N 
ATOM      9  C   UNL     1     -40.539  26.326   2.854  0.00  0.00    +0.227 C 
ATOM     10  C   UNL     1     -41.775  26.926   3.477  0.00  0.00    +0.095 C 
ATOM     11  H   UNL     1     -40.538  25.046   4.436  0.00  0.00    +0.155 HD
ENDBRANCH   4   8
BRANCH   2  12
ATOM     12  S   UNL     1     -35.088  24.353   4.551  0.00  0.00    +0.042 S 
ATOM     13  O   UNL     1     -35.442  25.646   5.483  0.00  0.00    -0.065 OA
ATOM     14  O   UNL     1     -34.770  23.253   5.446  0.00  0.00    -0.065 OA
ATOM     15  O   UNL     1     -34.150  24.774   3.525  0.00  0.00    -0.065 OA
ENDBRANCH   2  12
BRANCH   1  16
ATOM     16  C   UNL     1     -35.535  22.036   2.545  0.00  0.00    +0.001 C 
ATOM     17  C   UNL     1     -35.216  21.565   1.318  0.00  0.00    +0.001 C 
BRANCH  17  18
ATOM     18  C   UNL     1     -34.062  20.728   1.015  0.00  0.00    +0.018 C 
ATOM     19  C   UNL     1     -33.047  21.157   0.160  0.00  0.00    +0.114 C 
ATOM     20  C   UNL     1     -33.991  19.467   1.606  0.00  0.00    +0.003 C 
ATOM     21  C   UNL     1     -31.959  20.324  -0.104  0.00  0.00    +0.039 C 
ATOM     22  C   UNL     1     -31.888  19.063   0.486  0.00  0.00    +0.092 C 
ATOM     23  C   UNL     1     -32.903  18.634   1.342  0.00  0.00    +0.020 C 
BRANCH  19  24
ATOM     24  S   UNL     1     -33.090  22.733  -0.608  0.00  0.00    +0.042 S 
ATOM     25  O   UNL     1     -31.644  22.880  -1.352  0.00  0.00    -0.065 OA
ATOM     26  O   UNL     1     -34.105  22.690  -1.648  0.00  0.00    -0.065 OA
ATOM     27  O   UNL     1     -33.156  23.715   0.460  0.00  0.00    -0.065 OA
ENDBRANCH  19  24
BRANCH  22  29
ATOM     28  S   UNL     1     -28.471  19.589  -0.432  0.00  0.00    +0.021 S 
ATOM     29  N   UNL     1     -30.798  18.227   0.220  0.00  0.00    -0.196 NA
ATOM     30  C   UNL     1     -29.814  18.817  -0.056  0.00  0.00    +0.041 C 
ENDBRANCH  22  29
ENDBRANCH  17  18
ENDBRANCH   1  16
TORSDOF 6
ENDMDL
MODEL 4
REMARK VINA RESULT:      -6.3      1.591      8.941
REMARK  Name = 5282250
REMARK  6 active torsions:
REMARK  status: ('A' for Active; 'I' for Inactive)
REMARK    1  A    between atoms: C_1  and  C_16
REMARK    2  A    between atoms: C_2  and  S_12
REMARK    3  A    between atoms: C_4  and  N_8
REMARK    4  A    between atoms: C_17  and  C_18
REMARK    5  A    between atoms: C_19  and  S_24
REMARK    6  A    between atoms: C_22  and  N_29
REMARK                            x       y       z     vdW  Elec       q    Type
REMARK                         _______ _______ _______ _____ _____    ______ ____
ROOT
ATOM      1  C   UNL     1     -37.381  23.184   2.762  0.00  0.00    +0.018 C 
ATOM      2  C   UNL     1     -37.215  21.936   2.182  0.00  0.00    +0.114 C 
ATOM      3  C   UNL     1     -38.298  21.323   1.553  0.00  0.00    +0.034 C 
ATOM      4  C   UNL     1     -39.536  21.966   1.511  0.00  0.00    +0.052 C 
ATOM      5  C   UNL     1     -38.606  23.835   2.728  0.00  0.00    +0.003 C 
ATOM      6  C   UNL     1     -39.690  23.222   2.099  0.00  0.00    +0.015 C 
ENDROOT
BRANCH   4   8
ATOM      7  O   UNL     1     -40.314  21.882  -1.396  0.00  0.00    -0.275 OA
ATOM      8  N   UNL     1     -40.619  21.353   0.881  0.00  0.00    -0.284 N 
ATOM      9  C   UNL     1     -40.935  21.347  -0.484  0.00  0.00    +0.227 C 
ATOM     10  C   UNL     1     -42.197  20.568  -0.762  0.00  0.00    +0.095 C 
ATOM     11  H   UNL     1     -41.239  20.864   1.469  0.00  0.00    +0.155 HD
ENDBRANCH   4   8
BRANCH   2  12
ATOM     12  S   UNL     1     -35.682  21.087   2.208  0.00  0.00    +0.042 S 
ATOM     13  O   UNL     1     -35.944  19.716   1.361  0.00  0.00    -0.065 OA
ATOM     14  O   UNL     1     -34.723  21.880   1.455  0.00  0.00    -0.065 OA
ATOM     15  O   UNL     1     -35.427  20.726   3.592  0.00  0.00    -0.065 OA
ENDBRANCH   2  12
BRANCH   1  16
ATOM     16  C   UNL     1     -36.265  23.869   3.438  0.00  0.00    +0.001 C 
ATOM     17  C   UNL     1     -36.112  25.210   3.524  0.00  0.00    +0.001 C 
BRANCH  17  18
ATOM     18  C   UNL     1     -35.019  25.888   4.209  0.00  0.00    +0.018 C 
ATOM     19  C   UNL     1     -34.196  26.805   3.554  0.00  0.00    +0.114 C 
ATOM     20  C   UNL     1     -34.806  25.597   5.556  0.00  0.00    +0.003 C 
ATOM     21  C   UNL     1     -33.160  27.431   4.247  0.00  0.00    +0.039 C 
ATOM     22  C   UNL     1     -32.947  27.140   5.594  0.00  0.00    +0.092 C 
ATOM     23  C   UNL     1     -33.769  26.223   6.249  0.00  0.00    +0.020 C 
BRANCH  19  24
ATOM     24  S   UNL     1     -34.423  27.204   1.861  0.00  0.00    +0.042 S 
ATOM     25  O   UNL     1     -33.171  28.185   1.488  0.00  0.00    -0.065 OA
ATOM     26  O   UNL     1     -34.253  25.982   1.092  0.00  0.00    -0.065 OA
ATOM     27  O   UNL     1     -35.650  27.976   1.776  0.00  0.00    -0.065 OA
ENDBRANCH  19  24
BRANCH  22  29
ATOM     28  S   UNL     1     -31.810  30.516   5.924  0.00  0.00    +0.021 S 
ATOM     29  N   UNL     1     -31.906  27.767   6.288  0.00  0.00    -0.196 NA
ATOM     30  C   UNL     1     -31.876  28.935   6.126  0.00  0.00    +0.041 C 
ENDBRANCH  22  29
ENDBRANCH  17  18
ENDBRANCH   1  16
TORSDOF 6
ENDMDL
MODEL 5
REMARK VINA RESULT:      -6.3      2.728      8.835
REMARK  Name = 5282250
REMARK  6 active torsions:
REMARK  status: ('A' for Active; 'I' for Inactive)
REMARK    1  A    between atoms: C_1  and  C_16
REMARK    2  A    between atoms: C_2  and  S_12
REMARK    3  A    between atoms: C_4  and  N_8
REMARK    4  A    between atoms: C_17  and  C_18
REMARK    5  A    between atoms: C_19  and  S_24
REMARK    6  A    between atoms: C_22  and  N_29
REMARK                            x       y       z     vdW  Elec       q    Type
REMARK                         _______ _______ _______ _____ _____    ______ ____
ROOT
ATOM      1  C   UNL     1     -35.868  22.458   2.969  0.00  0.00    +0.018 C 
ATOM      2  C   UNL     1     -37.140  22.589   2.434  0.00  0.00    +0.114 C 
ATOM      3  C   UNL     1     -37.684  21.538   1.696  0.00  0.00    +0.034 C 
ATOM      4  C   UNL     1     -36.950  20.369   1.501  0.00  0.00    +0.052 C 
ATOM      5  C   UNL     1     -35.126  21.301   2.784  0.00  0.00    +0.003 C 
ATOM      6  C   UNL     1     -35.670  20.250   2.045  0.00  0.00    +0.015 C 
ENDROOT
BRANCH   4   8
ATOM      7  O   UNL     1     -36.151  19.239  -1.173  0.00  0.00    -0.275 OA
ATOM      8  N   UNL     1     -37.494  19.317   0.763  0.00  0.00    -0.284 N 
ATOM      9  C   UNL     1     -37.081  18.832  -0.484  0.00  0.00    +0.227 C 
ATOM     10  C   UNL     1     -37.935  17.677  -0.946  0.00  0.00    +0.095 C 
ATOM     11  H   UNL     1     -38.265  18.860   1.170  0.00  0.00    +0.155 HD
ENDBRANCH   4   8
BRANCH   2  12
ATOM     12  S   UNL     1     -38.104  24.037   2.650  0.00  0.00    +0.042 S 
ATOM     13  O   UNL     1     -39.630  23.588   2.281  0.00  0.00    -0.065 OA
ATOM     14  O   UNL     1     -38.086  24.375   4.063  0.00  0.00    -0.065 OA
ATOM     15  O   UNL     1     -37.655  24.990   1.649  0.00  0.00    -0.065 OA
ENDBRANCH   2  12
BRANCH   1  16
ATOM     16  C   UNL     1     -35.254  23.543   3.755  0.00  0.00    +0.001 C 
ATOM     17  C   UNL     1     -34.432  24.495   3.257  0.00  0.00    +0.001 C 
BRANCH  17  18
ATOM     18  C   UNL     1     -33.840  25.580   4.030  0.00  0.00    +0.018 C 
ATOM     19  C   UNL     1     -33.066  26.573   3.430  0.00  0.00    +0.114 C 
ATOM     20  C   UNL     1     -34.064  25.605   5.406  0.00  0.00    +0.003 C 
ATOM     21  C   UNL     1     -32.516  27.593   4.207  0.00  0.00    +0.039 C 
ATOM     22  C   UNL     1     -32.740  27.619   5.583  0.00  0.00    +0.092 C 
ATOM     23  C   UNL     1     -33.514  26.625   6.183  0.00  0.00    +0.020 C 
BRANCH  19  24
ATOM     24  S   UNL     1     -32.754  26.585   1.705  0.00  0.00    +0.042 S 
ATOM     25  O   UNL     1     -31.956  27.983   1.429  0.00  0.00    -0.065 OA
ATOM     26  O   UNL     1     -31.832  25.500   1.414  0.00  0.00    -0.065 OA
ATOM     27  O   UNL     1     -34.048  26.662   1.048  0.00  0.00    -0.065 OA
ENDBRANCH  19  24
BRANCH  22  29
ATOM     28  S   UNL     1     -29.413  28.668   6.375  0.00  0.00    +0.021 S 
ATOM     29  N   UNL     1     -32.187  28.641   6.363  0.00  0.00    -0.196 NA
ATOM     30  C   UNL     1     -31.007  28.642   6.360  0.00  0.00    +0.041 C 
ENDBRANCH  22  29
ENDBRANCH  17  18
ENDBRANCH   1  16
TORSDOF 6
ENDMDL
MODEL 6
REMARK VINA RESULT:      -6.2      5.140      7.496
REMARK  Name = 5282250
REMARK  6 active torsions:
REMARK  status: ('A' for Active; 'I' for Inactive)
REMARK    1  A    between atoms: C_1  and  C_16
REMARK    2  A    between atoms: C_2  and  S_12
REMARK    3  A    between atoms: C_4  and  N_8
REMARK    4  A    between atoms: C_17  and  C_18
REMARK    5  A    between atoms: C_19  and  S_24
REMARK    6  A    between atoms: C_22  and  N_29
REMARK                            x       y       z     vdW  Elec       q    Type
REMARK                         _______ _______ _______ _____ _____    ______ ____
ROOT
ATOM      1  C   UNL     1     -33.307  19.902   0.700  0.00  0.00    +0.018 C 
ATOM      2  C   UNL     1     -32.224  20.384  -0.018  0.00  0.00    +0.114 C 
ATOM      3  C   UNL     1     -31.030  19.663  -0.025  0.00  0.00    +0.034 C 
ATOM      4  C   UNL     1     -30.933  18.468   0.687  0.00  0.00    +0.052 C 
ATOM      5  C   UNL     1     -33.225  18.714   1.413  0.00  0.00    +0.003 C 
ATOM      6  C   UNL     1     -32.031  17.993   1.406  0.00  0.00    +0.015 C 
ENDROOT
BRANCH   4   8
ATOM      7  O   UNL     1     -30.417  15.549   0.160  0.00  0.00    -0.275 OA
ATOM      8  N   UNL     1     -29.739  17.746   0.680  0.00  0.00    -0.284 N 
ATOM      9  C   UNL     1     -29.556  16.380   0.428  0.00  0.00    +0.227 C 
ATOM     10  C   UNL     1     -28.103  15.985   0.517  0.00  0.00    +0.095 C 
ATOM     11  H   UNL     1     -28.924  18.261   0.877  0.00  0.00    +0.155 HD
ENDBRANCH   4   8
BRANCH   2  12
ATOM     12  S   UNL     1     -32.294  21.880  -0.929  0.00  0.00    +0.042 S 
ATOM     13  O   UNL     1     -30.758  22.156  -1.408  0.00  0.00    -0.065 OA
ATOM     14  O   UNL     1     -33.080  21.634  -2.127  0.00  0.00    -0.065 OA
ATOM     15  O   UNL     1     -32.673  22.923   0.009  0.00  0.00    -0.065 OA
ENDBRANCH   2  12
BRANCH   1  16
ATOM     16  C   UNL     1     -34.588  20.631   0.736  0.00  0.00    +0.001 C 
ATOM     17  C   UNL     1     -35.580  20.416   1.630  0.00  0.00    +0.001 C 
BRANCH  17  18
ATOM     18  C   UNL     1     -36.839  21.149   1.678  0.00  0.00    +0.018 C 
ATOM     19  C   UNL     1     -37.047  22.195   2.577  0.00  0.00    +0.114 C 
ATOM     20  C   UNL     1     -37.850  20.778   0.792  0.00  0.00    +0.003 C 
ATOM     21  C   UNL     1     -38.268  22.870   2.590  0.00  0.00    +0.039 C 
ATOM     22  C   UNL     1     -39.279  22.499   1.706  0.00  0.00    +0.092 C 
ATOM     23  C   UNL     1     -39.071  21.453   0.806  0.00  0.00    +0.020 C 
BRANCH  19  24
ATOM     24  S   UNL     1     -35.808  22.698   3.711  0.00  0.00    +0.042 S 
ATOM     25  O   UNL     1     -36.563  23.722   4.735  0.00  0.00    -0.065 OA
ATOM     26  O   UNL     1     -35.414  21.532   4.483  0.00  0.00    -0.065 OA
ATOM     27  O   UNL     1     -34.829  23.455   2.949  0.00  0.00    -0.065 OA
ENDBRANCH  19  24
BRANCH  22  29
ATOM     28  S   UNL     1     -40.274  25.921   1.394  0.00  0.00    +0.021 S 
ATOM     29  N   UNL     1     -40.504  23.175   1.720  0.00  0.00    -0.196 NA
ATOM     30  C   UNL     1     -40.394  24.342   1.580  0.00  0.00    +0.041 C 
ENDBRANCH  22  29
ENDBRANCH  17  18
ENDBRANCH   1  16
TORSDOF 6
ENDMDL
MODEL 7
REMARK VINA RESULT:      -6.2      5.133      8.025
REMARK  Name = 5282250
REMARK  6 active torsions:
REMARK  status: ('A' for Active; 'I' for Inactive)
REMARK    1  A    between atoms: C_1  and  C_16
REMARK    2  A    between atoms: C_2  and  S_12
REMARK    3  A    between atoms: C_4  and  N_8
REMARK    4  A    between atoms: C_17  and  C_18
REMARK    5  A    between atoms: C_19  and  S_24
REMARK    6  A    between atoms: C_22  and  N_29
REMARK                            x       y       z     vdW  Elec       q    Type
REMARK                         _______ _______ _______ _____ _____    ______ ____
ROOT
ATOM      1  C   UNL     1     -36.853  21.381   1.762  0.00  0.00    +0.018 C 
ATOM      2  C   UNL     1     -37.083  22.427   2.642  0.00  0.00    +0.114 C 
ATOM      3  C   UNL     1     -38.313  23.086   2.615  0.00  0.00    +0.034 C 
ATOM      4  C   UNL     1     -39.297  22.691   1.710  0.00  0.00    +0.052 C 
ATOM      5  C   UNL     1     -37.823  20.976   0.857  0.00  0.00    +0.003 C 
ATOM      6  C   UNL     1     -39.052  21.636   0.830  0.00  0.00    +0.015 C 
ENDROOT
BRANCH   4   8
ATOM      7  O   UNL     1     -40.110  25.259   0.366  0.00  0.00    -0.275 OA
ATOM      8  N   UNL     1     -40.527  23.349   1.684  0.00  0.00    -0.284 N 
ATOM      9  C   UNL     1     -40.851  24.550   1.039  0.00  0.00    +0.227 C 
ATOM     10  C   UNL     1     -42.295  24.929   1.255  0.00  0.00    +0.095 C 
ATOM     11  H   UNL     1     -41.258  22.915   2.180  0.00  0.00    +0.155 HD
ENDBRANCH   4   8
BRANCH   2  12
ATOM     12  S   UNL     1     -35.881  22.963   3.798  0.00  0.00    +0.042 S 
ATOM     13  O   UNL     1     -36.654  24.049   4.741  0.00  0.00    -0.065 OA
ATOM     14  O   UNL     1     -35.540  21.828   4.641  0.00  0.00    -0.065 OA
ATOM     15  O   UNL     1     -34.857  23.663   3.042  0.00  0.00    -0.065 OA
ENDBRANCH   2  12
BRANCH   1  16
ATOM     16  C   UNL     1     -35.570  20.656   1.755  0.00  0.00    +0.001 C 
ATOM     17  C   UNL     1     -34.715  20.599   0.707  0.00  0.00    +0.001 C 
BRANCH  17  18
ATOM     18  C   UNL     1     -33.437  19.900   0.705  0.00  0.00    +0.018 C 
ATOM     19  C   UNL     1     -32.325  20.402   0.030  0.00  0.00    +0.114 C 
ATOM     20  C   UNL     1     -33.345  18.696   1.403  0.00  0.00    +0.003 C 
ATOM     21  C   UNL     1     -31.119  19.699   0.052  0.00  0.00    +0.039 C 
ATOM     22  C   UNL     1     -31.027  18.496   0.750  0.00  0.00    +0.092 C 
ATOM     23  C   UNL     1     -32.140  17.993   1.426  0.00  0.00    +0.020 C 
BRANCH  19  24
ATOM     24  S   UNL     1     -32.389  21.910  -0.863  0.00  0.00    +0.042 S 
ATOM     25  O   UNL     1     -30.847  22.197  -1.320  0.00  0.00    -0.065 OA
ATOM     26  O   UNL     1     -33.158  21.674  -2.074  0.00  0.00    -0.065 OA
ATOM     27  O   UNL     1     -32.783  22.938   0.085  0.00  0.00    -0.065 OA
ENDBRANCH  19  24
BRANCH  22  29
ATOM     28  S   UNL     1     -29.973  15.265  -0.368  0.00  0.00    +0.021 S 
ATOM     29  N   UNL     1     -29.819  17.790   0.771  0.00  0.00    -0.196 NA
ATOM     30  C   UNL     1     -29.897  16.718   0.285  0.00  0.00    +0.041 C 
ENDBRANCH  22  29
ENDBRANCH  17  18
ENDBRANCH   1  16
TORSDOF 6
ENDMDL
MODEL 8
REMARK VINA RESULT:      -6.2      4.770      7.387
REMARK  Name = 5282250
REMARK  6 active torsions:
REMARK  status: ('A' for Active; 'I' for Inactive)
REMARK    1  A    between atoms: C_1  and  C_16
REMARK    2  A    between atoms: C_2  and  S_12
REMARK    3  A    between atoms: C_4  and  N_8
REMARK    4  A    between atoms: C_17  and  C_18
REMARK    5  A    between atoms: C_19  and  S_24
REMARK    6  A    between atoms: C_22  and  N_29
REMARK                            x       y       z     vdW  Elec       q    Type
REMARK                         _______ _______ _______ _____ _____    ______ ____
ROOT
ATOM      1  C   UNL     1     -37.235  21.815   2.185  0.00  0.00    +0.018 C 
ATOM      2  C   UNL     1     -37.109  22.861   3.086  0.00  0.00    +0.114 C 
ATOM      3  C   UNL     1     -38.136  23.799   3.194  0.00  0.00    +0.034 C 
ATOM      4  C   UNL     1     -39.276  23.680   2.400  0.00  0.00    +0.052 C 
ATOM      5  C   UNL     1     -38.364  21.683   1.390  0.00  0.00    +0.003 C 
ATOM      6  C   UNL     1     -39.391  22.622   1.498  0.00  0.00    +0.015 C 
ENDROOT
BRANCH   4   8
ATOM      7  O   UNL     1     -39.260  26.657   1.950  0.00  0.00    -0.275 OA
ATOM      8  N   UNL     1     -40.303  24.618   2.509  0.00  0.00    -0.284 N 
ATOM      9  C   UNL     1     -40.239  26.000   2.288  0.00  0.00    +0.227 C 
ATOM     10  C   UNL     1     -41.574  26.665   2.513  0.00  0.00    +0.095 C 
ATOM     11  H   UNL     1     -41.183  24.264   2.775  0.00  0.00    +0.155 HD
ENDBRANCH   4   8
BRANCH   2  12
ATOM     12  S   UNL     1     -35.697  23.055   4.105  0.00  0.00    +0.042 S 
ATOM     13  O   UNL     1     -36.168  24.076   5.290  0.00  0.00    -0.065 OA
ATOM     14  O   UNL     1     -35.420  21.772   4.729  0.00  0.00    -0.065 OA
ATOM     15  O   UNL     1     -34.690  23.726   3.300  0.00  0.00    -0.065 OA
ENDBRANCH   2  12
BRANCH   1  16
ATOM     16  C   UNL     1     -36.176  20.801   2.037  0.00  0.00    +0.001 C 
ATOM     17  C   UNL     1     -35.932  20.090   0.912  0.00  0.00    +0.001 C 
BRANCH  17  18
ATOM     18  C   UNL     1     -34.872  19.101   0.758  0.00  0.00    +0.018 C 
ATOM     19  C   UNL     1     -35.002  18.011  -0.102  0.00  0.00    +0.114 C 
ATOM     20  C   UNL     1     -33.704  19.268   1.502  0.00  0.00    +0.003 C 
ATOM     21  C   UNL     1     -33.964  17.087  -0.218  0.00  0.00    +0.039 C 
ATOM     22  C   UNL     1     -32.796  17.253   0.525  0.00  0.00    +0.092 C 
ATOM     23  C   UNL     1     -32.665  18.344   1.385  0.00  0.00    +0.020 C 
BRANCH  19  24
ATOM     24  S   UNL     1     -36.451  17.757  -1.057  0.00  0.00    +0.042 S 
ATOM     25  O   UNL     1     -36.184  16.363  -1.866  0.00  0.00    -0.065 OA
ATOM     26  O   UNL     1     -37.550  17.515  -0.138  0.00  0.00    -0.065 OA
ATOM     27  O   UNL     1     -36.509  18.840  -2.023  0.00  0.00    -0.065 OA
ENDBRANCH  19  24
BRANCH  22  29
ATOM     28  S   UNL     1     -29.352  17.435  -0.425  0.00  0.00    +0.021 S 
ATOM     29  N   UNL     1     -31.755  16.326   0.409  0.00  0.00    -0.196 NA
ATOM     30  C   UNL     1     -30.738  16.809   0.054  0.00  0.00    +0.041 C 
ENDBRANCH  22  29
ENDBRANCH  17  18
ENDBRANCH   1  16
TORSDOF 6
ENDMDL
MODEL 9
REMARK VINA RESULT:      -6.1      2.352      2.842
REMARK  Name = 5282250
REMARK  6 active torsions:
REMARK  status: ('A' for Active; 'I' for Inactive)
REMARK    1  A    between atoms: C_1  and  C_16
REMARK    2  A    between atoms: C_2  and  S_12
REMARK    3  A    between atoms: C_4  and  N_8
REMARK    4  A    between atoms: C_17  and  C_18
REMARK    5  A    between atoms: C_19  and  S_24
REMARK    6  A    between atoms: C_22  and  N_29
REMARK                            x       y       z     vdW  Elec       q    Type
REMARK                         _______ _______ _______ _____ _____    ______ ____
ROOT
ATOM      1  C   UNL     1     -35.870  24.144   3.476  0.00  0.00    +0.018 C 
ATOM      2  C   UNL     1     -36.042  25.501   3.256  0.00  0.00    +0.114 C 
ATOM      3  C   UNL     1     -35.309  26.416   4.011  0.00  0.00    +0.034 C 
ATOM      4  C   UNL     1     -34.411  25.963   4.977  0.00  0.00    +0.052 C 
ATOM      5  C   UNL     1     -34.980  23.678   4.433  0.00  0.00    +0.003 C 
ATOM      6  C   UNL     1     -34.247  24.593   5.188  0.00  0.00    +0.015 C 
ENDROOT
BRANCH   4   8
ATOM      7  O   UNL     1     -31.899  27.480   4.306  0.00  0.00    -0.275 OA
ATOM      8  N   UNL     1     -33.676  26.878   5.732  0.00  0.00    -0.284 N 
ATOM      9  C   UNL     1     -32.507  27.557   5.368  0.00  0.00    +0.227 C 
ATOM     10  C   UNL     1     -32.019  28.462   6.472  0.00  0.00    +0.095 C 
ATOM     11  H   UNL     1     -34.024  27.069   6.633  0.00  0.00    +0.155 HD
ENDBRANCH   4   8
BRANCH   2  12
ATOM     12  S   UNL     1     -37.157  26.123   2.055  0.00  0.00    +0.042 S 
ATOM     13  O   UNL     1     -36.846  27.724   1.977  0.00  0.00    -0.065 OA
ATOM     14  O   UNL     1     -36.788  25.552   0.770  0.00  0.00    -0.065 OA
ATOM     15  O   UNL     1     -38.494  25.944   2.594  0.00  0.00    -0.065 OA
ENDBRANCH   2  12
BRANCH   1  16
ATOM     16  C   UNL     1     -36.624  23.142   2.702  0.00  0.00    +0.001 C 
ATOM     17  C   UNL     1     -36.080  22.259   1.833  0.00  0.00    +0.001 C 
BRANCH  17  18
ATOM     18  C   UNL     1     -36.822  21.255   1.082  0.00  0.00    +0.018 C 
ATOM     19  C   UNL     1     -36.227  20.070   0.650  0.00  0.00    +0.114 C 
ATOM     20  C   UNL     1     -38.164  21.506   0.797  0.00  0.00    +0.003 C 
ATOM     21  C   UNL     1     -36.974  19.135  -0.068  0.00  0.00    +0.039 C 
ATOM     22  C   UNL     1     -38.315  19.386  -0.353  0.00  0.00    +0.092 C 
ATOM     23  C   UNL     1     -38.911  20.571   0.079  0.00  0.00    +0.020 C 
BRANCH  19  24
ATOM     24  S   UNL     1     -34.544  19.708   0.982  0.00  0.00    +0.042 S 
ATOM     25  O   UNL     1     -34.324  18.183   0.438  0.00  0.00    -0.065 OA
ATOM     26  O   UNL     1     -33.731  20.580   0.151  0.00  0.00    -0.065 OA
ATOM     27  O   UNL     1     -34.396  19.702   2.428  0.00  0.00    -0.065 OA
ENDBRANCH  19  24
BRANCH  22  29
ATOM     28  S   UNL     1     -38.366  15.815  -0.555  0.00  0.00    +0.021 S 
ATOM     29  N   UNL     1     -39.064  18.450  -1.074  0.00  0.00    -0.196 NA
ATOM     30  C   UNL     1     -38.758  17.333  -0.845  0.00  0.00    +0.041 C 
ENDBRANCH  22  29
ENDBRANCH  17  18
ENDBRANCH   1  16
TORSDOF 6
ENDMDL
