MODEL 1
REMARK VINA RESULT:      -7.2      0.000      0.000
REMARK  Name = 194543
REMARK  6 active torsions:
REMARK  status: ('A' for Active; 'I' for Inactive)
REMARK    1  A    between atoms: C_16  and  N_25
REMARK    2  A    between atoms: C_22  and  O_34
REMARK    3  A    between atoms: C_23  and  O_36
REMARK    4  A    between atoms: C_26  and  C_28
REMARK    5  A    between atoms: C_28  and  C_29
REMARK    6  A    between atoms: C_29  and  N_30
REMARK                            x       y       z     vdW  Elec       q    Type
REMARK                         _______ _______ _______ _____ _____    ______ ____
ROOT
ATOM      1  O   UNL     1     -35.474  24.499   0.775  0.00  0.00    -0.440 OA
ATOM      2  O   UNL     1     -37.735  25.029   4.124  0.00  0.00    -0.454 OA
ATOM      3  O   UNL     1     -34.162  23.778  -0.993  0.00  0.00    -0.245 OA
ATOM      4  C   UNL     1     -36.082  23.933   1.978  0.00  0.00    +0.198 C 
ATOM      5  C   UNL     1     -35.645  22.505   1.892  0.00  0.00    +0.028 C 
ATOM      6  C   UNL     1     -35.511  24.655   3.181  0.00  0.00    +0.056 C 
ATOM      7  C   UNL     1     -37.585  24.098   1.869  0.00  0.00    +0.056 C 
ATOM      8  C   UNL     1     -34.877  22.318   0.758  0.00  0.00    +0.077 C 
ATOM      9  C   UNL     1     -36.366  25.137   4.178  0.00  0.00    +0.148 C 
ATOM     10  C   UNL     1     -38.312  24.615   2.948  0.00  0.00    +0.148 C 
ATOM     11  C   UNL     1     -34.764  23.580   0.043  0.00  0.00    +0.342 C 
ATOM     12  C   UNL     1     -35.898  21.443   2.746  0.00  0.00    +0.001 C 
ATOM     13  C   UNL     1     -34.126  24.832   3.348  0.00  0.00    +0.006 C 
ATOM     14  C   UNL     1     -38.289  23.713   0.714  0.00  0.00    +0.006 C 
ATOM     15  C   UNL     1     -34.332  21.094   0.418  0.00  0.00    +0.021 C 
ATOM     16  C   UNL     1     -34.583  20.019   1.271  0.00  0.00    +0.050 C 
ATOM     17  C   UNL     1     -35.361  20.192   2.429  0.00  0.00    +0.014 C 
ATOM     18  C   UNL     1     -35.854  25.770   5.316  0.00  0.00    +0.074 C 
ATOM     19  C   UNL     1     -39.704  24.736   2.880  0.00  0.00    +0.074 C 
ATOM     20  C   UNL     1     -33.615  25.470   4.479  0.00  0.00    +0.037 C 
ATOM     21  C   UNL     1     -39.678  23.841   0.645  0.00  0.00    +0.037 C 
ATOM     22  C   UNL     1     -34.479  25.937   5.465  0.00  0.00    +0.137 C 
ATOM     23  C   UNL     1     -40.385  24.351   1.729  0.00  0.00    +0.137 C 
ENDROOT
BRANCH  16  25
ATOM     24  O   UNL     1     -35.376  18.024  -0.828  0.00  0.00    -0.275 OA
ATOM     25  N   UNL     1     -34.057  18.761   0.976  0.00  0.00    -0.284 N 
ATOM     26  C   UNL     1     -34.466  17.862  -0.023  0.00  0.00    +0.224 C 
ATOM     27  H   UNL     1     -33.304  18.466   1.538  0.00  0.00    +0.155 HD
BRANCH  26  28
ATOM     28  C   UNL     1     -33.620  16.595  -0.002  0.00  0.00    +0.062 C 
BRANCH  28  29
ATOM     29  C   UNL     1     -34.412  15.359  -0.414  0.00  0.00    -0.077 C 
BRANCH  29  30
ATOM     30  N   UNL     1     -35.629  15.250   0.381  0.00  0.00    +0.381 N 
ATOM     31  H   UNL     1     -36.194  14.473   0.035  0.00  0.00    -0.089 HD
ATOM     32  H   UNL     1     -36.162  16.116   0.308  0.00  0.00    -0.089 HD
ATOM     33  H   UNL     1     -35.385  15.083   1.357  0.00  0.00    -0.089 HD
ENDBRANCH  29  30
ENDBRANCH  28  29
ENDBRANCH  26  28
ENDBRANCH  16  25
BRANCH  22  34
ATOM     34  O   UNL     1     -33.983  26.556   6.570  0.00  0.00    -0.505 OA
ATOM     35  H   UNL     1     -33.623  26.048   7.271  0.00  0.00    +0.292 HD
ENDBRANCH  22  34
BRANCH  23  36
ATOM     36  O   UNL     1     -41.738  24.473   1.663  0.00  0.00    -0.505 OA
ATOM     37  H   UNL     1     -42.249  23.810   1.240  0.00  0.00    +0.292 HD
ENDBRANCH  23  36
TORSDOF 6
ENDMDL
MODEL 2
REMARK VINA RESULT:      -7.2      2.116      4.922
REMARK  Name = 194543
REMARK  6 active torsions:
REMARK  status: ('A' for Active; 'I' for Inactive)
REMARK    1  A    between atoms: C_16  and  N_25
REMARK    2  A    between atoms: C_22  and  O_34
REMARK    3  A    between atoms: C_23  and  O_36
REMARK    4  A    between atoms: C_26  and  C_28
REMARK    5  A    between atoms: C_28  and  C_29
REMARK    6  A    between atoms: C_29  and  N_30
REMARK                            x       y       z     vdW  Elec       q    Type
REMARK                         _______ _______ _______ _____ _____    ______ ____
ROOT
ATOM      1  O   UNL     1     -36.423  24.132   4.774  0.00  0.00    -0.440 OA
ATOM      2  O   UNL     1     -36.916  26.999   1.920  0.00  0.00    -0.454 OA
ATOM      3  O   UNL     1     -36.009  22.250   6.059  0.00  0.00    -0.245 OA
ATOM      4  C   UNL     1     -36.336  24.530   3.369  0.00  0.00    +0.198 C 
ATOM      5  C   UNL     1     -35.829  23.275   2.733  0.00  0.00    +0.028 C 
ATOM      6  C   UNL     1     -37.725  24.911   2.899  0.00  0.00    +0.056 C 
ATOM      7  C   UNL     1     -35.357  25.682   3.265  0.00  0.00    +0.056 C 
ATOM      8  C   UNL     1     -35.659  22.297   3.695  0.00  0.00    +0.077 C 
ATOM      9  C   UNL     1     -37.922  26.104   2.195  0.00  0.00    +0.148 C 
ATOM     10  C   UNL     1     -35.701  26.827   2.537  0.00  0.00    +0.148 C 
ATOM     11  C   UNL     1     -36.035  22.834   4.994  0.00  0.00    +0.342 C 
ATOM     12  C   UNL     1     -35.537  23.004   1.405  0.00  0.00    +0.001 C 
ATOM     13  C   UNL     1     -38.836  24.079   3.124  0.00  0.00    +0.006 C 
ATOM     14  C   UNL     1     -34.083  25.625   3.857  0.00  0.00    +0.006 C 
ATOM     15  C   UNL     1     -35.201  21.027   3.399  0.00  0.00    +0.021 C 
ATOM     16  C   UNL     1     -34.904  20.747   2.064  0.00  0.00    +0.050 C 
ATOM     17  C   UNL     1     -35.072  21.729   1.073  0.00  0.00    +0.014 C 
ATOM     18  C   UNL     1     -39.190  26.453   1.717  0.00  0.00    +0.074 C 
ATOM     19  C   UNL     1     -34.794  27.884   2.396  0.00  0.00    +0.074 C 
ATOM     20  C   UNL     1     -40.103  24.430   2.654  0.00  0.00    +0.037 C 
ATOM     21  C   UNL     1     -33.181  26.684   3.721  0.00  0.00    +0.037 C 
ATOM     22  C   UNL     1     -40.279  25.616   1.948  0.00  0.00    +0.137 C 
ATOM     23  C   UNL     1     -33.537  27.811   2.989  0.00  0.00    +0.137 C 
ENDROOT
BRANCH  16  25
ATOM     24  O   UNL     1     -32.313  19.914   0.794  0.00  0.00    -0.275 OA
ATOM     25  N   UNL     1     -34.438  19.480   1.709  0.00  0.00    -0.284 N 
ATOM     26  C   UNL     1     -33.211  19.143   1.114  0.00  0.00    +0.224 C 
ATOM     27  H   UNL     1     -35.045  18.729   1.899  0.00  0.00    +0.155 HD
BRANCH  26  28
ATOM     28  C   UNL     1     -33.103  17.639   0.893  0.00  0.00    +0.062 C 
BRANCH  28  29
ATOM     29  C   UNL     1     -31.762  17.235   0.288  0.00  0.00    -0.077 C 
BRANCH  29  30
ATOM     30  N   UNL     1     -30.684  17.479   1.239  0.00  0.00    +0.381 N 
ATOM     31  H   UNL     1     -30.752  18.434   1.592  0.00  0.00    -0.089 HD
ATOM     32  H   UNL     1     -29.785  17.351   0.774  0.00  0.00    -0.089 HD
ATOM     33  H   UNL     1     -30.761  16.824   2.017  0.00  0.00    -0.089 HD
ENDBRANCH  29  30
ENDBRANCH  28  29
ENDBRANCH  26  28
ENDBRANCH  16  25
BRANCH  22  34
ATOM     34  O   UNL     1     -41.512  25.959   1.486  0.00  0.00    -0.505 OA
ATOM     35  H   UNL     1     -41.702  26.851   1.272  0.00  0.00    +0.292 HD
ENDBRANCH  22  34
BRANCH  23  36
ATOM     36  O   UNL     1     -32.658  28.841   2.854  0.00  0.00    -0.505 OA
ATOM     37  H   UNL     1     -31.874  28.859   3.367  0.00  0.00    +0.292 HD
ENDBRANCH  23  36
TORSDOF 6
ENDMDL
MODEL 3
REMARK VINA RESULT:      -7.1      3.095      8.258
REMARK  Name = 194543
REMARK  6 active torsions:
REMARK  status: ('A' for Active; 'I' for Inactive)
REMARK    1  A    between atoms: C_16  and  N_25
REMARK    2  A    between atoms: C_22  and  O_34
REMARK    3  A    between atoms: C_23  and  O_36
REMARK    4  A    between atoms: C_26  and  C_28
REMARK    5  A    between atoms: C_28  and  C_29
REMARK    6  A    between atoms: C_29  and  N_30
REMARK                            x       y       z     vdW  Elec       q    Type
REMARK                         _______ _______ _______ _____ _____    ______ ____
ROOT
ATOM      1  O   UNL     1     -34.579  21.113  -0.954  0.00  0.00    -0.440 OA
ATOM      2  O   UNL     1     -35.217  17.231   0.111  0.00  0.00    -0.454 OA
ATOM      3  O   UNL     1     -34.290  23.404  -1.132  0.00  0.00    -0.245 OA
ATOM      4  C   UNL     1     -34.890  20.135   0.087  0.00  0.00    +0.198 C 
ATOM      5  C   UNL     1     -35.026  21.011   1.291  0.00  0.00    +0.028 C 
ATOM      6  C   UNL     1     -36.184  19.441  -0.288  0.00  0.00    +0.056 C 
ATOM      7  C   UNL     1     -33.727  19.167   0.189  0.00  0.00    +0.056 C 
ATOM      8  C   UNL     1     -34.811  22.330   0.938  0.00  0.00    +0.077 C 
ATOM      9  C   UNL     1     -36.269  18.045  -0.235  0.00  0.00    +0.148 C 
ATOM     10  C   UNL     1     -33.965  17.788   0.212  0.00  0.00    +0.148 C 
ATOM     11  C   UNL     1     -34.526  22.402  -0.487  0.00  0.00    +0.342 C 
ATOM     12  C   UNL     1     -35.318  20.680   2.605  0.00  0.00    +0.001 C 
ATOM     13  C   UNL     1     -37.329  20.165  -0.663  0.00  0.00    +0.006 C 
ATOM     14  C   UNL     1     -32.399  19.617   0.294  0.00  0.00    +0.006 C 
ATOM     15  C   UNL     1     -34.873  23.368   1.848  0.00  0.00    +0.021 C 
ATOM     16  C   UNL     1     -35.166  23.044   3.173  0.00  0.00    +0.050 C 
ATOM     17  C   UNL     1     -35.388  21.708   3.550  0.00  0.00    +0.014 C 
ATOM     18  C   UNL     1     -37.467  17.389  -0.538  0.00  0.00    +0.074 C 
ATOM     19  C   UNL     1     -32.907  16.882   0.346  0.00  0.00    +0.074 C 
ATOM     20  C   UNL     1     -38.523  19.510  -0.972  0.00  0.00    +0.037 C 
ATOM     21  C   UNL     1     -31.343  18.711   0.420  0.00  0.00    +0.037 C 
ATOM     22  C   UNL     1     -38.592  18.122  -0.907  0.00  0.00    +0.137 C 
ATOM     23  C   UNL     1     -31.599  17.345   0.448  0.00  0.00    +0.137 C 
ENDROOT
BRANCH  16  25
ATOM     24  O   UNL     1     -37.534  24.577   4.202  0.00  0.00    -0.275 OA
ATOM     25  N   UNL     1     -35.241  24.053   4.134  0.00  0.00    -0.284 N 
ATOM     26  C   UNL     1     -36.380  24.742   4.582  0.00  0.00    +0.224 C 
ATOM     27  H   UNL     1     -34.388  24.315   4.551  0.00  0.00    +0.155 HD
BRANCH  26  28
ATOM     28  C   UNL     1     -36.017  25.771   5.645  0.00  0.00    +0.062 C 
BRANCH  28  29
ATOM     29  C   UNL     1     -34.511  25.966   5.776  0.00  0.00    -0.077 C 
BRANCH  29  30
ATOM     30  N   UNL     1     -34.085  27.138   5.021  0.00  0.00    +0.381 N 
ATOM     31  H   UNL     1     -34.904  27.613   4.639  0.00  0.00    -0.089 HD
ATOM     32  H   UNL     1     -33.474  26.848   4.258  0.00  0.00    -0.089 HD
ATOM     33  H   UNL     1     -33.580  27.775   5.636  0.00  0.00    -0.089 HD
ENDBRANCH  29  30
ENDBRANCH  28  29
ENDBRANCH  26  28
ENDBRANCH  16  25
BRANCH  22  34
ATOM     34  O   UNL     1     -39.756  17.482  -1.205  0.00  0.00    -0.505 OA
ATOM     35  H   UNL     1     -39.868  17.078  -2.042  0.00  0.00    +0.292 HD
ENDBRANCH  22  34
BRANCH  23  36
ATOM     36  O   UNL     1     -30.571  16.462   0.575  0.00  0.00    -0.505 OA
ATOM     37  H   UNL     1     -29.795  16.568   0.059  0.00  0.00    +0.292 HD
ENDBRANCH  23  36
TORSDOF 6
ENDMDL
MODEL 4
REMARK VINA RESULT:      -7.0      3.370      7.220
REMARK  Name = 194543
REMARK  6 active torsions:
REMARK  status: ('A' for Active; 'I' for Inactive)
REMARK    1  A    between atoms: C_16  and  N_25
REMARK    2  A    between atoms: C_22  and  O_34
REMARK    3  A    between atoms: C_23  and  O_36
REMARK    4  A    between atoms: C_26  and  C_28
REMARK    5  A    between atoms: C_28  and  C_29
REMARK    6  A    between atoms: C_29  and  N_30
REMARK                            x       y       z     vdW  Elec       q    Type
REMARK                         _______ _______ _______ _____ _____    ______ ____
ROOT
ATOM      1  O   UNL     1     -36.661  22.729   4.415  0.00  0.00    -0.440 OA
ATOM      2  O   UNL     1     -38.173  21.968   0.708  0.00  0.00    -0.454 OA
ATOM      3  O   UNL     1     -35.549  23.456   6.312  0.00  0.00    -0.245 OA
ATOM      4  C   UNL     1     -36.665  23.014   2.981  0.00  0.00    +0.198 C 
ATOM      5  C   UNL     1     -35.618  24.077   2.884  0.00  0.00    +0.028 C 
ATOM      6  C   UNL     1     -36.287  21.744   2.246  0.00  0.00    +0.056 C 
ATOM      7  C   UNL     1     -38.046  23.509   2.601  0.00  0.00    +0.056 C 
ATOM      8  C   UNL     1     -35.100  24.341   4.138  0.00  0.00    +0.077 C 
ATOM      9  C   UNL     1     -37.049  21.315   1.154  0.00  0.00    +0.148 C 
ATOM     10  C   UNL     1     -38.700  22.970   1.487  0.00  0.00    +0.148 C 
ATOM     11  C   UNL     1     -35.758  23.488   5.116  0.00  0.00    +0.342 C 
ATOM     12  C   UNL     1     -35.148  24.767   1.777  0.00  0.00    +0.001 C 
ATOM     13  C   UNL     1     -35.160  20.986   2.611  0.00  0.00    +0.006 C 
ATOM     14  C   UNL     1     -38.690  24.529   3.324  0.00  0.00    +0.006 C 
ATOM     15  C   UNL     1     -34.111  25.281   4.357  0.00  0.00    +0.021 C 
ATOM     16  C   UNL     1     -33.633  25.981   3.248  0.00  0.00    +0.050 C 
ATOM     17  C   UNL     1     -34.148  25.725   1.965  0.00  0.00    +0.014 C 
ATOM     18  C   UNL     1     -36.692  20.168   0.437  0.00  0.00    +0.074 C 
ATOM     19  C   UNL     1     -39.958  23.443   1.097  0.00  0.00    +0.074 C 
ATOM     20  C   UNL     1     -34.807  19.837   1.900  0.00  0.00    +0.037 C 
ATOM     21  C   UNL     1     -39.949  24.995   2.939  0.00  0.00    +0.037 C 
ATOM     22  C   UNL     1     -35.572  19.429   0.812  0.00  0.00    +0.137 C 
ATOM     23  C   UNL     1     -40.581  24.453   1.824  0.00  0.00    +0.137 C 
ENDROOT
BRANCH  16  25
ATOM     24  O   UNL     1     -33.838  28.952   3.630  0.00  0.00    -0.275 OA
ATOM     25  N   UNL     1     -32.635  26.942   3.411  0.00  0.00    -0.284 N 
ATOM     26  C   UNL     1     -32.784  28.328   3.588  0.00  0.00    +0.224 C 
ATOM     27  H   UNL     1     -31.709  26.607   3.401  0.00  0.00    +0.155 HD
BRANCH  26  28
ATOM     28  C   UNL     1     -31.431  29.013   3.727  0.00  0.00    +0.062 C 
BRANCH  28  29
ATOM     29  C   UNL     1     -31.353  29.901   4.964  0.00  0.00    -0.077 C 
BRANCH  29  30
ATOM     30  N   UNL     1     -32.111  29.310   6.060  0.00  0.00    +0.381 N 
ATOM     31  H   UNL     1     -33.070  29.136   5.756  0.00  0.00    -0.089 HD
ATOM     32  H   UNL     1     -32.117  29.950   6.854  0.00  0.00    -0.089 HD
ATOM     33  H   UNL     1     -31.678  28.429   6.338  0.00  0.00    -0.089 HD
ENDBRANCH  29  30
ENDBRANCH  28  29
ENDBRANCH  26  28
ENDBRANCH  16  25
BRANCH  22  34
ATOM     34  O   UNL     1     -35.228  18.311   0.117  0.00  0.00    -0.505 OA
ATOM     35  H   UNL     1     -35.450  18.236  -0.790  0.00  0.00    +0.292 HD
ENDBRANCH  22  34
BRANCH  23  36
ATOM     36  O   UNL     1     -41.806  24.909   1.447  0.00  0.00    -0.505 OA
ATOM     37  H   UNL     1     -42.308  24.435   0.813  0.00  0.00    +0.292 HD
ENDBRANCH  23  36
TORSDOF 6
ENDMDL
MODEL 5
REMARK VINA RESULT:      -6.6      2.048      2.305
REMARK  Name = 194543
REMARK  6 active torsions:
REMARK  status: ('A' for Active; 'I' for Inactive)
REMARK    1  A    between atoms: C_16  and  N_25
REMARK    2  A    between atoms: C_22  and  O_34
REMARK    3  A    between atoms: C_23  and  O_36
REMARK    4  A    between atoms: C_26  and  C_28
REMARK    5  A    between atoms: C_28  and  C_29
REMARK    6  A    between atoms: C_29  and  N_30
REMARK                            x       y       z     vdW  Elec       q    Type
REMARK                         _______ _______ _______ _____ _____    ______ ____
ROOT
ATOM      1  O   UNL     1     -35.437  23.270  -0.047  0.00  0.00    -0.440 OA
ATOM      2  O   UNL     1     -37.921  22.977   3.170  0.00  0.00    -0.454 OA
ATOM      3  O   UNL     1     -33.848  23.063  -1.719  0.00  0.00    -0.245 OA
ATOM      4  C   UNL     1     -35.852  22.545   1.153  0.00  0.00    +0.198 C 
ATOM      5  C   UNL     1     -34.897  21.394   1.155  0.00  0.00    +0.028 C 
ATOM      6  C   UNL     1     -35.673  23.463   2.345  0.00  0.00    +0.056 C 
ATOM      7  C   UNL     1     -37.294  22.115   0.971  0.00  0.00    +0.056 C 
ATOM      8  C   UNL     1     -34.050  21.487   0.066  0.00  0.00    +0.077 C 
ATOM      9  C   UNL     1     -36.704  23.606   3.280  0.00  0.00    +0.148 C 
ATOM     10  C   UNL     1     -38.226  22.341   1.991  0.00  0.00    +0.148 C 
ATOM     11  C   UNL     1     -34.388  22.676  -0.702  0.00  0.00    +0.342 C 
ATOM     12  C   UNL     1     -34.774  20.340   2.045  0.00  0.00    +0.001 C 
ATOM     13  C   UNL     1     -34.474  24.165   2.564  0.00  0.00    +0.006 C 
ATOM     14  C   UNL     1     -37.728  21.458  -0.195  0.00  0.00    +0.006 C 
ATOM     15  C   UNL     1     -33.059  20.559  -0.192  0.00  0.00    +0.021 C 
ATOM     16  C   UNL     1     -32.929  19.493   0.699  0.00  0.00    +0.050 C 
ATOM     17  C   UNL     1     -33.780  19.385   1.812  0.00  0.00    +0.014 C 
ATOM     18  C   UNL     1     -36.542  24.417   4.408  0.00  0.00    +0.074 C 
ATOM     19  C   UNL     1     -39.551  21.915   1.857  0.00  0.00    +0.074 C 
ATOM     20  C   UNL     1     -34.314  24.980   3.686  0.00  0.00    +0.037 C 
ATOM     21  C   UNL     1     -39.053  21.040  -0.331  0.00  0.00    +0.037 C 
ATOM     22  C   UNL     1     -35.347  25.104   4.609  0.00  0.00    +0.137 C 
ATOM     23  C   UNL     1     -39.963  21.267   0.696  0.00  0.00    +0.137 C 
ENDROOT
BRANCH  16  25
ATOM     24  O   UNL     1     -33.121  16.757  -0.523  0.00  0.00    -0.275 OA
ATOM     25  N   UNL     1     -31.944  18.527   0.487  0.00  0.00    -0.284 N 
ATOM     26  C   UNL     1     -32.087  17.256  -0.093  0.00  0.00    +0.224 C 
ATOM     27  H   UNL     1     -31.036  18.768   0.780  0.00  0.00    +0.155 HD
BRANCH  26  28
ATOM     28  C   UNL     1     -30.754  16.518  -0.134  0.00  0.00    +0.062 C 
BRANCH  28  29
ATOM     29  C   UNL     1     -30.887  15.109  -0.700  0.00  0.00    -0.077 C 
BRANCH  29  30
ATOM     30  N   UNL     1     -31.195  14.162   0.365  0.00  0.00    +0.381 N 
ATOM     31  H   UNL     1     -31.816  13.436   0.006  0.00  0.00    -0.089 HD
ATOM     32  H   UNL     1     -31.654  14.652   1.133  0.00  0.00    -0.089 HD
ATOM     33  H   UNL     1     -30.333  13.735   0.702  0.00  0.00    -0.089 HD
ENDBRANCH  29  30
ENDBRANCH  28  29
ENDBRANCH  26  28
ENDBRANCH  16  25
BRANCH  22  34
ATOM     34  O   UNL     1     -35.192  25.896   5.705  0.00  0.00    -0.505 OA
ATOM     35  H   UNL     1     -35.224  26.828   5.619  0.00  0.00    +0.292 HD
ENDBRANCH  22  34
BRANCH  23  36
ATOM     36  O   UNL     1     -41.254  20.856   0.565  0.00  0.00    -0.505 OA
ATOM     37  H   UNL     1     -41.664  20.372   1.256  0.00  0.00    +0.292 HD
ENDBRANCH  23  36
TORSDOF 6
ENDMDL
MODEL 6
REMARK VINA RESULT:      -6.6      4.033      8.191
REMARK  Name = 194543
REMARK  6 active torsions:
REMARK  status: ('A' for Active; 'I' for Inactive)
REMARK    1  A    between atoms: C_16  and  N_25
REMARK    2  A    between atoms: C_22  and  O_34
REMARK    3  A    between atoms: C_23  and  O_36
REMARK    4  A    between atoms: C_26  and  C_28
REMARK    5  A    between atoms: C_28  and  C_29
REMARK    6  A    between atoms: C_29  and  N_30
REMARK                            x       y       z     vdW  Elec       q    Type
REMARK                         _______ _______ _______ _____ _____    ______ ____
ROOT
ATOM      1  O   UNL     1     -36.526  25.254   0.743  0.00  0.00    -0.440 OA
ATOM      2  O   UNL     1     -35.361  22.831   3.806  0.00  0.00    -0.454 OA
ATOM      3  O   UNL     1     -37.568  26.662  -0.773  0.00  0.00    -0.245 OA
ATOM      4  C   UNL     1     -36.840  24.603   2.015  0.00  0.00    +0.198 C 
ATOM      5  C   UNL     1     -38.238  25.076   2.258  0.00  0.00    +0.028 C 
ATOM      6  C   UNL     1     -36.750  23.104   1.813  0.00  0.00    +0.056 C 
ATOM      7  C   UNL     1     -35.858  25.103   3.056  0.00  0.00    +0.056 C 
ATOM      8  C   UNL     1     -38.640  25.899   1.222  0.00  0.00    +0.077 C 
ATOM      9  C   UNL     1     -36.036  22.318   2.724  0.00  0.00    +0.148 C 
ATOM     10  C   UNL     1     -35.200  24.192   3.890  0.00  0.00    +0.148 C 
ATOM     11  C   UNL     1     -37.558  26.017   0.257  0.00  0.00    +0.342 C 
ATOM     12  C   UNL     1     -39.100  24.806   3.309  0.00  0.00    +0.001 C 
ATOM     13  C   UNL     1     -37.395  22.462   0.741  0.00  0.00    +0.006 C 
ATOM     14  C   UNL     1     -35.606  26.475   3.235  0.00  0.00    +0.006 C 
ATOM     15  C   UNL     1     -39.891  26.485   1.175  0.00  0.00    +0.021 C 
ATOM     16  C   UNL     1     -40.765  26.219   2.231  0.00  0.00    +0.050 C 
ATOM     17  C   UNL     1     -40.372  25.384   3.290  0.00  0.00    +0.014 C 
ATOM     18  C   UNL     1     -35.977  20.928   2.577  0.00  0.00    +0.074 C 
ATOM     19  C   UNL     1     -34.321  24.638   4.884  0.00  0.00    +0.074 C 
ATOM     20  C   UNL     1     -37.330  21.076   0.590  0.00  0.00    +0.037 C 
ATOM     21  C   UNL     1     -34.723  26.919   4.223  0.00  0.00    +0.037 C 
ATOM     22  C   UNL     1     -36.623  20.309   1.509  0.00  0.00    +0.137 C 
ATOM     23  C   UNL     1     -34.083  26.000   5.047  0.00  0.00    +0.137 C 
ENDROOT
BRANCH  16  25
ATOM     24  O   UNL     1     -41.907  28.429   3.913  0.00  0.00    -0.275 OA
ATOM     25  N   UNL     1     -42.041  26.785   2.234  0.00  0.00    -0.284 N 
ATOM     26  C   UNL     1     -42.527  27.823   3.046  0.00  0.00    +0.224 C 
ATOM     27  H   UNL     1     -42.680  26.409   1.586  0.00  0.00    +0.155 HD
BRANCH  26  28
ATOM     28  C   UNL     1     -43.983  28.136   2.723  0.00  0.00    +0.062 C 
BRANCH  28  29
ATOM     29  C   UNL     1     -44.872  28.110   3.962  0.00  0.00    -0.077 C 
BRANCH  29  30
ATOM     30  N   UNL     1     -44.581  26.931   4.769  0.00  0.00    +0.381 N 
ATOM     31  H   UNL     1     -43.919  26.334   4.272  0.00  0.00    -0.089 HD
ATOM     32  H   UNL     1     -45.443  26.414   4.939  0.00  0.00    -0.089 HD
ATOM     33  H   UNL     1     -44.176  27.220   5.659  0.00  0.00    -0.089 HD
ENDBRANCH  29  30
ENDBRANCH  28  29
ENDBRANCH  26  28
ENDBRANCH  16  25
BRANCH  22  34
ATOM     34  O   UNL     1     -36.560  18.957   1.366  0.00  0.00    -0.505 OA
ATOM     35  H   UNL     1     -36.740  18.399   2.096  0.00  0.00    +0.292 HD
ENDBRANCH  22  34
BRANCH  23  36
ATOM     36  O   UNL     1     -33.225  26.431   6.012  0.00  0.00    -0.505 OA
ATOM     37  H   UNL     1     -32.408  25.991   6.143  0.00  0.00    +0.292 HD
ENDBRANCH  23  36
TORSDOF 6
ENDMDL
MODEL 7
REMARK VINA RESULT:      -6.2      2.838      5.360
REMARK  Name = 194543
REMARK  6 active torsions:
REMARK  status: ('A' for Active; 'I' for Inactive)
REMARK    1  A    between atoms: C_16  and  N_25
REMARK    2  A    between atoms: C_22  and  O_34
REMARK    3  A    between atoms: C_23  and  O_36
REMARK    4  A    between atoms: C_26  and  C_28
REMARK    5  A    between atoms: C_28  and  C_29
REMARK    6  A    between atoms: C_29  and  N_30
REMARK                            x       y       z     vdW  Elec       q    Type
REMARK                         _______ _______ _______ _____ _____    ______ ____
ROOT
ATOM      1  O   UNL     1     -37.179  26.039   3.597  0.00  0.00    -0.440 OA
ATOM      2  O   UNL     1     -33.966  28.449   2.902  0.00  0.00    -0.454 OA
ATOM      3  O   UNL     1     -38.782  24.374   3.750  0.00  0.00    -0.245 OA
ATOM      4  C   UNL     1     -35.867  26.231   2.980  0.00  0.00    +0.198 C 
ATOM      5  C   UNL     1     -35.653  24.910   2.312  0.00  0.00    +0.028 C 
ATOM      6  C   UNL     1     -35.970  27.380   1.998  0.00  0.00    +0.056 C 
ATOM      7  C   UNL     1     -34.863  26.505   4.082  0.00  0.00    +0.056 C 
ATOM      8  C   UNL     1     -36.739  24.087   2.543  0.00  0.00    +0.077 C 
ATOM      9  C   UNL     1     -35.010  28.399   2.010  0.00  0.00    +0.148 C 
ATOM     10  C   UNL     1     -33.971  27.578   3.965  0.00  0.00    +0.148 C 
ATOM     11  C   UNL     1     -37.712  24.798   3.359  0.00  0.00    +0.342 C 
ATOM     12  C   UNL     1     -34.585  24.458   1.553  0.00  0.00    +0.001 C 
ATOM     13  C   UNL     1     -36.997  27.443   1.039  0.00  0.00    +0.006 C 
ATOM     14  C   UNL     1     -34.774  25.686   5.221  0.00  0.00    +0.006 C 
ATOM     15  C   UNL     1     -36.822  22.800   2.046  0.00  0.00    +0.021 C 
ATOM     16  C   UNL     1     -35.750  22.337   1.282  0.00  0.00    +0.050 C 
ATOM     17  C   UNL     1     -34.639  23.161   1.036  0.00  0.00    +0.014 C 
ATOM     18  C   UNL     1     -35.066  29.446   1.084  0.00  0.00    +0.074 C 
ATOM     19  C   UNL     1     -33.011  27.822   4.952  0.00  0.00    +0.074 C 
ATOM     20  C   UNL     1     -37.057  28.492   0.119  0.00  0.00    +0.037 C 
ATOM     21  C   UNL     1     -33.819  25.934   6.210  0.00  0.00    +0.037 C 
ATOM     22  C   UNL     1     -36.090  29.492   0.141  0.00  0.00    +0.137 C 
ATOM     23  C   UNL     1     -32.937  27.000   6.074  0.00  0.00    +0.137 C 
ENDROOT
BRANCH  16  25
ATOM     24  O   UNL     1     -34.433  19.814   2.239  0.00  0.00    -0.275 OA
ATOM     25  N   UNL     1     -35.781  21.045   0.754  0.00  0.00    -0.284 N 
ATOM     26  C   UNL     1     -35.144  19.893   1.243  0.00  0.00    +0.224 C 
ATOM     27  H   UNL     1     -36.318  20.927  -0.063  0.00  0.00    +0.155 HD
BRANCH  26  28
ATOM     28  C   UNL     1     -35.441  18.685   0.363  0.00  0.00    +0.062 C 
BRANCH  28  29
ATOM     29  C   UNL     1     -36.919  18.578   0.001  0.00  0.00    -0.077 C 
BRANCH  29  30
ATOM     30  N   UNL     1     -37.438  17.268   0.374  0.00  0.00    +0.381 N 
ATOM     31  H   UNL     1     -37.775  17.298   1.337  0.00  0.00    -0.089 HD
ATOM     32  H   UNL     1     -36.696  16.573   0.295  0.00  0.00    -0.089 HD
ATOM     33  H   UNL     1     -38.206  17.017  -0.247  0.00  0.00    -0.089 HD
ENDBRANCH  29  30
ENDBRANCH  28  29
ENDBRANCH  26  28
ENDBRANCH  16  25
BRANCH  22  34
ATOM     34  O   UNL     1     -36.145  30.513  -0.757  0.00  0.00    -0.505 OA
ATOM     35  H   UNL     1     -35.828  30.389  -1.629  0.00  0.00    +0.292 HD
ENDBRANCH  22  34
BRANCH  23  36
ATOM     36  O   UNL     1     -32.005  27.241   7.035  0.00  0.00    -0.505 OA
ATOM     37  H   UNL     1     -31.691  26.538   7.571  0.00  0.00    +0.292 HD
ENDBRANCH  23  36
TORSDOF 6
ENDMDL
MODEL 8
REMARK VINA RESULT:      -6.1      3.702      7.909
REMARK  Name = 194543
REMARK  6 active torsions:
REMARK  status: ('A' for Active; 'I' for Inactive)
REMARK    1  A    between atoms: C_16  and  N_25
REMARK    2  A    between atoms: C_22  and  O_34
REMARK    3  A    between atoms: C_23  and  O_36
REMARK    4  A    between atoms: C_26  and  C_28
REMARK    5  A    between atoms: C_28  and  C_29
REMARK    6  A    between atoms: C_29  and  N_30
REMARK                            x       y       z     vdW  Elec       q    Type
REMARK                         _______ _______ _______ _____ _____    ______ ____
ROOT
ATOM      1  O   UNL     1     -35.474  24.572  -0.149  0.00  0.00    -0.440 OA
ATOM      2  O   UNL     1     -35.588  20.727   1.198  0.00  0.00    -0.454 OA
ATOM      3  O   UNL     1     -35.260  26.850  -0.509  0.00  0.00    -0.245 OA
ATOM      4  C   UNL     1     -35.252  23.618   0.937  0.00  0.00    +0.198 C 
ATOM      5  C   UNL     1     -34.757  24.513   2.027  0.00  0.00    +0.028 C 
ATOM      6  C   UNL     1     -36.577  22.961   1.267  0.00  0.00    +0.056 C 
ATOM      7  C   UNL     1     -34.212  22.615   0.478  0.00  0.00    +0.056 C 
ATOM      8  C   UNL     1     -34.715  25.820   1.578  0.00  0.00    +0.077 C 
ATOM      9  C   UNL     1     -36.656  21.570   1.393  0.00  0.00    +0.148 C 
ATOM     10  C   UNL     1     -34.437  21.244   0.653  0.00  0.00    +0.148 C 
ATOM     11  C   UNL     1     -35.170  25.865   0.196  0.00  0.00    +0.342 C 
ATOM     12  C   UNL     1     -34.370  24.210   3.323  0.00  0.00    +0.001 C 
ATOM     13  C   UNL     1     -37.742  23.717   1.486  0.00  0.00    +0.006 C 
ATOM     14  C   UNL     1     -32.995  23.022  -0.097  0.00  0.00    +0.006 C 
ATOM     15  C   UNL     1     -34.298  26.871   2.371  0.00  0.00    +0.021 C 
ATOM     16  C   UNL     1     -33.905  26.574   3.677  0.00  0.00    +0.050 C 
ATOM     17  C   UNL     1     -33.942  25.251   4.151  0.00  0.00    +0.014 C 
ATOM     18  C   UNL     1     -37.861  20.949   1.738  0.00  0.00    +0.074 C 
ATOM     19  C   UNL     1     -33.471  20.306   0.273  0.00  0.00    +0.074 C 
ATOM     20  C   UNL     1     -38.947  23.098   1.823  0.00  0.00    +0.037 C 
ATOM     21  C   UNL     1     -32.034  22.085  -0.483  0.00  0.00    +0.037 C 
ATOM     22  C   UNL     1     -39.006  21.714   1.952  0.00  0.00    +0.137 C 
ATOM     23  C   UNL     1     -32.273  20.727  -0.295  0.00  0.00    +0.137 C 
ENDROOT
BRANCH  16  25
ATOM     24  O   UNL     1     -31.158  27.703   4.121  0.00  0.00    -0.275 OA
ATOM     25  N   UNL     1     -33.474  27.598   4.522  0.00  0.00    -0.284 N 
ATOM     26  C   UNL     1     -32.170  28.091   4.693  0.00  0.00    +0.224 C 
ATOM     27  H   UNL     1     -34.172  28.028   5.067  0.00  0.00    +0.155 HD
BRANCH  26  28
ATOM     28  C   UNL     1     -32.139  29.217   5.719  0.00  0.00    +0.062 C 
BRANCH  28  29
ATOM     29  C   UNL     1     -30.723  29.539   6.186  0.00  0.00    -0.077 C 
BRANCH  29  30
ATOM     30  N   UNL     1     -30.140  28.387   6.864  0.00  0.00    +0.381 N 
ATOM     31  H   UNL     1     -30.862  27.684   7.022  0.00  0.00    -0.089 HD
ATOM     32  H   UNL     1     -29.750  28.681   7.759  0.00  0.00    -0.089 HD
ATOM     33  H   UNL     1     -29.400  27.990   6.285  0.00  0.00    -0.089 HD
ENDBRANCH  29  30
ENDBRANCH  28  29
ENDBRANCH  26  28
ENDBRANCH  16  25
BRANCH  22  34
ATOM     34  O   UNL     1     -40.178  21.108   2.284  0.00  0.00    -0.505 OA
ATOM     35  H   UNL     1     -40.385  20.947   3.183  0.00  0.00    +0.292 HD
ENDBRANCH  22  34
BRANCH  23  36
ATOM     36  O   UNL     1     -31.336  19.814  -0.667  0.00  0.00    -0.505 OA
ATOM     37  H   UNL     1     -31.245  19.576  -1.570  0.00  0.00    +0.292 HD
ENDBRANCH  23  36
TORSDOF 6
ENDMDL
MODEL 9
REMARK VINA RESULT:      -6.1      4.257      7.612
REMARK  Name = 194543
REMARK  6 active torsions:
REMARK  status: ('A' for Active; 'I' for Inactive)
REMARK    1  A    between atoms: C_16  and  N_25
REMARK    2  A    between atoms: C_22  and  O_34
REMARK    3  A    between atoms: C_23  and  O_36
REMARK    4  A    between atoms: C_26  and  C_28
REMARK    5  A    between atoms: C_28  and  C_29
REMARK    6  A    between atoms: C_29  and  N_30
REMARK                            x       y       z     vdW  Elec       q    Type
REMARK                         _______ _______ _______ _____ _____    ______ ____
ROOT
ATOM      1  O   UNL     1     -33.863  24.833   1.585  0.00  0.00    -0.440 OA
ATOM      2  O   UNL     1     -34.236  25.080   5.636  0.00  0.00    -0.454 OA
ATOM      3  O   UNL     1     -34.062  24.856  -0.722  0.00  0.00    -0.245 OA
ATOM      4  C   UNL     1     -34.676  25.182   2.750  0.00  0.00    +0.198 C 
ATOM      5  C   UNL     1     -35.936  25.662   2.103  0.00  0.00    +0.028 C 
ATOM      6  C   UNL     1     -34.877  23.929   3.577  0.00  0.00    +0.056 C 
ATOM      7  C   UNL     1     -33.956  26.270   3.520  0.00  0.00    +0.056 C 
ATOM      8  C   UNL     1     -35.817  25.582   0.728  0.00  0.00    +0.077 C 
ATOM      9  C   UNL     1     -34.663  23.962   4.960  0.00  0.00    +0.148 C 
ATOM     10  C   UNL     1     -33.798  26.158   4.906  0.00  0.00    +0.148 C 
ATOM     11  C   UNL     1     -34.503  25.056   0.392  0.00  0.00    +0.342 C 
ATOM     12  C   UNL     1     -37.106  26.136   2.675  0.00  0.00    +0.001 C 
ATOM     13  C   UNL     1     -35.309  22.722   2.999  0.00  0.00    +0.006 C 
ATOM     14  C   UNL     1     -33.460  27.422   2.883  0.00  0.00    +0.006 C 
ATOM     15  C   UNL     1     -36.830  25.958  -0.134  0.00  0.00    +0.021 C 
ATOM     16  C   UNL     1     -38.012  26.438   0.434  0.00  0.00    +0.050 C 
ATOM     17  C   UNL     1     -38.149  26.525   1.830  0.00  0.00    +0.014 C 
ATOM     18  C   UNL     1     -34.883  22.826   5.746  0.00  0.00    +0.074 C 
ATOM     19  C   UNL     1     -33.172  27.172   5.640  0.00  0.00    +0.074 C 
ATOM     20  C   UNL     1     -35.522  21.586   3.782  0.00  0.00    +0.037 C 
ATOM     21  C   UNL     1     -32.828  28.430   3.615  0.00  0.00    +0.037 C 
ATOM     22  C   UNL     1     -35.312  21.639   5.156  0.00  0.00    +0.137 C 
ATOM     23  C   UNL     1     -32.687  28.305   4.993  0.00  0.00    +0.137 C 
ENDROOT
BRANCH  16  25
ATOM     24  O   UNL     1     -39.207  29.153  -0.030  0.00  0.00    -0.275 OA
ATOM     25  N   UNL     1     -39.067  26.832  -0.390  0.00  0.00    -0.284 N 
ATOM     26  C   UNL     1     -39.590  28.123  -0.572  0.00  0.00    +0.224 C 
ATOM     27  H   UNL     1     -39.499  26.115  -0.908  0.00  0.00    +0.155 HD
BRANCH  26  28
ATOM     28  C   UNL     1     -40.745  28.112  -1.565  0.00  0.00    +0.062 C 
BRANCH  28  29
ATOM     29  C   UNL     1     -41.414  29.477  -1.694  0.00  0.00    -0.077 C 
BRANCH  29  30
ATOM     30  N   UNL     1     -42.197  29.772  -0.500  0.00  0.00    +0.381 N 
ATOM     31  H   UNL     1     -41.996  29.076   0.219  0.00  0.00    -0.089 HD
ATOM     32  H   UNL     1     -43.190  29.747  -0.730  0.00  0.00    -0.089 HD
ATOM     33  H   UNL     1     -41.952  30.699  -0.153  0.00  0.00    -0.089 HD
ENDBRANCH  29  30
ENDBRANCH  28  29
ENDBRANCH  26  28
ENDBRANCH  16  25
BRANCH  22  34
ATOM     34  O   UNL     1     -35.522  20.534   5.922  0.00  0.00    -0.505 OA
ATOM     35  H   UNL     1     -36.290  20.013   5.794  0.00  0.00    +0.292 HD
ENDBRANCH  22  34
BRANCH  23  36
ATOM     36  O   UNL     1     -32.074  29.288   5.707  0.00  0.00    -0.505 OA
ATOM     37  H   UNL     1     -31.414  29.818   5.305  0.00  0.00    +0.292 HD
ENDBRANCH  23  36
TORSDOF 6
ENDMDL
