MODEL 1
REMARK VINA RESULT:      -6.5      0.000      0.000
REMARK  Name = 52918070
REMARK  4 active torsions:
REMARK  status: ('A' for Active; 'I' for Inactive)
REMARK    1  A    between atoms: C_6  and  N_22
REMARK    2  A    between atoms: C_11  and  C_14
REMARK    3  A    between atoms: C_19  and  O_20
REMARK    4  A    between atoms: N_22  and  C_25
REMARK                            x       y       z     vdW  Elec       q    Type
REMARK                         _______ _______ _______ _____ _____    ______ ____
ROOT
ATOM      1 CL   UNL     1     -34.546  29.472   3.090  0.00  0.00    -0.109 Cl
ATOM      2  O   UNL     1     -33.909  26.524   3.463  0.00  0.00    -0.454 OA
ATOM      3  O   UNL     1     -33.186  27.032   6.912  0.00  0.00    -0.266 OA
ATOM      4  N   UNL     1     -32.444  27.725   4.792  0.00  0.00    -0.221 N 
ATOM      5  C   UNL     1     -32.775  27.389   3.438  0.00  0.00    +0.263 C 
ATOM      6  C   UNL     1     -31.850  29.040   4.933  0.00  0.00    +0.187 C 
ATOM      7  C   UNL     1     -32.939  28.755   2.774  0.00  0.00    +0.144 C 
ATOM      8  C   UNL     1     -31.837  29.567   3.486  0.00  0.00    +0.067 C 
ATOM      9  C   UNL     1     -33.164  26.992   5.699  0.00  0.00    +0.287 C 
ATOM     10  C   UNL     1     -34.028  26.185   4.809  0.00  0.00    +0.194 C 
ATOM     11  C   UNL     1     -34.869  25.253   5.261  0.00  0.00    +0.042 C 
ENDROOT
BRANCH  11  14
ATOM     12 BR   UNL     1     -35.506  20.709   2.570  0.00  0.00    -0.046 Br
ATOM     13 BR   UNL     1     -39.621  24.700   2.935  0.00  0.00    -0.046 Br
ATOM     14  C   UNL     1     -35.756  24.414   4.435  0.00  0.00    +0.004 C 
ATOM     15  C   UNL     1     -37.042  24.856   4.121  0.00  0.00    +0.010 C 
ATOM     16  C   UNL     1     -35.311  23.178   3.967  0.00  0.00    +0.010 C 
ATOM     17  C   UNL     1     -36.151  22.384   3.185  0.00  0.00    +0.069 C 
ATOM     18  C   UNL     1     -37.881  24.062   3.340  0.00  0.00    +0.069 C 
ATOM     19  C   UNL     1     -37.435  22.826   2.872  0.00  0.00    +0.151 C 
BRANCH  19  20
ATOM     20  O   UNL     1     -38.257  22.049   2.107  0.00  0.00    -0.470 OA
ATOM     21  C   UNL     1     -38.193  22.239   0.696  0.00  0.00    +0.253 C 
ENDBRANCH  19  20
ENDBRANCH  11  14
BRANCH   6  22
ATOM     22  N   UNL     1     -30.495  28.973   5.468  0.00  0.00    -0.221 NA
BRANCH  22  25
ATOM     23  N   UNL     1     -29.186  29.176   7.472  0.00  0.00    -0.370 N 
ATOM     24  N   UNL     1     -31.437  29.529   7.516  0.00  0.00    -0.370 N 
ATOM     25  C   UNL     1     -30.351  29.206   6.738  0.00  0.00    +0.190 C 
ATOM     26  H   UNL     1     -28.333  28.957   7.031  0.00  0.00    +0.159 HD
ATOM     27  H   UNL     1     -29.206  29.373   8.435  0.00  0.00    +0.159 HD
ATOM     28  H   UNL     1     -32.333  29.585   7.113  0.00  0.00    +0.159 HD
ATOM     29  H   UNL     1     -31.319  29.705   8.478  0.00  0.00    +0.159 HD
ENDBRANCH  22  25
ENDBRANCH   6  22
TORSDOF 4
ENDMDL
MODEL 2
REMARK VINA RESULT:      -6.5      0.015      1.890
REMARK  Name = 52918070
REMARK  4 active torsions:
REMARK  status: ('A' for Active; 'I' for Inactive)
REMARK    1  A    between atoms: C_6  and  N_22
REMARK    2  A    between atoms: C_11  and  C_14
REMARK    3  A    between atoms: C_19  and  O_20
REMARK    4  A    between atoms: N_22  and  C_25
REMARK                            x       y       z     vdW  Elec       q    Type
REMARK                         _______ _______ _______ _____ _____    ______ ____
ROOT
ATOM      1 CL   UNL     1     -34.566  29.479   3.098  0.00  0.00    -0.109 Cl
ATOM      2  O   UNL     1     -33.920  26.531   3.459  0.00  0.00    -0.454 OA
ATOM      3  O   UNL     1     -33.176  27.033   6.905  0.00  0.00    -0.266 OA
ATOM      4  N   UNL     1     -32.448  27.732   4.782  0.00  0.00    -0.221 N 
ATOM      5  C   UNL     1     -32.788  27.399   3.430  0.00  0.00    +0.263 C 
ATOM      6  C   UNL     1     -31.857  29.049   4.923  0.00  0.00    +0.187 C 
ATOM      7  C   UNL     1     -32.959  28.766   2.770  0.00  0.00    +0.144 C 
ATOM      8  C   UNL     1     -31.855  29.579   3.477  0.00  0.00    +0.067 C 
ATOM      9  C   UNL     1     -33.162  26.996   5.692  0.00  0.00    +0.287 C 
ATOM     10  C   UNL     1     -34.030  26.189   4.805  0.00  0.00    +0.194 C 
ATOM     11  C   UNL     1     -34.865  25.253   5.260  0.00  0.00    +0.042 C 
ENDROOT
BRANCH  11  14
ATOM     12 BR   UNL     1     -39.623  24.706   2.946  0.00  0.00    -0.046 Br
ATOM     13 BR   UNL     1     -35.515  20.709   2.575  0.00  0.00    -0.046 Br
ATOM     14  C   UNL     1     -35.755  24.415   4.438  0.00  0.00    +0.004 C 
ATOM     15  C   UNL     1     -35.313  23.178   3.969  0.00  0.00    +0.010 C 
ATOM     16  C   UNL     1     -37.041  24.859   4.126  0.00  0.00    +0.010 C 
ATOM     17  C   UNL     1     -37.883  24.065   3.347  0.00  0.00    +0.069 C 
ATOM     18  C   UNL     1     -36.155  22.384   3.190  0.00  0.00    +0.069 C 
ATOM     19  C   UNL     1     -37.440  22.829   2.879  0.00  0.00    +0.151 C 
BRANCH  19  20
ATOM     20  O   UNL     1     -38.265  22.052   2.117  0.00  0.00    -0.470 OA
ATOM     21  C   UNL     1     -38.201  22.236   0.705  0.00  0.00    +0.253 C 
ENDBRANCH  19  20
ENDBRANCH  11  14
BRANCH   6  22
ATOM     22  N   UNL     1     -30.499  28.984   5.448  0.00  0.00    -0.221 NA
BRANCH  22  25
ATOM     23  N   UNL     1     -29.179  29.170   7.447  0.00  0.00    -0.370 N 
ATOM     24  N   UNL     1     -31.427  29.537   7.504  0.00  0.00    -0.370 N 
ATOM     25  C   UNL     1     -30.347  29.211   6.719  0.00  0.00    +0.190 C 
ATOM     26  H   UNL     1     -28.329  28.947   7.002  0.00  0.00    +0.159 HD
ATOM     27  H   UNL     1     -29.193  29.363   8.411  0.00  0.00    +0.159 HD
ATOM     28  H   UNL     1     -32.325  29.600   7.105  0.00  0.00    +0.159 HD
ATOM     29  H   UNL     1     -31.304  29.708   8.465  0.00  0.00    +0.159 HD
ENDBRANCH  22  25
ENDBRANCH   6  22
TORSDOF 4
ENDMDL
MODEL 3
REMARK VINA RESULT:      -6.1      1.648      2.782
REMARK  Name = 52918070
REMARK  4 active torsions:
REMARK  status: ('A' for Active; 'I' for Inactive)
REMARK    1  A    between atoms: C_6  and  N_22
REMARK    2  A    between atoms: C_11  and  C_14
REMARK    3  A    between atoms: C_19  and  O_20
REMARK    4  A    between atoms: N_22  and  C_25
REMARK                            x       y       z     vdW  Elec       q    Type
REMARK                         _______ _______ _______ _____ _____    ______ ____
ROOT
ATOM      1 CL   UNL     1     -35.303  27.912   2.179  0.00  0.00    -0.109 Cl
ATOM      2  O   UNL     1     -34.320  25.085   2.710  0.00  0.00    -0.454 OA
ATOM      3  O   UNL     1     -34.348  25.649   6.226  0.00  0.00    -0.266 OA
ATOM      4  N   UNL     1     -33.327  26.472   4.275  0.00  0.00    -0.221 N 
ATOM      5  C   UNL     1     -33.343  26.109   2.888  0.00  0.00    +0.263 C 
ATOM      6  C   UNL     1     -32.972  27.859   4.506  0.00  0.00    +0.187 C 
ATOM      7  C   UNL     1     -33.577  27.444   2.184  0.00  0.00    +0.144 C 
ATOM      8  C   UNL     1     -32.763  28.401   3.080  0.00  0.00    +0.067 C 
ATOM      9  C   UNL     1     -34.091  25.629   5.040  0.00  0.00    +0.287 C 
ATOM     10  C   UNL     1     -34.642  24.714   4.014  0.00  0.00    +0.194 C 
ATOM     11  C   UNL     1     -35.406  23.662   4.312  0.00  0.00    +0.042 C 
ENDROOT
BRANCH  11  14
ATOM     12 BR   UNL     1     -39.719  22.074   1.636  0.00  0.00    -0.046 Br
ATOM     13 BR   UNL     1     -34.618  19.486   1.114  0.00  0.00    -0.046 Br
ATOM     14  C   UNL     1     -35.986  22.713   3.346  0.00  0.00    +0.004 C 
ATOM     15  C   UNL     1     -35.188  21.720   2.778  0.00  0.00    +0.010 C 
ATOM     16  C   UNL     1     -37.334  22.808   2.998  0.00  0.00    +0.010 C 
ATOM     17  C   UNL     1     -37.882  21.909   2.082  0.00  0.00    +0.069 C 
ATOM     18  C   UNL     1     -35.737  20.821   1.863  0.00  0.00    +0.069 C 
ATOM     19  C   UNL     1     -37.084  20.917   1.515  0.00  0.00    +0.151 C 
BRANCH  19  20
ATOM     20  O   UNL     1     -37.621  20.037   0.620  0.00  0.00    -0.470 OA
ATOM     21  C   UNL     1     -37.570  20.406  -0.756  0.00  0.00    +0.253 C 
ENDBRANCH  19  20
ENDBRANCH  11  14
BRANCH   6  22
ATOM     22  N   UNL     1     -31.749  27.986   5.288  0.00  0.00    -0.221 NA
BRANCH  22  25
ATOM     23  N   UNL     1     -32.560  27.514   7.500  0.00  0.00    -0.370 N 
ATOM     24  N   UNL     1     -31.314  29.378   7.095  0.00  0.00    -0.370 N 
ATOM     25  C   UNL     1     -31.883  28.250   6.554  0.00  0.00    +0.190 C 
ATOM     26  H   UNL     1     -33.014  26.679   7.241  0.00  0.00    +0.159 HD
ATOM     27  H   UNL     1     -32.590  27.821   8.434  0.00  0.00    +0.159 HD
ATOM     28  H   UNL     1     -30.800  29.994   6.524  0.00  0.00    +0.159 HD
ATOM     29  H   UNL     1     -31.421  29.571   8.055  0.00  0.00    +0.159 HD
ENDBRANCH  22  25
ENDBRANCH   6  22
TORSDOF 4
ENDMDL
MODEL 4
REMARK VINA RESULT:      -6.0      1.837      2.340
REMARK  Name = 52918070
REMARK  4 active torsions:
REMARK  status: ('A' for Active; 'I' for Inactive)
REMARK    1  A    between atoms: C_6  and  N_22
REMARK    2  A    between atoms: C_11  and  C_14
REMARK    3  A    between atoms: C_19  and  O_20
REMARK    4  A    between atoms: N_22  and  C_25
REMARK                            x       y       z     vdW  Elec       q    Type
REMARK                         _______ _______ _______ _____ _____    ______ ____
ROOT
ATOM      1 CL   UNL     1     -35.167  27.643   1.761  0.00  0.00    -0.109 Cl
ATOM      2  O   UNL     1     -34.240  24.841   2.485  0.00  0.00    -0.454 OA
ATOM      3  O   UNL     1     -34.454  25.582   5.962  0.00  0.00    -0.266 OA
ATOM      4  N   UNL     1     -33.321  26.299   4.031  0.00  0.00    -0.221 N 
ATOM      5  C   UNL     1     -33.265  25.866   2.665  0.00  0.00    +0.263 C 
ATOM      6  C   UNL     1     -32.966  27.694   4.212  0.00  0.00    +0.187 C 
ATOM      7  C   UNL     1     -33.448  27.166   1.884  0.00  0.00    +0.144 C 
ATOM      8  C   UNL     1     -32.676  28.161   2.774  0.00  0.00    +0.067 C 
ATOM      9  C   UNL     1     -34.133  25.500   4.794  0.00  0.00    +0.287 C 
ATOM     10  C   UNL     1     -34.635  24.539   3.787  0.00  0.00    +0.194 C 
ATOM     11  C   UNL     1     -35.424  23.508   4.095  0.00  0.00    +0.042 C 
ENDROOT
BRANCH  11  14
ATOM     12 BR   UNL     1     -34.440  19.316   0.973  0.00  0.00    -0.046 Br
ATOM     13 BR   UNL     1     -39.660  21.663   1.461  0.00  0.00    -0.046 Br
ATOM     14  C   UNL     1     -35.959  22.515   3.147  0.00  0.00    +0.004 C 
ATOM     15  C   UNL     1     -37.311  22.537   2.802  0.00  0.00    +0.010 C 
ATOM     16  C   UNL     1     -35.115  21.551   2.596  0.00  0.00    +0.010 C 
ATOM     17  C   UNL     1     -35.623  20.610   1.699  0.00  0.00    +0.069 C 
ATOM     18  C   UNL     1     -37.818  21.597   1.905  0.00  0.00    +0.069 C 
ATOM     19  C   UNL     1     -36.973  20.633   1.354  0.00  0.00    +0.151 C 
BRANCH  19  20
ATOM     20  O   UNL     1     -37.469  19.713   0.476  0.00  0.00    -0.470 OA
ATOM     21  C   UNL     1     -37.441  20.061  -0.906  0.00  0.00    +0.253 C 
ENDBRANCH  19  20
ENDBRANCH  11  14
BRANCH   6  22
ATOM     22  N   UNL     1     -31.786  27.852   5.052  0.00  0.00    -0.221 NA
BRANCH  22  25
ATOM     23  N   UNL     1     -32.420  27.407   7.327  0.00  0.00    -0.370 N 
ATOM     24  N   UNL     1     -31.761  29.495   6.694  0.00  0.00    -0.370 N 
ATOM     25  C   UNL     1     -31.986  28.201   6.288  0.00  0.00    +0.190 C 
ATOM     26  H   UNL     1     -32.618  26.456   7.169  0.00  0.00    +0.159 HD
ATOM     27  H   UNL     1     -32.533  27.791   8.225  0.00  0.00    +0.159 HD
ATOM     28  H   UNL     1     -31.446  30.166   6.046  0.00  0.00    +0.159 HD
ATOM     29  H   UNL     1     -31.914  29.751   7.632  0.00  0.00    +0.159 HD
ENDBRANCH  22  25
ENDBRANCH   6  22
TORSDOF 4
ENDMDL
MODEL 5
REMARK VINA RESULT:      -5.9      1.703      2.761
REMARK  Name = 52918070
REMARK  4 active torsions:
REMARK  status: ('A' for Active; 'I' for Inactive)
REMARK    1  A    between atoms: C_6  and  N_22
REMARK    2  A    between atoms: C_11  and  C_14
REMARK    3  A    between atoms: C_19  and  O_20
REMARK    4  A    between atoms: N_22  and  C_25
REMARK                            x       y       z     vdW  Elec       q    Type
REMARK                         _______ _______ _______ _____ _____    ______ ____
ROOT
ATOM      1 CL   UNL     1     -32.476  29.787   2.478  0.00  0.00    -0.109 Cl
ATOM      2  O   UNL     1     -32.366  27.152   3.989  0.00  0.00    -0.454 OA
ATOM      3  O   UNL     1     -31.911  28.852   7.085  0.00  0.00    -0.266 OA
ATOM      4  N   UNL     1     -30.862  28.594   4.997  0.00  0.00    -0.221 N 
ATOM      5  C   UNL     1     -31.110  27.807   3.824  0.00  0.00    +0.263 C 
ATOM      6  C   UNL     1     -30.079  29.787   4.738  0.00  0.00    +0.187 C 
ATOM      7  C   UNL     1     -30.983  28.825   2.693  0.00  0.00    +0.144 C 
ATOM      8  C   UNL     1     -29.840  29.717   3.219  0.00  0.00    +0.067 C 
ATOM      9  C   UNL     1     -31.777  28.350   5.987  0.00  0.00    +0.287 C 
ATOM     10  C   UNL     1     -32.670  27.368   5.331  0.00  0.00    +0.194 C 
ATOM     11  C   UNL     1     -33.691  26.781   5.958  0.00  0.00    +0.042 C 
ENDROOT
BRANCH  11  14
ATOM     12 BR   UNL     1     -37.806  25.897   2.707  0.00  0.00    -0.046 Br
ATOM     13 BR   UNL     1     -35.202  21.692   5.627  0.00  0.00    -0.046 Br
ATOM     14  C   UNL     1     -34.617  25.798   5.369  0.00  0.00    +0.004 C 
ATOM     15  C   UNL     1     -34.507  24.448   5.703  0.00  0.00    +0.010 C 
ATOM     16  C   UNL     1     -35.604  26.216   4.476  0.00  0.00    +0.010 C 
ATOM     17  C   UNL     1     -36.480  25.285   3.918  0.00  0.00    +0.069 C 
ATOM     18  C   UNL     1     -35.384  23.517   5.145  0.00  0.00    +0.069 C 
ATOM     19  C   UNL     1     -36.370  23.937   4.252  0.00  0.00    +0.151 C 
BRANCH  19  20
ATOM     20  O   UNL     1     -37.228  23.025   3.707  0.00  0.00    -0.470 OA
ATOM     21  C   UNL     1     -36.822  22.406   2.489  0.00  0.00    +0.253 C 
ENDBRANCH  19  20
ENDBRANCH  11  14
BRANCH   6  22
ATOM     22  N   UNL     1     -28.812  29.775   5.459  0.00  0.00    -0.221 NA
BRANCH  22  25
ATOM     23  N   UNL     1     -27.916  27.546   5.493  0.00  0.00    -0.370 N 
ATOM     24  N   UNL     1     -28.692  28.513   7.405  0.00  0.00    -0.370 N 
ATOM     25  C   UNL     1     -28.483  28.668   6.055  0.00  0.00    +0.190 C 
ATOM     26  H   UNL     1     -27.715  27.527   4.529  0.00  0.00    +0.159 HD
ATOM     27  H   UNL     1     -27.712  26.764   6.054  0.00  0.00    +0.159 HD
ATOM     28  H   UNL     1     -29.093  29.244   7.929  0.00  0.00    +0.159 HD
ATOM     29  H   UNL     1     -28.440  27.671   7.849  0.00  0.00    +0.159 HD
ENDBRANCH  22  25
ENDBRANCH   6  22
TORSDOF 4
ENDMDL
MODEL 6
REMARK VINA RESULT:      -5.9      4.135      5.877
REMARK  Name = 52918070
REMARK  4 active torsions:
REMARK  status: ('A' for Active; 'I' for Inactive)
REMARK    1  A    between atoms: C_6  and  N_22
REMARK    2  A    between atoms: C_11  and  C_14
REMARK    3  A    between atoms: C_19  and  O_20
REMARK    4  A    between atoms: N_22  and  C_25
REMARK                            x       y       z     vdW  Elec       q    Type
REMARK                         _______ _______ _______ _____ _____    ______ ____
ROOT
ATOM      1 CL   UNL     1     -36.794  24.925  -0.059  0.00  0.00    -0.109 Cl
ATOM      2  O   UNL     1     -34.833  22.957   1.172  0.00  0.00    -0.454 OA
ATOM      3  O   UNL     1     -36.236  23.458   4.407  0.00  0.00    -0.266 OA
ATOM      4  N   UNL     1     -35.157  24.665   2.701  0.00  0.00    -0.221 N 
ATOM      5  C   UNL     1     -34.560  24.332   1.441  0.00  0.00    +0.263 C 
ATOM      6  C   UNL     1     -35.585  26.048   2.792  0.00  0.00    +0.187 C 
ATOM      7  C   UNL     1     -35.153  25.372   0.493  0.00  0.00    +0.144 C 
ATOM      8  C   UNL     1     -35.212  26.612   1.409  0.00  0.00    +0.067 C 
ATOM      9  C   UNL     1     -35.637  23.560   3.355  0.00  0.00    +0.287 C 
ATOM     10  C   UNL     1     -35.339  22.486   2.381  0.00  0.00    +0.194 C 
ATOM     11  C   UNL     1     -35.574  21.195   2.627  0.00  0.00    +0.042 C 
ENDROOT
BRANCH  11  14
ATOM     12 BR   UNL     1     -37.489  17.846  -1.034  0.00  0.00    -0.046 Br
ATOM     13 BR   UNL     1     -32.012  17.751   0.694  0.00  0.00    -0.046 Br
ATOM     14  C   UNL     1     -35.302  20.076   1.707  0.00  0.00    +0.004 C 
ATOM     15  C   UNL     1     -34.022  19.528   1.633  0.00  0.00    +0.010 C 
ATOM     16  C   UNL     1     -36.326  19.567   0.907  0.00  0.00    +0.010 C 
ATOM     17  C   UNL     1     -36.069  18.508   0.036  0.00  0.00    +0.069 C 
ATOM     18  C   UNL     1     -33.765  18.469   0.762  0.00  0.00    +0.069 C 
ATOM     19  C   UNL     1     -34.789  17.960  -0.037  0.00  0.00    +0.151 C 
BRANCH  19  20
ATOM     20  O   UNL     1     -34.538  16.924  -0.889  0.00  0.00    -0.470 OA
ATOM     21  C   UNL     1     -34.746  15.608  -0.384  0.00  0.00    +0.253 C 
ENDBRANCH  19  20
ENDBRANCH  11  14
BRANCH   6  22
ATOM     22  N   UNL     1     -34.883  26.768   3.847  0.00  0.00    -0.221 NA
BRANCH  22  25
ATOM     23  N   UNL     1     -36.490  26.370   5.588  0.00  0.00    -0.370 N 
ATOM     24  N   UNL     1     -34.256  26.287   6.031  0.00  0.00    -0.370 N 
ATOM     25  C   UNL     1     -35.219  26.494   5.072  0.00  0.00    +0.190 C 
ATOM     26  H   UNL     1     -37.272  26.494   5.003  0.00  0.00    +0.159 HD
ATOM     27  H   UNL     1     -36.616  26.157   6.541  0.00  0.00    +0.159 HD
ATOM     28  H   UNL     1     -33.303  26.347   5.793  0.00  0.00    +0.159 HD
ATOM     29  H   UNL     1     -34.519  26.080   6.957  0.00  0.00    +0.159 HD
ENDBRANCH  22  25
ENDBRANCH   6  22
TORSDOF 4
ENDMDL
MODEL 7
REMARK VINA RESULT:      -5.9      4.129      5.650
REMARK  Name = 52918070
REMARK  4 active torsions:
REMARK  status: ('A' for Active; 'I' for Inactive)
REMARK    1  A    between atoms: C_6  and  N_22
REMARK    2  A    between atoms: C_11  and  C_14
REMARK    3  A    between atoms: C_19  and  O_20
REMARK    4  A    between atoms: N_22  and  C_25
REMARK                            x       y       z     vdW  Elec       q    Type
REMARK                         _______ _______ _______ _____ _____    ______ ____
ROOT
ATOM      1 CL   UNL     1     -36.654  24.978  -0.089  0.00  0.00    -0.109 Cl
ATOM      2  O   UNL     1     -34.760  22.978   1.195  0.00  0.00    -0.454 OA
ATOM      3  O   UNL     1     -36.263  23.480   4.385  0.00  0.00    -0.266 OA
ATOM      4  N   UNL     1     -35.113  24.681   2.723  0.00  0.00    -0.221 N 
ATOM      5  C   UNL     1     -34.479  24.347   1.481  0.00  0.00    +0.263 C 
ATOM      6  C   UNL     1     -35.525  26.069   2.807  0.00  0.00    +0.187 C 
ATOM      7  C   UNL     1     -35.026  25.400   0.520  0.00  0.00    +0.144 C 
ATOM      8  C   UNL     1     -35.099  26.635   1.441  0.00  0.00    +0.067 C 
ATOM      9  C   UNL     1     -35.629  23.579   3.354  0.00  0.00    +0.287 C 
ATOM     10  C   UNL     1     -35.312  22.506   2.384  0.00  0.00    +0.194 C 
ATOM     11  C   UNL     1     -35.572  21.218   2.615  0.00  0.00    +0.042 C 
ENDROOT
BRANCH  11  14
ATOM     12 BR   UNL     1     -31.977  17.777   0.738  0.00  0.00    -0.046 Br
ATOM     13 BR   UNL     1     -37.425  17.868  -1.078  0.00  0.00    -0.046 Br
ATOM     14  C   UNL     1     -35.285  20.100   1.697  0.00  0.00    +0.004 C 
ATOM     15  C   UNL     1     -36.295  19.590   0.882  0.00  0.00    +0.010 C 
ATOM     16  C   UNL     1     -34.003  19.552   1.645  0.00  0.00    +0.010 C 
ATOM     17  C   UNL     1     -33.733  18.494   0.777  0.00  0.00    +0.069 C 
ATOM     18  C   UNL     1     -36.024  18.532   0.014  0.00  0.00    +0.069 C 
ATOM     19  C   UNL     1     -34.742  17.984  -0.038  0.00  0.00    +0.151 C 
BRANCH  19  20
ATOM     20  O   UNL     1     -34.477  16.949  -0.888  0.00  0.00    -0.470 OA
ATOM     21  C   UNL     1     -34.682  15.632  -0.383  0.00  0.00    +0.253 C 
ENDBRANCH  19  20
ENDBRANCH  11  14
BRANCH   6  22
ATOM     22  N   UNL     1     -34.849  26.774   3.889  0.00  0.00    -0.221 NA
BRANCH  22  25
ATOM     23  N   UNL     1     -36.493  26.350   5.590  0.00  0.00    -0.370 N 
ATOM     24  N   UNL     1     -34.268  26.251   6.076  0.00  0.00    -0.370 N 
ATOM     25  C   UNL     1     -35.211  26.479   5.102  0.00  0.00    +0.190 C 
ATOM     26  H   UNL     1     -37.262  26.488   4.991  0.00  0.00    +0.159 HD
ATOM     27  H   UNL     1     -36.638  26.121   6.535  0.00  0.00    +0.159 HD
ATOM     28  H   UNL     1     -33.310  26.312   5.859  0.00  0.00    +0.159 HD
ATOM     29  H   UNL     1     -34.551  26.028   6.993  0.00  0.00    +0.159 HD
ENDBRANCH  22  25
ENDBRANCH   6  22
TORSDOF 4
ENDMDL
MODEL 8
REMARK VINA RESULT:      -5.8      5.164      7.039
REMARK  Name = 52918070
REMARK  4 active torsions:
REMARK  status: ('A' for Active; 'I' for Inactive)
REMARK    1  A    between atoms: C_6  and  N_22
REMARK    2  A    between atoms: C_11  and  C_14
REMARK    3  A    between atoms: C_19  and  O_20
REMARK    4  A    between atoms: N_22  and  C_25
REMARK                            x       y       z     vdW  Elec       q    Type
REMARK                         _______ _______ _______ _____ _____    ______ ____
ROOT
ATOM      1 CL   UNL     1     -36.559  23.677  -0.837  0.00  0.00    -0.109 Cl
ATOM      2  O   UNL     1     -34.395  22.158   0.664  0.00  0.00    -0.454 OA
ATOM      3  O   UNL     1     -36.331  22.194   3.653  0.00  0.00    -0.266 OA
ATOM      4  N   UNL     1     -35.324  23.683   2.137  0.00  0.00    -0.221 N 
ATOM      5  C   UNL     1     -34.490  23.546   0.979  0.00  0.00    +0.263 C 
ATOM      6  C   UNL     1     -36.068  24.927   2.171  0.00  0.00    +0.187 C 
ATOM      7  C   UNL     1     -35.163  24.462  -0.041  0.00  0.00    +0.144 C 
ATOM      8  C   UNL     1     -35.640  25.618   0.864  0.00  0.00    +0.067 C 
ATOM      9  C   UNL     1     -35.625  22.472   2.705  0.00  0.00    +0.287 C 
ATOM     10  C   UNL     1     -34.949  21.535   1.780  0.00  0.00    +0.194 C 
ATOM     11  C   UNL     1     -34.912  20.216   1.979  0.00  0.00    +0.042 C 
ENDROOT
BRANCH  11  14
ATOM     12 BR   UNL     1     -30.435  17.657   0.674  0.00  0.00    -0.046 Br
ATOM     13 BR   UNL     1     -35.420  16.764  -2.035  0.00  0.00    -0.046 Br
ATOM     14  C   UNL     1     -34.258  19.227   1.103  0.00  0.00    +0.004 C 
ATOM     15  C   UNL     1     -34.998  18.570   0.119  0.00  0.00    +0.010 C 
ATOM     16  C   UNL     1     -32.901  18.946   1.258  0.00  0.00    +0.010 C 
ATOM     17  C   UNL     1     -32.283  18.009   0.429  0.00  0.00    +0.069 C 
ATOM     18  C   UNL     1     -34.380  17.634  -0.710  0.00  0.00    +0.069 C 
ATOM     19  C   UNL     1     -33.022  17.354  -0.554  0.00  0.00    +0.151 C 
BRANCH  19  20
ATOM     20  O   UNL     1     -32.418  16.437  -1.366  0.00  0.00    -0.470 OA
ATOM     21  C   UNL     1     -32.403  15.086  -0.914  0.00  0.00    +0.253 C 
ENDBRANCH  19  20
ENDBRANCH  11  14
BRANCH   6  22
ATOM     22  N   UNL     1     -35.713  25.745   3.325  0.00  0.00    -0.221 NA
BRANCH  22  25
ATOM     23  N   UNL     1     -36.443  26.456   5.500  0.00  0.00    -0.370 N 
ATOM     24  N   UNL     1     -37.685  24.982   4.284  0.00  0.00    -0.370 N 
ATOM     25  C   UNL     1     -36.544  25.748   4.324  0.00  0.00    +0.190 C 
ATOM     26  H   UNL     1     -35.669  27.045   5.654  0.00  0.00    +0.159 HD
ATOM     27  H   UNL     1     -37.144  26.374   6.186  0.00  0.00    +0.159 HD
ATOM     28  H   UNL     1     -37.878  24.425   3.496  0.00  0.00    +0.159 HD
ATOM     29  H   UNL     1     -38.310  24.990   5.046  0.00  0.00    +0.159 HD
ENDBRANCH  22  25
ENDBRANCH   6  22
TORSDOF 4
ENDMDL
MODEL 9
REMARK VINA RESULT:      -5.8      5.137      7.130
REMARK  Name = 52918070
REMARK  4 active torsions:
REMARK  status: ('A' for Active; 'I' for Inactive)
REMARK    1  A    between atoms: C_6  and  N_22
REMARK    2  A    between atoms: C_11  and  C_14
REMARK    3  A    between atoms: C_19  and  O_20
REMARK    4  A    between atoms: N_22  and  C_25
REMARK                            x       y       z     vdW  Elec       q    Type
REMARK                         _______ _______ _______ _____ _____    ______ ____
ROOT
ATOM      1 CL   UNL     1     -36.468  23.721  -0.865  0.00  0.00    -0.109 Cl
ATOM      2  O   UNL     1     -34.360  22.173   0.683  0.00  0.00    -0.454 OA
ATOM      3  O   UNL     1     -36.350  22.253   3.634  0.00  0.00    -0.266 OA
ATOM      4  N   UNL     1     -35.291  23.719   2.132  0.00  0.00    -0.221 N 
ATOM      5  C   UNL     1     -34.437  23.564   0.991  0.00  0.00    +0.263 C 
ATOM      6  C   UNL     1     -36.015  24.976   2.147  0.00  0.00    +0.187 C 
ATOM      7  C   UNL     1     -35.076  24.486  -0.045  0.00  0.00    +0.144 C 
ATOM      8  C   UNL     1     -35.550  25.653   0.845  0.00  0.00    +0.067 C 
ATOM      9  C   UNL     1     -35.623  22.515   2.698  0.00  0.00    +0.287 C 
ATOM     10  C   UNL     1     -34.944  21.563   1.790  0.00  0.00    +0.194 C 
ATOM     11  C   UNL     1     -34.933  20.245   1.995  0.00  0.00    +0.042 C 
ENDROOT
BRANCH  11  14
ATOM     12 BR   UNL     1     -35.434  16.756  -1.987  0.00  0.00    -0.046 Br
ATOM     13 BR   UNL     1     -30.464  17.641   0.753  0.00  0.00    -0.046 Br
ATOM     14  C   UNL     1     -34.280  19.242   1.136  0.00  0.00    +0.004 C 
ATOM     15  C   UNL     1     -32.925  18.954   1.304  0.00  0.00    +0.010 C 
ATOM     16  C   UNL     1     -35.016  18.580   0.152  0.00  0.00    +0.010 C 
ATOM     17  C   UNL     1     -34.397  17.631  -0.662  0.00  0.00    +0.069 C 
ATOM     18  C   UNL     1     -32.307  18.004   0.491  0.00  0.00    +0.069 C 
ATOM     19  C   UNL     1     -33.043  17.344  -0.492  0.00  0.00    +0.151 C 
BRANCH  19  20
ATOM     20  O   UNL     1     -32.438  16.414  -1.289  0.00  0.00    -0.470 OA
ATOM     21  C   UNL     1     -32.415  15.072  -0.810  0.00  0.00    +0.253 C 
ENDBRANCH  19  20
ENDBRANCH  11  14
BRANCH   6  22
ATOM     22  N   UNL     1     -35.668  25.792   3.304  0.00  0.00    -0.221 NA
BRANCH  22  25
ATOM     23  N   UNL     1     -37.614  24.989   4.462  0.00  0.00    -0.370 N 
ATOM     24  N   UNL     1     -36.313  26.623   5.374  0.00  0.00    -0.370 N 
ATOM     25  C   UNL     1     -36.497  25.780   4.304  0.00  0.00    +0.190 C 
ATOM     26  H   UNL     1     -37.858  24.339   3.764  0.00  0.00    +0.159 HD
ATOM     27  H   UNL     1     -38.166  25.074   5.271  0.00  0.00    +0.159 HD
ATOM     28  H   UNL     1     -35.549  27.243   5.387  0.00  0.00    +0.159 HD
ATOM     29  H   UNL     1     -36.947  26.608   6.128  0.00  0.00    +0.159 HD
ENDBRANCH  22  25
ENDBRANCH   6  22
TORSDOF 4
ENDMDL
