MODEL 1
REMARK VINA RESULT:      -5.7      0.000      0.000
REMARK  Name = 59805911
REMARK  10 active torsions:
REMARK  status: ('A' for Active; 'I' for Inactive)
REMARK    1  A    between atoms: C_1  and  N_3
REMARK    2  A    between atoms: C_1  and  C_15
REMARK    3  A    between atoms: C_1  and  C_22
REMARK    4  A    between atoms: C_4  and  C_7
REMARK    5  A    between atoms: C_8  and  C_10
REMARK    6  A    between atoms: C_10  and  O_11
REMARK    7  A    between atoms: N_14  and  C_17
REMARK    8  A    between atoms: C_17  and  C_18
REMARK    9  A    between atoms: C_18  and  C_19
REMARK   10  A    between atoms: C_22  and  C_23
REMARK                            x       y       z     vdW  Elec       q    Type
REMARK                         _______ _______ _______ _____ _____    ______ ____
ROOT
ATOM      1  C   UNL     1     -36.162  24.946   4.236  0.00  0.00    +0.149 C 
ENDROOT
BRANCH   1   3
ATOM      2  O   UNL     1     -38.114  24.142   2.236  0.00  0.00    -0.272 OA
ATOM      3  N   UNL     1     -37.589  25.139   4.274  0.00  0.00    -0.296 N 
ATOM      4  C   UNL     1     -38.441  24.718   3.267  0.00  0.00    +0.253 C 
ATOM      5  H   UNL     1     -37.979  25.593   5.056  0.00  0.00    +0.150 HD
BRANCH   4   7
ATOM      6  O   UNL     1     -40.706  24.946   2.347  0.00  0.00    -0.333 OA
ATOM      7  C   UNL     1     -39.882  25.020   3.517  0.00  0.00    +0.229 C 
ATOM      8  C   UNL     1     -40.527  26.241   2.932  0.00  0.00    +0.250 C 
BRANCH   8  10
ATOM      9  O   UNL     1     -42.866  26.452   3.185  0.00  0.00    -0.247 OA
ATOM     10  C   UNL     1     -41.745  26.807   3.520  0.00  0.00    +0.344 C 
BRANCH  10  11
ATOM     11  O   UNL     1     -41.477  27.745   4.460  0.00  0.00    -0.478 OA
ATOM     12  H   UNL     1     -41.249  28.616   4.201  0.00  0.00    +0.295 HD
ENDBRANCH  10  11
ENDBRANCH   8  10
ENDBRANCH   4   7
ENDBRANCH   1   3
BRANCH   1  15
ATOM     13  O   UNL     1     -34.919  26.760   5.261  0.00  0.00    -0.273 OA
ATOM     14  N   UNL     1     -35.661  27.006   3.073  0.00  0.00    -0.303 N 
ATOM     15  C   UNL     1     -35.522  26.331   4.278  0.00  0.00    +0.240 C 
ATOM     16  H   UNL     1     -36.165  26.570   2.349  0.00  0.00    +0.149 HD
BRANCH  14  17
ATOM     17  C   UNL     1     -35.102  28.315   2.831  0.00  0.00    +0.089 C 
BRANCH  17  18
ATOM     18  C   UNL     1     -35.853  29.079   1.743  0.00  0.00    +0.021 C 
BRANCH  18  19
ATOM     19  C   UNL     1     -35.665  30.609   1.770  0.00  0.00    +0.002 C 
ATOM     20  C   UNL     1     -36.924  31.361   1.337  0.00  0.00    +0.000 C 
ATOM     21  C   UNL     1     -35.257  31.053   3.178  0.00  0.00    +0.000 C 
ENDBRANCH  18  19
ENDBRANCH  17  18
ENDBRANCH  14  17
ENDBRANCH   1  15
BRANCH   1  22
ATOM     22  C   UNL     1     -35.660  24.093   5.408  0.00  0.00    +0.029 C 
BRANCH  22  23
ATOM     23  C   UNL     1     -35.840  22.573   5.224  0.00  0.00    +0.002 C 
ATOM     24  C   UNL     1     -34.911  21.823   6.183  0.00  0.00    +0.000 C 
ATOM     25  C   UNL     1     -35.568  22.123   3.789  0.00  0.00    +0.000 C 
ENDBRANCH  22  23
ENDBRANCH   1  22
TORSDOF 10
ENDMDL
MODEL 2
REMARK VINA RESULT:      -5.6      2.840      4.972
REMARK  Name = 59805911
REMARK  10 active torsions:
REMARK  status: ('A' for Active; 'I' for Inactive)
REMARK    1  A    between atoms: C_1  and  N_3
REMARK    2  A    between atoms: C_1  and  C_15
REMARK    3  A    between atoms: C_1  and  C_22
REMARK    4  A    between atoms: C_4  and  C_7
REMARK    5  A    between atoms: C_8  and  C_10
REMARK    6  A    between atoms: C_10  and  O_11
REMARK    7  A    between atoms: N_14  and  C_17
REMARK    8  A    between atoms: C_17  and  C_18
REMARK    9  A    between atoms: C_18  and  C_19
REMARK   10  A    between atoms: C_22  and  C_23
REMARK                            x       y       z     vdW  Elec       q    Type
REMARK                         _______ _______ _______ _____ _____    ______ ____
ROOT
ATOM      1  C   UNL     1     -39.057  25.155   2.710  0.00  0.00    +0.149 C 
ENDROOT
BRANCH   1   3
ATOM      2  O   UNL     1     -41.595  26.229   1.779  0.00  0.00    -0.272 OA
ATOM      3  N   UNL     1     -40.093  25.769   3.499  0.00  0.00    -0.296 N 
ATOM      4  C   UNL     1     -41.274  26.252   2.962  0.00  0.00    +0.253 C 
ATOM      5  H   UNL     1     -39.956  25.848   4.471  0.00  0.00    +0.150 HD
BRANCH   4   7
ATOM      6  O   UNL     1     -43.552  26.998   3.495  0.00  0.00    -0.333 OA
ATOM      7  C   UNL     1     -42.207  26.846   3.966  0.00  0.00    +0.229 C 
ATOM      8  C   UNL     1     -42.814  28.200   3.748  0.00  0.00    +0.250 C 
BRANCH   8  10
ATOM      9  O   UNL     1     -42.621  29.767   5.505  0.00  0.00    -0.247 OA
ATOM     10  C   UNL     1     -43.322  28.989   4.875  0.00  0.00    +0.344 C 
BRANCH  10  11
ATOM     11  O   UNL     1     -44.634  28.754   5.119  0.00  0.00    -0.478 OA
ATOM     12  H   UNL     1     -45.291  29.223   4.644  0.00  0.00    +0.295 HD
ENDBRANCH  10  11
ENDBRANCH   8  10
ENDBRANCH   4   7
ENDBRANCH   1   3
BRANCH   1  15
ATOM     13  O   UNL     1     -37.043  26.504   2.643  0.00  0.00    -0.273 OA
ATOM     14  N   UNL     1     -37.411  25.130   4.480  0.00  0.00    -0.303 N 
ATOM     15  C   UNL     1     -37.724  25.672   3.240  0.00  0.00    +0.240 C 
ATOM     16  H   UNL     1     -38.027  24.469   4.869  0.00  0.00    +0.149 HD
BRANCH  14  17
ATOM     17  C   UNL     1     -36.228  25.491   5.226  0.00  0.00    +0.089 C 
BRANCH  17  18
ATOM     18  C   UNL     1     -35.195  24.368   5.261  0.00  0.00    +0.021 C 
BRANCH  18  19
ATOM     19  C   UNL     1     -35.778  22.942   5.207  0.00  0.00    +0.002 C 
ATOM     20  C   UNL     1     -35.478  22.237   3.882  0.00  0.00    +0.000 C 
ATOM     21  C   UNL     1     -35.224  22.113   6.369  0.00  0.00    +0.000 C 
ENDBRANCH  18  19
ENDBRANCH  17  18
ENDBRANCH  14  17
ENDBRANCH   1  15
BRANCH   1  22
ATOM     22  C   UNL     1     -39.100  23.623   2.784  0.00  0.00    +0.029 C 
BRANCH  22  23
ATOM     23  C   UNL     1     -39.038  22.907   1.420  0.00  0.00    +0.002 C 
ATOM     24  C   UNL     1     -39.604  21.491   1.554  0.00  0.00    +0.000 C 
ATOM     25  C   UNL     1     -37.617  22.842   0.860  0.00  0.00    +0.000 C 
ENDBRANCH  22  23
ENDBRANCH   1  22
TORSDOF 10
ENDMDL
MODEL 3
REMARK VINA RESULT:      -5.6      3.866      6.349
REMARK  Name = 59805911
REMARK  10 active torsions:
REMARK  status: ('A' for Active; 'I' for Inactive)
REMARK    1  A    between atoms: C_1  and  N_3
REMARK    2  A    between atoms: C_1  and  C_15
REMARK    3  A    between atoms: C_1  and  C_22
REMARK    4  A    between atoms: C_4  and  C_7
REMARK    5  A    between atoms: C_8  and  C_10
REMARK    6  A    between atoms: C_10  and  O_11
REMARK    7  A    between atoms: N_14  and  C_17
REMARK    8  A    between atoms: C_17  and  C_18
REMARK    9  A    between atoms: C_18  and  C_19
REMARK   10  A    between atoms: C_22  and  C_23
REMARK                            x       y       z     vdW  Elec       q    Type
REMARK                         _______ _______ _______ _____ _____    ______ ____
ROOT
ATOM      1  C   UNL     1     -35.889  20.738   2.392  0.00  0.00    +0.149 C 
ENDROOT
BRANCH   1   3
ATOM      2  O   UNL     1     -34.957  20.865   5.144  0.00  0.00    -0.272 OA
ATOM      3  N   UNL     1     -35.958  21.861   3.291  0.00  0.00    -0.296 N 
ATOM      4  C   UNL     1     -35.484  21.824   4.591  0.00  0.00    +0.253 C 
ATOM      5  H   UNL     1     -36.361  22.697   2.965  0.00  0.00    +0.150 HD
BRANCH   4   7
ATOM      6  O   UNL     1     -36.781  23.884   4.918  0.00  0.00    -0.333 OA
ATOM      7  C   UNL     1     -35.656  23.104   5.342  0.00  0.00    +0.229 C 
ATOM      8  C   UNL     1     -35.481  24.428   4.659  0.00  0.00    +0.250 C 
BRANCH   8  10
ATOM      9  O   UNL     1     -34.075  25.850   5.916  0.00  0.00    -0.247 OA
ATOM     10  C   UNL     1     -35.175  25.639   5.429  0.00  0.00    +0.344 C 
BRANCH  10  11
ATOM     11  O   UNL     1     -36.240  26.472   5.525  0.00  0.00    -0.478 OA
ATOM     12  H   UNL     1     -36.374  26.974   6.305  0.00  0.00    +0.295 HD
ENDBRANCH  10  11
ENDBRANCH   8  10
ENDBRANCH   4   7
ENDBRANCH   1   3
BRANCH   1  15
ATOM     13  O   UNL     1     -37.334  20.113   0.547  0.00  0.00    -0.273 OA
ATOM     14  N   UNL     1     -38.222  21.363   2.292  0.00  0.00    -0.303 N 
ATOM     15  C   UNL     1     -37.204  20.702   1.618  0.00  0.00    +0.240 C 
ATOM     16  H   UNL     1     -38.008  21.804   3.145  0.00  0.00    +0.149 HD
BRANCH  14  17
ATOM     17  C   UNL     1     -39.579  21.434   1.801  0.00  0.00    +0.089 C 
BRANCH  17  18
ATOM     18  C   UNL     1     -40.061  22.872   1.623  0.00  0.00    +0.021 C 
BRANCH  18  19
ATOM     19  C   UNL     1     -39.123  23.951   2.200  0.00  0.00    +0.002 C 
ATOM     20  C   UNL     1     -38.521  24.844   1.113  0.00  0.00    +0.000 C 
ATOM     21  C   UNL     1     -39.887  24.811   3.210  0.00  0.00    +0.000 C 
ENDBRANCH  18  19
ENDBRANCH  17  18
ENDBRANCH  14  17
ENDBRANCH   1  15
BRANCH   1  22
ATOM     22  C   UNL     1     -34.705  20.842   1.421  0.00  0.00    +0.029 C 
BRANCH  22  23
ATOM     23  C   UNL     1     -33.834  19.574   1.326  0.00  0.00    +0.002 C 
ATOM     24  C   UNL     1     -32.501  19.912   0.653  0.00  0.00    +0.000 C 
ATOM     25  C   UNL     1     -34.526  18.447   0.558  0.00  0.00    +0.000 C 
ENDBRANCH  22  23
ENDBRANCH   1  22
TORSDOF 10
ENDMDL
MODEL 4
REMARK VINA RESULT:      -5.5      1.121      1.701
REMARK  Name = 59805911
REMARK  10 active torsions:
REMARK  status: ('A' for Active; 'I' for Inactive)
REMARK    1  A    between atoms: C_1  and  N_3
REMARK    2  A    between atoms: C_1  and  C_15
REMARK    3  A    between atoms: C_1  and  C_22
REMARK    4  A    between atoms: C_4  and  C_7
REMARK    5  A    between atoms: C_8  and  C_10
REMARK    6  A    between atoms: C_10  and  O_11
REMARK    7  A    between atoms: N_14  and  C_17
REMARK    8  A    between atoms: C_17  and  C_18
REMARK    9  A    between atoms: C_18  and  C_19
REMARK   10  A    between atoms: C_22  and  C_23
REMARK                            x       y       z     vdW  Elec       q    Type
REMARK                         _______ _______ _______ _____ _____    ______ ____
ROOT
ATOM      1  C   UNL     1     -36.259  24.941   4.260  0.00  0.00    +0.149 C 
ENDROOT
BRANCH   1   3
ATOM      2  O   UNL     1     -38.162  24.056   2.247  0.00  0.00    -0.272 OA
ATOM      3  N   UNL     1     -37.685  25.142   4.252  0.00  0.00    -0.296 N 
ATOM      4  C   UNL     1     -38.512  24.679   3.243  0.00  0.00    +0.253 C 
ATOM      5  H   UNL     1     -38.093  25.632   5.002  0.00  0.00    +0.150 HD
BRANCH   4   7
ATOM      6  O   UNL     1     -40.713  25.067   2.225  0.00  0.00    -0.333 OA
ATOM      7  C   UNL     1     -39.958  24.998   3.442  0.00  0.00    +0.229 C 
ATOM      8  C   UNL     1     -40.537  26.291   2.948  0.00  0.00    +0.250 C 
BRANCH   8  10
ATOM      9  O   UNL     1     -42.882  26.451   3.176  0.00  0.00    -0.247 OA
ATOM     10  C   UNL     1     -41.774  26.831   3.522  0.00  0.00    +0.344 C 
BRANCH  10  11
ATOM     11  O   UNL     1     -41.536  27.779   4.460  0.00  0.00    -0.478 OA
ATOM     12  H   UNL     1     -40.807  28.361   4.365  0.00  0.00    +0.295 HD
ENDBRANCH  10  11
ENDBRANCH   8  10
ENDBRANCH   4   7
ENDBRANCH   1   3
BRANCH   1  15
ATOM     13  O   UNL     1     -35.007  26.767   5.251  0.00  0.00    -0.273 OA
ATOM     14  N   UNL     1     -35.749  26.976   3.059  0.00  0.00    -0.303 N 
ATOM     15  C   UNL     1     -35.612  26.323   4.277  0.00  0.00    +0.240 C 
ATOM     16  H   UNL     1     -36.255  26.529   2.344  0.00  0.00    +0.149 HD
BRANCH  14  17
ATOM     17  C   UNL     1     -35.184  28.279   2.792  0.00  0.00    +0.089 C 
BRANCH  17  18
ATOM     18  C   UNL     1     -33.709  28.207   2.402  0.00  0.00    +0.021 C 
BRANCH  18  19
ATOM     19  C   UNL     1     -32.803  29.253   3.079  0.00  0.00    +0.002 C 
ATOM     20  C   UNL     1     -33.547  30.550   3.402  0.00  0.00    +0.000 C 
ATOM     21  C   UNL     1     -32.208  28.666   4.363  0.00  0.00    +0.000 C 
ENDBRANCH  18  19
ENDBRANCH  17  18
ENDBRANCH  14  17
ENDBRANCH   1  15
BRANCH   1  22
ATOM     22  C   UNL     1     -35.794  24.123   5.472  0.00  0.00    +0.029 C 
BRANCH  22  23
ATOM     23  C   UNL     1     -35.058  22.813   5.124  0.00  0.00    +0.002 C 
ATOM     24  C   UNL     1     -35.643  22.218   3.840  0.00  0.00    +0.000 C 
ATOM     25  C   UNL     1     -35.138  21.783   6.251  0.00  0.00    +0.000 C 
ENDBRANCH  22  23
ENDBRANCH   1  22
TORSDOF 10
ENDMDL
MODEL 5
REMARK VINA RESULT:      -5.4      3.412      6.743
REMARK  Name = 59805911
REMARK  10 active torsions:
REMARK  status: ('A' for Active; 'I' for Inactive)
REMARK    1  A    between atoms: C_1  and  N_3
REMARK    2  A    between atoms: C_1  and  C_15
REMARK    3  A    between atoms: C_1  and  C_22
REMARK    4  A    between atoms: C_4  and  C_7
REMARK    5  A    between atoms: C_8  and  C_10
REMARK    6  A    between atoms: C_10  and  O_11
REMARK    7  A    between atoms: N_14  and  C_17
REMARK    8  A    between atoms: C_17  and  C_18
REMARK    9  A    between atoms: C_18  and  C_19
REMARK   10  A    between atoms: C_22  and  C_23
REMARK                            x       y       z     vdW  Elec       q    Type
REMARK                         _______ _______ _______ _____ _____    ______ ____
ROOT
ATOM      1  C   UNL     1     -35.612  25.496   5.165  0.00  0.00    +0.149 C 
ENDROOT
BRANCH   1   3
ATOM      2  O   UNL     1     -32.924  25.764   4.088  0.00  0.00    -0.272 OA
ATOM      3  N   UNL     1     -34.739  26.637   5.258  0.00  0.00    -0.296 N 
ATOM      4  C   UNL     1     -33.468  26.670   4.709  0.00  0.00    +0.253 C 
ATOM      5  H   UNL     1     -35.061  27.435   5.736  0.00  0.00    +0.150 HD
BRANCH   4   7
ATOM      6  O   UNL     1     -31.323  27.864   4.734  0.00  0.00    -0.333 OA
ATOM      7  C   UNL     1     -32.741  27.956   4.925  0.00  0.00    +0.229 C 
ATOM      8  C   UNL     1     -31.781  28.117   6.068  0.00  0.00    +0.250 C 
BRANCH   8  10
ATOM      9  O   UNL     1     -31.024  30.345   5.857  0.00  0.00    -0.247 OA
ATOM     10  C   UNL     1     -31.434  29.447   6.579  0.00  0.00    +0.344 C 
BRANCH  10  11
ATOM     11  O   UNL     1     -31.622  29.551   7.916  0.00  0.00    -0.478 OA
ATOM     12  H   UNL     1     -31.122  30.168   8.414  0.00  0.00    +0.295 HD
ENDBRANCH  10  11
ENDBRANCH   8  10
ENDBRANCH   4   7
ENDBRANCH   1   3
BRANCH   1  15
ATOM     13  O   UNL     1     -35.866  25.546   2.753  0.00  0.00    -0.273 OA
ATOM     14  N   UNL     1     -37.750  25.817   4.084  0.00  0.00    -0.303 N 
ATOM     15  C   UNL     1     -36.392  25.634   3.861  0.00  0.00    +0.240 C 
ATOM     16  H   UNL     1     -38.067  25.874   5.014  0.00  0.00    +0.149 HD
BRANCH  14  17
ATOM     17  C   UNL     1     -38.720  25.925   3.018  0.00  0.00    +0.089 C 
BRANCH  17  18
ATOM     18  C   UNL     1     -39.663  24.726   2.963  0.00  0.00    +0.021 C 
BRANCH  18  19
ATOM     19  C   UNL     1     -39.465  23.795   1.750  0.00  0.00    +0.002 C 
ATOM     20  C   UNL     1     -38.524  24.393   0.702  0.00  0.00    +0.000 C 
ATOM     21  C   UNL     1     -38.921  22.443   2.221  0.00  0.00    +0.000 C 
ENDBRANCH  18  19
ENDBRANCH  17  18
ENDBRANCH  14  17
ENDBRANCH   1  15
BRANCH   1  22
ATOM     22  C   UNL     1     -34.840  24.171   5.183  0.00  0.00    +0.029 C 
BRANCH  22  23
ATOM     23  C   UNL     1     -35.724  22.907   5.205  0.00  0.00    +0.002 C 
ATOM     24  C   UNL     1     -35.363  22.046   6.418  0.00  0.00    +0.000 C 
ATOM     25  C   UNL     1     -35.589  22.079   3.928  0.00  0.00    +0.000 C 
ENDBRANCH  22  23
ENDBRANCH   1  22
TORSDOF 10
ENDMDL
MODEL 6
REMARK VINA RESULT:      -5.4      6.004      8.512
REMARK  Name = 59805911
REMARK  10 active torsions:
REMARK  status: ('A' for Active; 'I' for Inactive)
REMARK    1  A    between atoms: C_1  and  N_3
REMARK    2  A    between atoms: C_1  and  C_15
REMARK    3  A    between atoms: C_1  and  C_22
REMARK    4  A    between atoms: C_4  and  C_7
REMARK    5  A    between atoms: C_8  and  C_10
REMARK    6  A    between atoms: C_10  and  O_11
REMARK    7  A    between atoms: N_14  and  C_17
REMARK    8  A    between atoms: C_17  and  C_18
REMARK    9  A    between atoms: C_18  and  C_19
REMARK   10  A    between atoms: C_22  and  C_23
REMARK                            x       y       z     vdW  Elec       q    Type
REMARK                         _______ _______ _______ _____ _____    ______ ____
ROOT
ATOM      1  C   UNL     1     -35.876  19.783   0.714  0.00  0.00    +0.149 C 
ENDROOT
BRANCH   1   3
ATOM      2  O   UNL     1     -36.071  17.646  -1.249  0.00  0.00    -0.272 OA
ATOM      3  N   UNL     1     -36.704  18.606   0.777  0.00  0.00    -0.296 N 
ATOM      4  C   UNL     1     -36.728  17.640  -0.214  0.00  0.00    +0.253 C 
ATOM      5  H   UNL     1     -37.283  18.483   1.564  0.00  0.00    +0.150 HD
BRANCH   4   7
ATOM      6  O   UNL     1     -37.374  15.320  -0.697  0.00  0.00    -0.333 OA
ATOM      7  C   UNL     1     -37.658  16.504   0.061  0.00  0.00    +0.229 C 
ATOM      8  C   UNL     1     -38.597  16.004  -0.997  0.00  0.00    +0.250 C 
BRANCH   8  10
ATOM      9  O   UNL     1     -40.922  15.752  -0.662  0.00  0.00    -0.247 OA
ATOM     10  C   UNL     1     -39.806  15.254  -0.640  0.00  0.00    +0.344 C 
BRANCH  10  11
ATOM     11  O   UNL     1     -39.535  13.973  -0.293  0.00  0.00    -0.478 OA
ATOM     12  H   UNL     1     -39.396  13.749   0.606  0.00  0.00    +0.295 HD
ENDBRANCH  10  11
ENDBRANCH   8  10
ENDBRANCH   4   7
ENDBRANCH   1   3
BRANCH   1  15
ATOM     13  O   UNL     1     -37.761  21.307   0.817  0.00  0.00    -0.273 OA
ATOM     14  N   UNL     1     -36.104  21.463   2.437  0.00  0.00    -0.303 N 
ATOM     15  C   UNL     1     -36.691  20.935   1.295  0.00  0.00    +0.240 C 
ATOM     16  H   UNL     1     -35.243  21.092   2.734  0.00  0.00    +0.149 HD
BRANCH  14  17
ATOM     17  C   UNL     1     -36.697  22.530   3.210  0.00  0.00    +0.089 C 
BRANCH  17  18
ATOM     18  C   UNL     1     -35.663  23.546   3.692  0.00  0.00    +0.021 C 
BRANCH  18  19
ATOM     19  C   UNL     1     -35.663  23.806   5.212  0.00  0.00    +0.002 C 
ATOM     20  C   UNL     1     -35.318  22.553   6.019  0.00  0.00    +0.000 C 
ATOM     21  C   UNL     1     -34.670  24.924   5.544  0.00  0.00    +0.000 C 
ENDBRANCH  18  19
ENDBRANCH  17  18
ENDBRANCH  14  17
ENDBRANCH   1  15
BRANCH   1  22
ATOM     22  C   UNL     1     -34.566  19.614   1.494  0.00  0.00    +0.029 C 
BRANCH  22  23
ATOM     23  C   UNL     1     -33.361  19.165   0.643  0.00  0.00    +0.002 C 
ATOM     24  C   UNL     1     -32.540  18.129   1.416  0.00  0.00    +0.000 C 
ATOM     25  C   UNL     1     -32.464  20.336   0.240  0.00  0.00    +0.000 C 
ENDBRANCH  22  23
ENDBRANCH   1  22
TORSDOF 10
ENDMDL
MODEL 7
REMARK VINA RESULT:      -5.2      3.345      5.955
REMARK  Name = 59805911
REMARK  10 active torsions:
REMARK  status: ('A' for Active; 'I' for Inactive)
REMARK    1  A    between atoms: C_1  and  N_3
REMARK    2  A    between atoms: C_1  and  C_15
REMARK    3  A    between atoms: C_1  and  C_22
REMARK    4  A    between atoms: C_4  and  C_7
REMARK    5  A    between atoms: C_8  and  C_10
REMARK    6  A    between atoms: C_10  and  O_11
REMARK    7  A    between atoms: N_14  and  C_17
REMARK    8  A    between atoms: C_17  and  C_18
REMARK    9  A    between atoms: C_18  and  C_19
REMARK   10  A    between atoms: C_22  and  C_23
REMARK                            x       y       z     vdW  Elec       q    Type
REMARK                         _______ _______ _______ _____ _____    ______ ____
ROOT
ATOM      1  C   UNL     1     -36.161  22.133   3.608  0.00  0.00    +0.149 C 
ENDROOT
BRANCH   1   3
ATOM      2  O   UNL     1     -36.939  24.074   1.586  0.00  0.00    -0.272 OA
ATOM      3  N   UNL     1     -37.462  22.714   3.404  0.00  0.00    -0.296 N 
ATOM      4  C   UNL     1     -37.736  23.636   2.408  0.00  0.00    +0.253 C 
ATOM      5  H   UNL     1     -38.195  22.443   4.003  0.00  0.00    +0.150 HD
BRANCH   4   7
ATOM      6  O   UNL     1     -39.541  24.722   1.145  0.00  0.00    -0.333 OA
ATOM      7  C   UNL     1     -39.154  24.104   2.380  0.00  0.00    +0.229 C 
ATOM      8  C   UNL     1     -39.483  25.566   2.302  0.00  0.00    +0.250 C 
BRANCH   8  10
ATOM      9  O   UNL     1     -41.812  25.900   2.098  0.00  0.00    -0.247 OA
ATOM     10  C   UNL     1     -40.787  26.070   2.742  0.00  0.00    +0.344 C 
BRANCH  10  11
ATOM     11  O   UNL     1     -40.714  26.729   3.924  0.00  0.00    -0.478 OA
ATOM     12  H   UNL     1     -39.879  26.916   4.305  0.00  0.00    +0.295 HD
ENDBRANCH  10  11
ENDBRANCH   8  10
ENDBRANCH   4   7
ENDBRANCH   1   3
BRANCH   1  15
ATOM     13  O   UNL     1     -36.467  20.195   2.182  0.00  0.00    -0.273 OA
ATOM     14  N   UNL     1     -34.905  21.800   1.569  0.00  0.00    -0.303 N 
ATOM     15  C   UNL     1     -35.871  21.248   2.399  0.00  0.00    +0.240 C 
ATOM     16  H   UNL     1     -34.489  22.651   1.838  0.00  0.00    +0.149 HD
BRANCH  14  17
ATOM     17  C   UNL     1     -34.483  21.189   0.330  0.00  0.00    +0.089 C 
BRANCH  17  18
ATOM     18  C   UNL     1     -32.982  20.911   0.298  0.00  0.00    +0.021 C 
BRANCH  18  19
ATOM     19  C   UNL     1     -32.596  19.420   0.235  0.00  0.00    +0.002 C 
ATOM     20  C   UNL     1     -31.081  19.210   0.178  0.00  0.00    +0.000 C 
ATOM     21  C   UNL     1     -33.173  18.685   1.448  0.00  0.00    +0.000 C 
ENDBRANCH  18  19
ENDBRANCH  17  18
ENDBRANCH  14  17
ENDBRANCH   1  15
BRANCH   1  22
ATOM     22  C   UNL     1     -35.066  23.197   3.760  0.00  0.00    +0.029 C 
BRANCH  22  23
ATOM     23  C   UNL     1     -34.786  23.632   5.213  0.00  0.00    +0.002 C 
ATOM     24  C   UNL     1     -35.204  22.518   6.176  0.00  0.00    +0.000 C 
ATOM     25  C   UNL     1     -35.509  24.928   5.582  0.00  0.00    +0.000 C 
ENDBRANCH  22  23
ENDBRANCH   1  22
TORSDOF 10
ENDMDL
MODEL 8
REMARK VINA RESULT:      -5.1      3.332      6.387
REMARK  Name = 59805911
REMARK  10 active torsions:
REMARK  status: ('A' for Active; 'I' for Inactive)
REMARK    1  A    between atoms: C_1  and  N_3
REMARK    2  A    between atoms: C_1  and  C_15
REMARK    3  A    between atoms: C_1  and  C_22
REMARK    4  A    between atoms: C_4  and  C_7
REMARK    5  A    between atoms: C_8  and  C_10
REMARK    6  A    between atoms: C_10  and  O_11
REMARK    7  A    between atoms: N_14  and  C_17
REMARK    8  A    between atoms: C_17  and  C_18
REMARK    9  A    between atoms: C_18  and  C_19
REMARK   10  A    between atoms: C_22  and  C_23
REMARK                            x       y       z     vdW  Elec       q    Type
REMARK                         _______ _______ _______ _____ _____    ______ ____
ROOT
ATOM      1  C   UNL     1     -36.715  22.591   3.031  0.00  0.00    +0.149 C 
ENDROOT
BRANCH   1   3
ATOM      2  O   UNL     1     -38.778  24.484   3.816  0.00  0.00    -0.272 OA
ATOM      3  N   UNL     1     -36.988  23.881   2.453  0.00  0.00    -0.296 N 
ATOM      4  C   UNL     1     -37.998  24.715   2.899  0.00  0.00    +0.253 C 
ATOM      5  H   UNL     1     -36.428  24.185   1.703  0.00  0.00    +0.150 HD
BRANCH   4   7
ATOM      6  O   UNL     1     -39.331  26.710   2.370  0.00  0.00    -0.333 OA
ATOM      7  C   UNL     1     -38.100  26.006   2.155  0.00  0.00    +0.229 C 
ATOM      8  C   UNL     1     -39.104  26.186   1.055  0.00  0.00    +0.250 C 
BRANCH   8  10
ATOM      9  O   UNL     1     -38.204  27.047  -0.952  0.00  0.00    -0.247 OA
ATOM     10  C   UNL     1     -38.920  27.213   0.025  0.00  0.00    +0.344 C 
BRANCH  10  11
ATOM     11  O   UNL     1     -39.627  28.339   0.287  0.00  0.00    -0.478 OA
ATOM     12  H   UNL     1     -39.452  29.125  -0.194  0.00  0.00    +0.295 HD
ENDBRANCH  10  11
ENDBRANCH   8  10
ENDBRANCH   4   7
ENDBRANCH   1   3
BRANCH   1  15
ATOM     13  O   UNL     1     -37.249  21.605   0.880  0.00  0.00    -0.273 OA
ATOM     14  N   UNL     1     -35.429  20.785   2.067  0.00  0.00    -0.303 N 
ATOM     15  C   UNL     1     -36.527  21.612   1.875  0.00  0.00    +0.240 C 
ATOM     16  H   UNL     1     -34.917  20.873   2.903  0.00  0.00    +0.149 HD
BRANCH  14  17
ATOM     17  C   UNL     1     -35.000  19.802   1.099  0.00  0.00    +0.089 C 
BRANCH  17  18
ATOM     18  C   UNL     1     -33.664  19.162   1.469  0.00  0.00    +0.021 C 
BRANCH  18  19
ATOM     19  C   UNL     1     -32.452  19.668   0.662  0.00  0.00    +0.002 C 
ATOM     20  C   UNL     1     -31.350  18.613   0.539  0.00  0.00    +0.000 C 
ATOM     21  C   UNL     1     -32.907  20.104  -0.733  0.00  0.00    +0.000 C 
ENDBRANCH  18  19
ENDBRANCH  17  18
ENDBRANCH  14  17
ENDBRANCH   1  15
BRANCH   1  22
ATOM     22  C   UNL     1     -35.466  22.605   3.921  0.00  0.00    +0.029 C 
BRANCH  22  23
ATOM     23  C   UNL     1     -35.697  23.138   5.350  0.00  0.00    +0.002 C 
ATOM     24  C   UNL     1     -34.939  24.455   5.539  0.00  0.00    +0.000 C 
ATOM     25  C   UNL     1     -35.263  22.138   6.422  0.00  0.00    +0.000 C 
ENDBRANCH  22  23
ENDBRANCH   1  22
TORSDOF 10
ENDMDL
MODEL 9
REMARK VINA RESULT:      -5.1      2.123      5.319
REMARK  Name = 59805911
REMARK  10 active torsions:
REMARK  status: ('A' for Active; 'I' for Inactive)
REMARK    1  A    between atoms: C_1  and  N_3
REMARK    2  A    between atoms: C_1  and  C_15
REMARK    3  A    between atoms: C_1  and  C_22
REMARK    4  A    between atoms: C_4  and  C_7
REMARK    5  A    between atoms: C_8  and  C_10
REMARK    6  A    between atoms: C_10  and  O_11
REMARK    7  A    between atoms: N_14  and  C_17
REMARK    8  A    between atoms: C_17  and  C_18
REMARK    9  A    between atoms: C_18  and  C_19
REMARK   10  A    between atoms: C_22  and  C_23
REMARK                            x       y       z     vdW  Elec       q    Type
REMARK                         _______ _______ _______ _____ _____    ______ ____
ROOT
ATOM      1  C   UNL     1     -36.090  24.501   4.580  0.00  0.00    +0.149 C 
ENDROOT
BRANCH   1   3
ATOM      2  O   UNL     1     -37.726  23.979   2.232  0.00  0.00    -0.272 OA
ATOM      3  N   UNL     1     -37.504  24.726   4.428  0.00  0.00    -0.296 N 
ATOM      4  C   UNL     1     -38.198  24.444   3.264  0.00  0.00    +0.253 C 
ATOM      5  H   UNL     1     -38.003  25.099   5.190  0.00  0.00    +0.150 HD
BRANCH   4   7
ATOM      6  O   UNL     1     -40.327  24.691   2.064  0.00  0.00    -0.333 OA
ATOM      7  C   UNL     1     -39.657  24.754   3.330  0.00  0.00    +0.229 C 
ATOM      8  C   UNL     1     -40.216  25.983   2.674  0.00  0.00    +0.250 C 
BRANCH   8  10
ATOM      9  O   UNL     1     -42.559  26.265   2.576  0.00  0.00    -0.247 OA
ATOM     10  C   UNL     1     -41.496  26.553   3.106  0.00  0.00    +0.344 C 
BRANCH  10  11
ATOM     11  O   UNL     1     -41.353  27.416   4.141  0.00  0.00    -0.478 OA
ATOM     12  H   UNL     1     -40.634  28.017   4.154  0.00  0.00    +0.295 HD
ENDBRANCH  10  11
ENDBRANCH   8  10
ENDBRANCH   4   7
ENDBRANCH   1   3
BRANCH   1  15
ATOM     13  O   UNL     1     -36.068  22.384   5.764  0.00  0.00    -0.273 OA
ATOM     14  N   UNL     1     -35.531  22.409   3.504  0.00  0.00    -0.303 N 
ATOM     15  C   UNL     1     -35.888  22.994   4.712  0.00  0.00    +0.240 C 
ATOM     16  H   UNL     1     -35.411  22.992   2.720  0.00  0.00    +0.149 HD
BRANCH  14  17
ATOM     17  C   UNL     1     -35.329  20.988   3.342  0.00  0.00    +0.089 C 
BRANCH  17  18
ATOM     18  C   UNL     1     -35.819  20.478   1.989  0.00  0.00    +0.021 C 
BRANCH  18  19
ATOM     19  C   UNL     1     -34.707  20.153   0.972  0.00  0.00    +0.002 C 
ATOM     20  C   UNL     1     -33.979  21.406   0.481  0.00  0.00    +0.000 C 
ATOM     21  C   UNL     1     -33.701  19.185   1.600  0.00  0.00    +0.000 C 
ENDBRANCH  18  19
ENDBRANCH  17  18
ENDBRANCH  14  17
ENDBRANCH   1  15
BRANCH   1  22
ATOM     22  C   UNL     1     -35.284  25.042   3.392  0.00  0.00    +0.029 C 
BRANCH  22  23
ATOM     23  C   UNL     1     -34.259  26.137   3.752  0.00  0.00    +0.002 C 
ATOM     24  C   UNL     1     -34.055  26.174   5.269  0.00  0.00    +0.000 C 
ATOM     25  C   UNL     1     -34.684  27.519   3.256  0.00  0.00    +0.000 C 
ENDBRANCH  22  23
ENDBRANCH   1  22
TORSDOF 10
ENDMDL
