MODEL 1
REMARK VINA RESULT:      -7.2      0.000      0.000
REMARK  Name = 191336
REMARK  7 active torsions:
REMARK  status: ('A' for Active; 'I' for Inactive)
REMARK    1  A    between atoms: C_2  and  C_15
REMARK    2  A    between atoms: C_9  and  O_25
REMARK    3  A    between atoms: C_10  and  O_27
REMARK    4  A    between atoms: C_13  and  O_29
REMARK    5  A    between atoms: C_14  and  O_31
REMARK    6  A    between atoms: C_16  and  C_22
REMARK    7  A    between atoms: C_22  and  O_23
REMARK                            x       y       z     vdW  Elec       q    Type
REMARK                         _______ _______ _______ _____ _____    ______ ____
ROOT
ATOM      1  O   UNL     1     -37.253  26.396   2.519  0.00  0.00    -0.464 OA
ATOM      2  C   UNL     1     -36.016  23.745   2.478  0.00  0.00    +0.003 C 
ATOM      3  C   UNL     1     -35.232  25.035   2.349  0.00  0.00    +0.025 C 
ATOM      4  C   UNL     1     -37.504  23.975   2.317  0.00  0.00    +0.037 C 
ATOM      5  C   UNL     1     -35.890  26.270   2.393  0.00  0.00    +0.247 C 
ATOM      6  C   UNL     1     -38.029  25.272   2.363  0.00  0.00    +0.176 C 
ATOM      7  C   UNL     1     -33.837  25.013   2.198  0.00  0.00    +0.003 C 
ATOM      8  C   UNL     1     -38.380  22.894   2.134  0.00  0.00    +0.006 C 
ATOM      9  C   UNL     1     -35.165  27.461   2.312  0.00  0.00    +0.190 C 
ATOM     10  C   UNL     1     -39.406  25.483   2.253  0.00  0.00    +0.202 C 
ATOM     11  C   UNL     1     -33.115  26.204   2.110  0.00  0.00    +0.039 C 
ATOM     12  C   UNL     1     -39.754  23.107   2.017  0.00  0.00    +0.040 C 
ATOM     13  C   UNL     1     -33.780  27.428   2.169  0.00  0.00    +0.167 C 
ATOM     14  C   UNL     1     -40.267  24.401   2.079  0.00  0.00    +0.171 C 
ENDROOT
BRANCH   2  15
ATOM     15  C   UNL     1     -35.721  23.074   3.787  0.00  0.00    +0.006 C 
ATOM     16  C   UNL     1     -35.473  21.707   3.850  0.00  0.00    +0.075 C 
ATOM     17  C   UNL     1     -35.700  23.848   4.944  0.00  0.00    +0.000 C 
ATOM     18  C   UNL     1     -35.202  21.107   5.081  0.00  0.00    +0.006 C 
ATOM     19  C   UNL     1     -35.429  23.249   6.174  0.00  0.00    +0.000 C 
ATOM     20  C   UNL     1     -35.180  21.879   6.242  0.00  0.00    +0.000 C 
BRANCH  16  22
ATOM     21  O   UNL     1     -34.690  20.958   1.718  0.00  0.00    -0.245 OA
ATOM     22  C   UNL     1     -35.490  20.877   2.653  0.00  0.00    +0.338 C 
BRANCH  22  23
ATOM     23  O   UNL     1     -36.505  19.971   2.665  0.00  0.00    -0.477 OA
ATOM     24  H   UNL     1     -36.983  19.813   3.455  0.00  0.00    +0.295 HD
ENDBRANCH  22  23
ENDBRANCH  16  22
ENDBRANCH   2  15
BRANCH   9  25
ATOM     25  O   UNL     1     -35.811  28.663   2.363  0.00  0.00    -0.504 OA
ATOM     26  H   UNL     1     -35.404  29.428   2.007  0.00  0.00    +0.292 HD
ENDBRANCH   9  25
BRANCH  10  27
ATOM     27  O   UNL     1     -39.913  26.749   2.308  0.00  0.00    -0.501 OA
ATOM     28  H   UNL     1     -40.114  27.138   3.136  0.00  0.00    +0.292 HD
ENDBRANCH  10  27
BRANCH  13  29
ATOM     29  O   UNL     1     -33.062  28.582   2.085  0.00  0.00    -0.503 OA
ATOM     30  H   UNL     1     -32.998  29.035   1.267  0.00  0.00    +0.292 HD
ENDBRANCH  13  29
BRANCH  14  31
ATOM     31  O   UNL     1     -41.610  24.594   1.966  0.00  0.00    -0.503 OA
ATOM     32  H   UNL     1     -42.007  24.644   1.118  0.00  0.00    +0.292 HD
ENDBRANCH  14  31
TORSDOF 7
ENDMDL
MODEL 2
REMARK VINA RESULT:      -7.0      1.901      4.839
REMARK  Name = 191336
REMARK  7 active torsions:
REMARK  status: ('A' for Active; 'I' for Inactive)
REMARK    1  A    between atoms: C_2  and  C_15
REMARK    2  A    between atoms: C_9  and  O_25
REMARK    3  A    between atoms: C_10  and  O_27
REMARK    4  A    between atoms: C_13  and  O_29
REMARK    5  A    between atoms: C_14  and  O_31
REMARK    6  A    between atoms: C_16  and  C_22
REMARK    7  A    between atoms: C_22  and  O_23
REMARK                            x       y       z     vdW  Elec       q    Type
REMARK                         _______ _______ _______ _____ _____    ______ ____
ROOT
ATOM      1  O   UNL     1     -36.689  26.327   2.363  0.00  0.00    -0.464 OA
ATOM      2  C   UNL     1     -36.287  23.443   2.648  0.00  0.00    +0.003 C 
ATOM      3  C   UNL     1     -37.461  24.055   1.911  0.00  0.00    +0.025 C 
ATOM      4  C   UNL     1     -35.540  24.475   3.466  0.00  0.00    +0.037 C 
ATOM      5  C   UNL     1     -37.580  25.445   1.801  0.00  0.00    +0.247 C 
ATOM      6  C   UNL     1     -35.772  25.841   3.264  0.00  0.00    +0.176 C 
ATOM      7  C   UNL     1     -38.437  23.240   1.317  0.00  0.00    +0.003 C 
ATOM      8  C   UNL     1     -34.595  24.082   4.426  0.00  0.00    +0.006 C 
ATOM      9  C   UNL     1     -38.642  26.010   1.089  0.00  0.00    +0.190 C 
ATOM     10  C   UNL     1     -35.056  26.796   3.991  0.00  0.00    +0.202 C 
ATOM     11  C   UNL     1     -39.500  23.806   0.613  0.00  0.00    +0.039 C 
ATOM     12  C   UNL     1     -33.886  25.036   5.156  0.00  0.00    +0.040 C 
ATOM     13  C   UNL     1     -39.601  25.191   0.497  0.00  0.00    +0.167 C 
ATOM     14  C   UNL     1     -34.115  26.393   4.937  0.00  0.00    +0.171 C 
ENDROOT
BRANCH   2  15
ATOM     15  C   UNL     1     -35.361  22.753   1.691  0.00  0.00    +0.006 C 
ATOM     16  C   UNL     1     -35.058  21.403   1.835  0.00  0.00    +0.075 C 
ATOM     17  C   UNL     1     -34.807  23.492   0.649  0.00  0.00    +0.000 C 
ATOM     18  C   UNL     1     -34.194  20.785   0.931  0.00  0.00    +0.006 C 
ATOM     19  C   UNL     1     -33.943  22.874  -0.256  0.00  0.00    +0.000 C 
ATOM     20  C   UNL     1     -33.637  21.521  -0.114  0.00  0.00    +0.000 C 
BRANCH  16  22
ATOM     21  O   UNL     1     -35.218  20.599   4.083  0.00  0.00    -0.245 OA
ATOM     22  C   UNL     1     -35.625  20.610   2.918  0.00  0.00    +0.338 C 
BRANCH  22  23
ATOM     23  O   UNL     1     -36.684  19.860   2.511  0.00  0.00    -0.477 OA
ATOM     24  H   UNL     1     -37.480  20.277   2.247  0.00  0.00    +0.295 HD
ENDBRANCH  22  23
ENDBRANCH  16  22
ENDBRANCH   2  15
BRANCH   9  25
ATOM     25  O   UNL     1     -38.750  27.366   0.978  0.00  0.00    -0.504 OA
ATOM     26  H   UNL     1     -38.511  27.791   0.179  0.00  0.00    +0.292 HD
ENDBRANCH   9  25
BRANCH  10  27
ATOM     27  O   UNL     1     -35.279  28.126   3.785  0.00  0.00    -0.501 OA
ATOM     28  H   UNL     1     -36.049  28.407   3.330  0.00  0.00    +0.292 HD
ENDBRANCH  10  27
BRANCH  13  29
ATOM     29  O   UNL     1     -40.643  25.729  -0.195  0.00  0.00    -0.503 OA
ATOM     30  H   UNL     1     -40.492  26.428  -0.801  0.00  0.00    +0.292 HD
ENDBRANCH  13  29
BRANCH  14  31
ATOM     31  O   UNL     1     -33.413  27.314   5.655  0.00  0.00    -0.503 OA
ATOM     32  H   UNL     1     -33.310  28.185   5.325  0.00  0.00    +0.292 HD
ENDBRANCH  14  31
TORSDOF 7
ENDMDL
MODEL 3
REMARK VINA RESULT:      -6.9      1.972      5.878
REMARK  Name = 191336
REMARK  7 active torsions:
REMARK  status: ('A' for Active; 'I' for Inactive)
REMARK    1  A    between atoms: C_2  and  C_15
REMARK    2  A    between atoms: C_9  and  O_25
REMARK    3  A    between atoms: C_10  and  O_27
REMARK    4  A    between atoms: C_13  and  O_29
REMARK    5  A    between atoms: C_14  and  O_31
REMARK    6  A    between atoms: C_16  and  C_22
REMARK    7  A    between atoms: C_22  and  O_23
REMARK                            x       y       z     vdW  Elec       q    Type
REMARK                         _______ _______ _______ _____ _____    ______ ____
ROOT
ATOM      1  O   UNL     1     -37.854  20.753   1.293  0.00  0.00    -0.464 OA
ATOM      2  C   UNL     1     -35.956  22.951   1.649  0.00  0.00    +0.003 C 
ATOM      3  C   UNL     1     -37.449  23.153   1.485  0.00  0.00    +0.025 C 
ATOM      4  C   UNL     1     -35.541  21.537   1.300  0.00  0.00    +0.037 C 
ATOM      5  C   UNL     1     -38.300  22.052   1.335  0.00  0.00    +0.247 C 
ATOM      6  C   UNL     1     -36.504  20.530   1.161  0.00  0.00    +0.176 C 
ATOM      7  C   UNL     1     -38.001  24.443   1.495  0.00  0.00    +0.003 C 
ATOM      8  C   UNL     1     -34.188  21.210   1.125  0.00  0.00    +0.006 C 
ATOM      9  C   UNL     1     -39.680  22.235   1.222  0.00  0.00    +0.190 C 
ATOM     10  C   UNL     1     -36.121  19.217   0.876  0.00  0.00    +0.202 C 
ATOM     11  C   UNL     1     -39.380  24.624   1.374  0.00  0.00    +0.039 C 
ATOM     12  C   UNL     1     -33.806  19.900   0.833  0.00  0.00    +0.040 C 
ATOM     13  C   UNL     1     -40.219  23.520   1.240  0.00  0.00    +0.167 C 
ATOM     14  C   UNL     1     -34.773  18.903   0.712  0.00  0.00    +0.171 C 
ENDROOT
BRANCH   2  15
ATOM     15  C   UNL     1     -35.524  23.302   3.042  0.00  0.00    +0.006 C 
ATOM     16  C   UNL     1     -34.725  24.415   3.284  0.00  0.00    +0.075 C 
ATOM     17  C   UNL     1     -35.938  22.490   4.094  0.00  0.00    +0.000 C 
ATOM     18  C   UNL     1     -34.336  24.719   4.589  0.00  0.00    +0.006 C 
ATOM     19  C   UNL     1     -35.549  22.794   5.399  0.00  0.00    +0.000 C 
ATOM     20  C   UNL     1     -34.749  23.909   5.645  0.00  0.00    +0.000 C 
BRANCH  16  22
ATOM     21  O   UNL     1     -33.290  25.079   1.489  0.00  0.00    -0.245 OA
ATOM     22  C   UNL     1     -34.279  25.278   2.199  0.00  0.00    +0.338 C 
BRANCH  22  23
ATOM     23  O   UNL     1     -35.084  26.362   2.034  0.00  0.00    -0.477 OA
ATOM     24  H   UNL     1     -35.171  26.757   1.189  0.00  0.00    +0.295 HD
ENDBRANCH  22  23
ENDBRANCH  16  22
ENDBRANCH   2  15
BRANCH   9  25
ATOM     25  O   UNL     1     -40.507  21.157   1.083  0.00  0.00    -0.504 OA
ATOM     26  H   UNL     1     -41.354  21.264   0.698  0.00  0.00    +0.292 HD
ENDBRANCH   9  25
BRANCH  10  27
ATOM     27  O   UNL     1     -37.062  18.238   0.750  0.00  0.00    -0.501 OA
ATOM     28  H   UNL     1     -37.969  18.466   0.679  0.00  0.00    +0.292 HD
ENDBRANCH  10  27
BRANCH  13  29
ATOM     29  O   UNL     1     -41.562  23.712   1.125  0.00  0.00    -0.503 OA
ATOM     30  H   UNL     1     -42.143  22.977   1.137  0.00  0.00    +0.292 HD
ENDBRANCH  13  29
BRANCH  14  31
ATOM     31  O   UNL     1     -34.386  17.628   0.430  0.00  0.00    -0.503 OA
ATOM     32  H   UNL     1     -34.835  16.905   0.822  0.00  0.00    +0.292 HD
ENDBRANCH  14  31
TORSDOF 7
ENDMDL
MODEL 4
REMARK VINA RESULT:      -6.6      2.341      2.955
REMARK  Name = 191336
REMARK  7 active torsions:
REMARK  status: ('A' for Active; 'I' for Inactive)
REMARK    1  A    between atoms: C_2  and  C_15
REMARK    2  A    between atoms: C_9  and  O_25
REMARK    3  A    between atoms: C_10  and  O_27
REMARK    4  A    between atoms: C_13  and  O_29
REMARK    5  A    between atoms: C_14  and  O_31
REMARK    6  A    between atoms: C_16  and  C_22
REMARK    7  A    between atoms: C_22  and  O_23
REMARK                            x       y       z     vdW  Elec       q    Type
REMARK                         _______ _______ _______ _____ _____    ______ ____
ROOT
ATOM      1  O   UNL     1     -37.398  25.031   3.805  0.00  0.00    -0.464 OA
ATOM      2  C   UNL     1     -35.787  24.048   1.570  0.00  0.00    +0.003 C 
ATOM      3  C   UNL     1     -35.219  24.857   2.718  0.00  0.00    +0.025 C 
ATOM      4  C   UNL     1     -37.301  24.079   1.558  0.00  0.00    +0.037 C 
ATOM      5  C   UNL     1     -36.047  25.281   3.763  0.00  0.00    +0.247 C 
ATOM      6  C   UNL     1     -38.008  24.548   2.672  0.00  0.00    +0.176 C 
ATOM      7  C   UNL     1     -33.854  25.181   2.758  0.00  0.00    +0.003 C 
ATOM      8  C   UNL     1     -38.019  23.625   0.441  0.00  0.00    +0.006 C 
ATOM      9  C   UNL     1     -35.517  25.995   4.841  0.00  0.00    +0.190 C 
ATOM     10  C   UNL     1     -39.406  24.543   2.679  0.00  0.00    +0.202 C 
ATOM     11  C   UNL     1     -33.328  25.901   3.832  0.00  0.00    +0.039 C 
ATOM     12  C   UNL     1     -39.414  23.627   0.446  0.00  0.00    +0.040 C 
ATOM     13  C   UNL     1     -34.160  26.305   4.874  0.00  0.00    +0.167 C 
ATOM     14  C   UNL     1     -40.107  24.083   1.566  0.00  0.00    +0.171 C 
ENDROOT
BRANCH   2  15
ATOM     15  C   UNL     1     -35.286  22.635   1.618  0.00  0.00    +0.006 C 
ATOM     16  C   UNL     1     -34.418  22.150   0.646  0.00  0.00    +0.075 C 
ATOM     17  C   UNL     1     -35.708  21.812   2.659  0.00  0.00    +0.000 C 
ATOM     18  C   UNL     1     -33.966  20.831   0.714  0.00  0.00    +0.006 C 
ATOM     19  C   UNL     1     -35.257  20.494   2.728  0.00  0.00    +0.000 C 
ATOM     20  C   UNL     1     -34.386  20.004   1.755  0.00  0.00    +0.000 C 
BRANCH  16  22
ATOM     21  O   UNL     1     -34.561  23.154  -1.521  0.00  0.00    -0.245 OA
ATOM     22  C   UNL     1     -33.964  22.991  -0.453  0.00  0.00    +0.338 C 
BRANCH  22  23
ATOM     23  O   UNL     1     -32.780  23.604  -0.182  0.00  0.00    -0.477 OA
ATOM     24  H   UNL     1     -32.657  24.505  -0.407  0.00  0.00    +0.295 HD
ENDBRANCH  22  23
ENDBRANCH  16  22
ENDBRANCH   2  15
BRANCH   9  25
ATOM     25  O   UNL     1     -36.329  26.400   5.861  0.00  0.00    -0.504 OA
ATOM     26  H   UNL     1     -35.956  26.654   6.682  0.00  0.00    +0.292 HD
ENDBRANCH   9  25
BRANCH  10  27
ATOM     27  O   UNL     1     -40.090  24.993   3.770  0.00  0.00    -0.501 OA
ATOM     28  H   UNL     1     -39.938  25.860   4.093  0.00  0.00    +0.292 HD
ENDBRANCH  10  27
BRANCH  13  29
ATOM     29  O   UNL     1     -33.632  27.005   5.916  0.00  0.00    -0.503 OA
ATOM     30  H   UNL     1     -33.298  26.550   6.664  0.00  0.00    +0.292 HD
ENDBRANCH  13  29
BRANCH  14  31
ATOM     31  O   UNL     1     -41.469  24.076   1.558  0.00  0.00    -0.503 OA
ATOM     32  H   UNL     1     -41.938  24.727   1.073  0.00  0.00    +0.292 HD
ENDBRANCH  14  31
TORSDOF 7
ENDMDL
MODEL 5
REMARK VINA RESULT:      -6.6      1.666      1.956
REMARK  Name = 191336
REMARK  7 active torsions:
REMARK  status: ('A' for Active; 'I' for Inactive)
REMARK    1  A    between atoms: C_2  and  C_15
REMARK    2  A    between atoms: C_9  and  O_25
REMARK    3  A    between atoms: C_10  and  O_27
REMARK    4  A    between atoms: C_13  and  O_29
REMARK    5  A    between atoms: C_14  and  O_31
REMARK    6  A    between atoms: C_16  and  C_22
REMARK    7  A    between atoms: C_22  and  O_23
REMARK                            x       y       z     vdW  Elec       q    Type
REMARK                         _______ _______ _______ _____ _____    ______ ____
ROOT
ATOM      1  O   UNL     1     -36.112  26.036   1.136  0.00  0.00    -0.464 OA
ATOM      2  C   UNL     1     -36.174  23.219   1.927  0.00  0.00    +0.003 C 
ATOM      3  C   UNL     1     -35.043  23.841   1.134  0.00  0.00    +0.025 C 
ATOM      4  C   UNL     1     -37.383  24.131   1.987  0.00  0.00    +0.037 C 
ATOM      5  C   UNL     1     -35.072  25.200   0.805  0.00  0.00    +0.247 C 
ATOM      6  C   UNL     1     -37.275  25.474   1.607  0.00  0.00    +0.176 C 
ATOM      7  C   UNL     1     -33.943  23.068   0.731  0.00  0.00    +0.003 C 
ATOM      8  C   UNL     1     -38.622  23.649   2.435  0.00  0.00    +0.006 C 
ATOM      9  C   UNL     1     -34.012  25.783   0.106  0.00  0.00    +0.190 C 
ATOM     10  C   UNL     1     -38.379  26.326   1.697  0.00  0.00    +0.202 C 
ATOM     11  C   UNL     1     -32.888  23.649   0.026  0.00  0.00    +0.039 C 
ATOM     12  C   UNL     1     -39.725  24.499   2.517  0.00  0.00    +0.040 C 
ATOM     13  C   UNL     1     -32.922  25.007  -0.284  0.00  0.00    +0.167 C 
ATOM     14  C   UNL     1     -39.603  25.838   2.151  0.00  0.00    +0.171 C 
ENDROOT
BRANCH   2  15
ATOM     15  C   UNL     1     -35.716  22.856   3.308  0.00  0.00    +0.006 C 
ATOM     16  C   UNL     1     -35.472  21.531   3.656  0.00  0.00    +0.075 C 
ATOM     17  C   UNL     1     -35.539  23.873   4.243  0.00  0.00    +0.000 C 
ATOM     18  C   UNL     1     -35.047  21.219   4.947  0.00  0.00    +0.006 C 
ATOM     19  C   UNL     1     -35.114  23.561   5.534  0.00  0.00    +0.000 C 
ATOM     20  C   UNL     1     -34.868  22.235   5.886  0.00  0.00    +0.000 C 
BRANCH  16  22
ATOM     21  O   UNL     1     -34.779  20.017   1.938  0.00  0.00    -0.245 OA
ATOM     22  C   UNL     1     -35.652  20.450   2.695  0.00  0.00    +0.338 C 
BRANCH  22  23
ATOM     23  O   UNL     1     -36.914  19.944   2.715  0.00  0.00    -0.477 OA
ATOM     24  H   UNL     1     -37.399  19.866   1.917  0.00  0.00    +0.295 HD
ENDBRANCH  22  23
ENDBRANCH  16  22
ENDBRANCH   2  15
BRANCH   9  25
ATOM     25  O   UNL     1     -34.042  27.111  -0.207  0.00  0.00    -0.504 OA
ATOM     26  H   UNL     1     -33.281  27.527  -0.559  0.00  0.00    +0.292 HD
ENDBRANCH   9  25
BRANCH  10  27
ATOM     27  O   UNL     1     -38.267  27.637   1.334  0.00  0.00    -0.501 OA
ATOM     28  H   UNL     1     -38.695  27.947   0.560  0.00  0.00    +0.292 HD
ENDBRANCH  10  27
BRANCH  13  29
ATOM     29  O   UNL     1     -31.884  25.562  -0.969  0.00  0.00    -0.503 OA
ATOM     30  H   UNL     1     -31.418  25.054  -1.604  0.00  0.00    +0.292 HD
ENDBRANCH  13  29
BRANCH  14  31
ATOM     31  O   UNL     1     -40.688  26.657   2.239  0.00  0.00    -0.503 OA
ATOM     32  H   UNL     1     -41.203  26.835   1.476  0.00  0.00    +0.292 HD
ENDBRANCH  14  31
TORSDOF 7
ENDMDL
MODEL 6
REMARK VINA RESULT:      -6.5      2.159      5.162
REMARK  Name = 191336
REMARK  7 active torsions:
REMARK  status: ('A' for Active; 'I' for Inactive)
REMARK    1  A    between atoms: C_2  and  C_15
REMARK    2  A    between atoms: C_9  and  O_25
REMARK    3  A    between atoms: C_10  and  O_27
REMARK    4  A    between atoms: C_13  and  O_29
REMARK    5  A    between atoms: C_14  and  O_31
REMARK    6  A    between atoms: C_16  and  C_22
REMARK    7  A    between atoms: C_22  and  O_23
REMARK                            x       y       z     vdW  Elec       q    Type
REMARK                         _______ _______ _______ _____ _____    ______ ____
ROOT
ATOM      1  O   UNL     1     -39.008  22.716   1.244  0.00  0.00    -0.464 OA
ATOM      2  C   UNL     1     -37.518  24.305   3.198  0.00  0.00    +0.003 C 
ATOM      3  C   UNL     1     -37.105  22.914   2.762  0.00  0.00    +0.025 C 
ATOM      4  C   UNL     1     -38.927  24.637   2.751  0.00  0.00    +0.037 C 
ATOM      5  C   UNL     1     -37.859  22.218   1.809  0.00  0.00    +0.247 C 
ATOM      6  C   UNL     1     -39.573  23.839   1.799  0.00  0.00    +0.176 C 
ATOM      7  C   UNL     1     -35.957  22.308   3.294  0.00  0.00    +0.003 C 
ATOM      8  C   UNL     1     -39.599  25.753   3.271  0.00  0.00    +0.006 C 
ATOM      9  C   UNL     1     -37.458  20.950   1.378  0.00  0.00    +0.190 C 
ATOM     10  C   UNL     1     -40.859  24.166   1.357  0.00  0.00    +0.202 C 
ATOM     11  C   UNL     1     -35.562  21.039   2.868  0.00  0.00    +0.039 C 
ATOM     12  C   UNL     1     -40.885  26.073   2.835  0.00  0.00    +0.040 C 
ATOM     13  C   UNL     1     -36.312  20.362   1.908  0.00  0.00    +0.167 C 
ATOM     14  C   UNL     1     -41.513  25.281   1.875  0.00  0.00    +0.171 C 
ENDROOT
BRANCH   2  15
ATOM     15  C   UNL     1     -36.546  25.329   2.693  0.00  0.00    +0.006 C 
ATOM     16  C   UNL     1     -35.731  26.036   3.570  0.00  0.00    +0.075 C 
ATOM     17  C   UNL     1     -36.474  25.561   1.322  0.00  0.00    +0.000 C 
ATOM     18  C   UNL     1     -34.835  26.983   3.075  0.00  0.00    +0.006 C 
ATOM     19  C   UNL     1     -35.578  26.509   0.826  0.00  0.00    +0.000 C 
ATOM     20  C   UNL     1     -34.759  27.219   1.703  0.00  0.00    +0.000 C 
BRANCH  16  22
ATOM     21  O   UNL     1     -35.115  24.984   5.629  0.00  0.00    -0.245 OA
ATOM     22  C   UNL     1     -35.790  25.810   5.009  0.00  0.00    +0.338 C 
BRANCH  22  23
ATOM     23  O   UNL     1     -36.687  26.625   5.625  0.00  0.00    -0.477 OA
ATOM     24  H   UNL     1     -36.463  27.043   6.433  0.00  0.00    +0.295 HD
ENDBRANCH  22  23
ENDBRANCH  16  22
ENDBRANCH   2  15
BRANCH   9  25
ATOM     25  O   UNL     1     -38.193  20.279   0.444  0.00  0.00    -0.504 OA
ATOM     26  H   UNL     1     -38.758  19.580   0.706  0.00  0.00    +0.292 HD
ENDBRANCH   9  25
BRANCH  10  27
ATOM     27  O   UNL     1     -41.481  23.391   0.422  0.00  0.00    -0.501 OA
ATOM     28  H   UNL     1     -41.310  22.470   0.387  0.00  0.00    +0.292 HD
ENDBRANCH  10  27
BRANCH  13  29
ATOM     29  O   UNL     1     -35.914  19.125   1.500  0.00  0.00    -0.503 OA
ATOM     30  H   UNL     1     -36.536  18.533   1.125  0.00  0.00    +0.292 HD
ENDBRANCH  13  29
BRANCH  14  31
ATOM     31  O   UNL     1     -42.767  25.608   1.456  0.00  0.00    -0.503 OA
ATOM     32  H   UNL     1     -43.320  24.952   1.077  0.00  0.00    +0.292 HD
ENDBRANCH  14  31
TORSDOF 7
ENDMDL
MODEL 7
REMARK VINA RESULT:      -6.5      2.237      5.530
REMARK  Name = 191336
REMARK  7 active torsions:
REMARK  status: ('A' for Active; 'I' for Inactive)
REMARK    1  A    between atoms: C_2  and  C_15
REMARK    2  A    between atoms: C_9  and  O_25
REMARK    3  A    between atoms: C_10  and  O_27
REMARK    4  A    between atoms: C_13  and  O_29
REMARK    5  A    between atoms: C_14  and  O_31
REMARK    6  A    between atoms: C_16  and  C_22
REMARK    7  A    between atoms: C_22  and  O_23
REMARK                            x       y       z     vdW  Elec       q    Type
REMARK                         _______ _______ _______ _____ _____    ______ ____
ROOT
ATOM      1  O   UNL     1     -36.917  23.478   0.188  0.00  0.00    -0.464 OA
ATOM      2  C   UNL     1     -36.200  24.756   2.720  0.00  0.00    +0.003 C 
ATOM      3  C   UNL     1     -37.629  24.516   2.280  0.00  0.00    +0.025 C 
ATOM      4  C   UNL     1     -35.221  24.548   1.583  0.00  0.00    +0.037 C 
ATOM      5  C   UNL     1     -37.898  23.883   1.061  0.00  0.00    +0.247 C 
ATOM      6  C   UNL     1     -35.631  23.913   0.404  0.00  0.00    +0.176 C 
ATOM      7  C   UNL     1     -38.704  24.910   3.092  0.00  0.00    +0.003 C 
ATOM      8  C   UNL     1     -33.889  24.972   1.698  0.00  0.00    +0.006 C 
ATOM      9  C   UNL     1     -39.215  23.627   0.671  0.00  0.00    +0.190 C 
ATOM     10  C   UNL     1     -34.720  23.686  -0.631  0.00  0.00    +0.202 C 
ATOM     11  C   UNL     1     -40.019  24.660   2.697  0.00  0.00    +0.039 C 
ATOM     12  C   UNL     1     -32.983  24.752   0.660  0.00  0.00    +0.040 C 
ATOM     13  C   UNL     1     -40.274  24.017   1.488  0.00  0.00    +0.167 C 
ATOM     14  C   UNL     1     -33.398  24.106  -0.503  0.00  0.00    +0.171 C 
ENDROOT
BRANCH   2  15
ATOM     15  C   UNL     1     -35.851  23.881   3.887  0.00  0.00    +0.006 C 
ATOM     16  C   UNL     1     -35.504  24.432   5.117  0.00  0.00    +0.075 C 
ATOM     17  C   UNL     1     -35.879  22.499   3.718  0.00  0.00    +0.000 C 
ATOM     18  C   UNL     1     -35.183  23.596   6.186  0.00  0.00    +0.006 C 
ATOM     19  C   UNL     1     -35.559  21.663   4.788  0.00  0.00    +0.000 C 
ATOM     20  C   UNL     1     -35.211  22.212   6.022  0.00  0.00    +0.000 C 
BRANCH  16  22
ATOM     21  O   UNL     1     -34.459  26.582   5.223  0.00  0.00    -0.245 OA
ATOM     22  C   UNL     1     -35.466  25.875   5.317  0.00  0.00    +0.338 C 
BRANCH  22  23
ATOM     23  O   UNL     1     -36.687  26.388   5.625  0.00  0.00    -0.477 OA
ATOM     24  H   UNL     1     -37.230  25.958   6.256  0.00  0.00    +0.295 HD
ENDBRANCH  22  23
ENDBRANCH  16  22
ENDBRANCH   2  15
BRANCH   9  25
ATOM     25  O   UNL     1     -39.471  23.004  -0.516  0.00  0.00    -0.504 OA
ATOM     26  H   UNL     1     -39.737  22.106  -0.526  0.00  0.00    +0.292 HD
ENDBRANCH   9  25
BRANCH  10  27
ATOM     27  O   UNL     1     -35.122  23.059  -1.775  0.00  0.00    -0.501 OA
ATOM     28  H   UNL     1     -35.733  22.349  -1.730  0.00  0.00    +0.292 HD
ENDBRANCH  10  27
BRANCH  13  29
ATOM     29  O   UNL     1     -41.563  23.778   1.117  0.00  0.00    -0.503 OA
ATOM     30  H   UNL     1     -42.119  24.491   0.873  0.00  0.00    +0.292 HD
ENDBRANCH  13  29
BRANCH  14  31
ATOM     31  O   UNL     1     -32.501  23.894  -1.506  0.00  0.00    -0.503 OA
ATOM     32  H   UNL     1     -32.803  23.772  -2.385  0.00  0.00    +0.292 HD
ENDBRANCH  14  31
TORSDOF 7
ENDMDL
MODEL 8
REMARK VINA RESULT:      -6.5      2.346      6.156
REMARK  Name = 191336
REMARK  7 active torsions:
REMARK  status: ('A' for Active; 'I' for Inactive)
REMARK    1  A    between atoms: C_2  and  C_15
REMARK    2  A    between atoms: C_9  and  O_25
REMARK    3  A    between atoms: C_10  and  O_27
REMARK    4  A    between atoms: C_13  and  O_29
REMARK    5  A    between atoms: C_14  and  O_31
REMARK    6  A    between atoms: C_16  and  C_22
REMARK    7  A    between atoms: C_22  and  O_23
REMARK                            x       y       z     vdW  Elec       q    Type
REMARK                         _______ _______ _______ _____ _____    ______ ____
ROOT
ATOM      1  O   UNL     1     -35.416  21.865   0.087  0.00  0.00    -0.464 OA
ATOM      2  C   UNL     1     -36.120  23.677   2.274  0.00  0.00    +0.003 C 
ATOM      3  C   UNL     1     -37.098  22.706   1.645  0.00  0.00    +0.025 C 
ATOM      4  C   UNL     1     -34.859  23.817   1.446  0.00  0.00    +0.037 C 
ATOM      5  C   UNL     1     -36.686  21.856   0.612  0.00  0.00    +0.247 C 
ATOM      6  C   UNL     1     -34.578  22.901   0.424  0.00  0.00    +0.176 C 
ATOM      7  C   UNL     1     -38.424  22.632   2.097  0.00  0.00    +0.003 C 
ATOM      8  C   UNL     1     -33.947  24.853   1.699  0.00  0.00    +0.006 C 
ATOM      9  C   UNL     1     -37.576  20.933   0.056  0.00  0.00    +0.190 C 
ATOM     10  C   UNL     1     -33.397  23.006  -0.315  0.00  0.00    +0.202 C 
ATOM     11  C   UNL     1     -39.314  21.715   1.536  0.00  0.00    +0.039 C 
ATOM     12  C   UNL     1     -32.772  24.960   0.955  0.00  0.00    +0.040 C 
ATOM     13  C   UNL     1     -38.889  20.865   0.518  0.00  0.00    +0.167 C 
ATOM     14  C   UNL     1     -32.495  24.035  -0.050  0.00  0.00    +0.171 C 
ENDROOT
BRANCH   2  15
ATOM     15  C   UNL     1     -35.790  23.264   3.677  0.00  0.00    +0.006 C 
ATOM     16  C   UNL     1     -35.836  24.181   4.722  0.00  0.00    +0.075 C 
ATOM     17  C   UNL     1     -35.436  21.939   3.917  0.00  0.00    +0.000 C 
ATOM     18  C   UNL     1     -35.525  23.771   6.019  0.00  0.00    +0.006 C 
ATOM     19  C   UNL     1     -35.125  21.529   5.214  0.00  0.00    +0.000 C 
ATOM     20  C   UNL     1     -35.169  22.445   6.264  0.00  0.00    +0.000 C 
BRANCH  16  22
ATOM     21  O   UNL     1     -35.409  26.503   4.342  0.00  0.00    -0.245 OA
ATOM     22  C   UNL     1     -36.203  25.572   4.495  0.00  0.00    +0.338 C 
BRANCH  22  23
ATOM     23  O   UNL     1     -37.551  25.754   4.464  0.00  0.00    -0.477 OA
ATOM     24  H   UNL     1     -37.912  26.607   4.608  0.00  0.00    +0.295 HD
ENDBRANCH  22  23
ENDBRANCH  16  22
ENDBRANCH   2  15
BRANCH   9  25
ATOM     25  O   UNL     1     -37.168  20.102  -0.946  0.00  0.00    -0.504 OA
ATOM     26  H   UNL     1     -37.526  19.240  -1.014  0.00  0.00    +0.292 HD
ENDBRANCH   9  25
BRANCH  10  27
ATOM     27  O   UNL     1     -33.123  22.106  -1.304  0.00  0.00    -0.501 OA
ATOM     28  H   UNL     1     -32.763  22.400  -2.118  0.00  0.00    +0.292 HD
ENDBRANCH  10  27
BRANCH  13  29
ATOM     29  O   UNL     1     -39.768  19.973  -0.018  0.00  0.00    -0.503 OA
ATOM     30  H   UNL     1     -39.628  19.639  -0.882  0.00  0.00    +0.292 HD
ENDBRANCH  13  29
BRANCH  14  31
ATOM     31  O   UNL     1     -31.343  24.150  -0.766  0.00  0.00    -0.503 OA
ATOM     32  H   UNL     1     -31.167  23.556  -1.469  0.00  0.00    +0.292 HD
ENDBRANCH  14  31
TORSDOF 7
ENDMDL
MODEL 9
REMARK VINA RESULT:      -6.4      2.434      5.377
REMARK  Name = 191336
REMARK  7 active torsions:
REMARK  status: ('A' for Active; 'I' for Inactive)
REMARK    1  A    between atoms: C_2  and  C_15
REMARK    2  A    between atoms: C_9  and  O_25
REMARK    3  A    between atoms: C_10  and  O_27
REMARK    4  A    between atoms: C_13  and  O_29
REMARK    5  A    between atoms: C_14  and  O_31
REMARK    6  A    between atoms: C_16  and  C_22
REMARK    7  A    between atoms: C_22  and  O_23
REMARK                            x       y       z     vdW  Elec       q    Type
REMARK                         _______ _______ _______ _____ _____    ______ ____
ROOT
ATOM      1  O   UNL     1     -38.701  24.153   2.114  0.00  0.00    -0.464 OA
ATOM      2  C   UNL     1     -36.637  22.079   2.078  0.00  0.00    +0.003 C 
ATOM      3  C   UNL     1     -37.988  21.927   1.408  0.00  0.00    +0.025 C 
ATOM      4  C   UNL     1     -36.606  23.273   3.009  0.00  0.00    +0.037 C 
ATOM      5  C   UNL     1     -38.921  22.968   1.453  0.00  0.00    +0.247 C 
ATOM      6  C   UNL     1     -37.621  24.236   2.960  0.00  0.00    +0.176 C 
ATOM      7  C   UNL     1     -38.318  20.748   0.723  0.00  0.00    +0.003 C 
ATOM      8  C   UNL     1     -35.555  23.441   3.924  0.00  0.00    +0.006 C 
ATOM      9  C   UNL     1     -40.152  22.844   0.804  0.00  0.00    +0.190 C 
ATOM     10  C   UNL     1     -37.574  25.358   3.792  0.00  0.00    +0.202 C 
ATOM     11  C   UNL     1     -39.551  20.622   0.081  0.00  0.00    +0.039 C 
ATOM     12  C   UNL     1     -35.513  24.557   4.759  0.00  0.00    +0.040 C 
ATOM     13  C   UNL     1     -40.467  21.672   0.120  0.00  0.00    +0.167 C 
ATOM     14  C   UNL     1     -36.521  25.517   4.691  0.00  0.00    +0.171 C 
ENDROOT
BRANCH   2  15
ATOM     15  C   UNL     1     -35.546  22.176   1.054  0.00  0.00    +0.006 C 
ATOM     16  C   UNL     1     -34.629  21.143   0.885  0.00  0.00    +0.075 C 
ATOM     17  C   UNL     1     -35.465  23.324   0.271  0.00  0.00    +0.000 C 
ATOM     18  C   UNL     1     -33.624  21.258  -0.074  0.00  0.00    +0.006 C 
ATOM     19  C   UNL     1     -34.459  23.439  -0.688  0.00  0.00    +0.000 C 
ATOM     20  C   UNL     1     -33.539  22.406  -0.861  0.00  0.00    +0.000 C 
BRANCH  16  22
ATOM     21  O   UNL     1     -34.538  19.882   2.916  0.00  0.00    -0.245 OA
ATOM     22  C   UNL     1     -34.694  19.932   1.693  0.00  0.00    +0.338 C 
BRANCH  22  23
ATOM     23  O   UNL     1     -34.953  18.825   0.948  0.00  0.00    -0.477 OA
ATOM     24  H   UNL     1     -35.486  18.138   1.299  0.00  0.00    +0.295 HD
ENDBRANCH  22  23
ENDBRANCH  16  22
ENDBRANCH   2  15
BRANCH   9  25
ATOM     25  O   UNL     1     -41.057  23.866   0.844  0.00  0.00    -0.504 OA
ATOM     26  H   UNL     1     -40.868  24.675   0.411  0.00  0.00    +0.292 HD
ENDBRANCH   9  25
BRANCH  10  27
ATOM     27  O   UNL     1     -38.560  26.299   3.733  0.00  0.00    -0.501 OA
ATOM     28  H   UNL     1     -38.360  27.200   3.898  0.00  0.00    +0.292 HD
ENDBRANCH  10  27
BRANCH  13  29
ATOM     29  O   UNL     1     -41.665  21.536  -0.513  0.00  0.00    -0.503 OA
ATOM     30  H   UNL     1     -42.419  21.254  -0.032  0.00  0.00    +0.292 HD
ENDBRANCH  13  29
BRANCH  14  31
ATOM     31  O   UNL     1     -36.465  26.604   5.510  0.00  0.00    -0.503 OA
ATOM     32  H   UNL     1     -37.194  27.192   5.557  0.00  0.00    +0.292 HD
ENDBRANCH  14  31
TORSDOF 7
ENDMDL
