MODEL 1
REMARK VINA RESULT:      -6.7      0.000      0.000
REMARK  Name = 193678
REMARK  14 active torsions:
REMARK  status: ('A' for Active; 'I' for Inactive)
REMARK    1  A    between atoms: CA_1  and  C_4
REMARK    2  A    between atoms: CA_1  and  N_19
REMARK    3  A    between atoms: CA_1  and  CB_33
REMARK    4  A    between atoms: N_3  and  CA_6
REMARK    5  A    between atoms: CA_6  and  C_8
REMARK    6  A    between atoms: CA_6  and  CB_11
REMARK    7  A    between atoms: C_8  and  O_9
REMARK    8  A    between atoms: CB_11  and  CG_12
REMARK    9  A    between atoms: C_20  and  CA_22
REMARK   10  A    between atoms: CA_22  and  N_23
REMARK   11  A    between atoms: CA_22  and  CB_27
REMARK   12  A    between atoms: CB_27  and  CG_28
REMARK   13  A    between atoms: CG_28  and  CD_30
REMARK   14  A    between atoms: CD_30  and  OE1_31
REMARK                            x       y       z     vdW  Elec       q    Type
REMARK                         _______ _______ _______ _____ _____    ______ ____
ROOT
ATOM      1  CA  VAL A   2     -35.605  23.100   3.449  0.00  0.00    +0.148 C 
ENDROOT
BRANCH   1   4
ATOM      2  O   VAL A   2     -35.742  20.678   3.512  0.00  0.00    -0.273 OA
ATOM      3  N   PHE A   3     -35.057  21.707   1.548  0.00  0.00    -0.295 N 
ATOM      4  C   VAL A   2     -35.472  21.692   2.871  0.00  0.00    +0.241 C 
ATOM      5  H   PHE A   3     -34.865  22.574   1.125  0.00  0.00    +0.150 HD
BRANCH   3   6
ATOM      6  CA  PHE A   3     -34.892  20.505   0.762  0.00  0.00    +0.176 C 
BRANCH   6   8
ATOM      7  OXT PHE A   3     -36.823  20.278  -0.679  0.00  0.00    -0.248 OA
ATOM      8  C   PHE A   3     -36.240  19.934   0.345  0.00  0.00    +0.332 C 
BRANCH   8   9
ATOM      9  O   PHE A   3     -36.750  19.005   1.189  0.00  0.00    -0.479 OA
ATOM     10  H   PHE A   3     -37.446  18.446   0.905  0.00  0.00    +0.295 HD
ENDBRANCH   8   9
ENDBRANCH   6   8
BRANCH   6  11
ATOM     11  CB  PHE A   3     -34.090  19.447   1.530  0.00  0.00    +0.057 C 
BRANCH  11  12
ATOM     12  CG  PHE A   3     -32.699  19.248   0.977  0.00  0.00    -0.020 C 
ATOM     13  CD1 PHE A   3     -32.121  20.231   0.173  0.00  0.00    -0.004 C 
ATOM     14  CD2 PHE A   3     -31.992  18.082   1.270  0.00  0.00    -0.004 C 
ATOM     15  CE1 PHE A   3     -30.837  20.047  -0.339  0.00  0.00    -0.000 C 
ATOM     16  CE2 PHE A   3     -30.706  17.899   0.758  0.00  0.00    -0.000 C 
ATOM     17  CZ  PHE A   3     -30.130  18.882  -0.046  0.00  0.00    -0.000 C 
ENDBRANCH  11  12
ENDBRANCH   6  11
ENDBRANCH   3   6
ENDBRANCH   1   4
BRANCH   1  19
ATOM     18  O   GLU A   1     -37.059  25.289   2.239  0.00  0.00    -0.277 OA
ATOM     19  N   VAL A   2     -37.014  23.396   3.585  0.00  0.00    -0.300 N 
ATOM     20  C   GLU A   1     -37.627  24.474   2.964  0.00  0.00    +0.202 C 
ATOM     21  H   VAL A   2     -37.564  22.804   4.147  0.00  0.00    +0.150 HD
BRANCH  20  22
ATOM     22  CA  GLU A   1     -39.110  24.573   3.302  0.00  0.00    +0.013 C 
BRANCH  22  23
ATOM     23  N   GLU A   1     -39.412  25.999   3.430  0.00  0.00    +0.387 N 
ATOM     24  H1  GLU A   1     -39.252  26.462   2.535  0.00  0.00    -0.089 HD
ATOM     25  H2  GLU A   1     -38.807  26.413   4.140  0.00  0.00    -0.089 HD
ATOM     26  H3  GLU A   1     -40.387  26.117   3.703  0.00  0.00    -0.089 HD
ENDBRANCH  22  23
BRANCH  22  27
ATOM     27  CB  GLU A   1     -40.000  23.962   2.208  0.00  0.00    -0.001 C 
BRANCH  27  28
ATOM     28  CG  GLU A   1     -39.258  22.996   1.284  0.00  0.00    +0.108 C 
BRANCH  28  30
ATOM     29  OE2 GLU A   1     -40.581  20.980   1.179  0.00  0.00    -0.250 OA
ATOM     30  CD  GLU A   1     -39.584  21.557   1.594  0.00  0.00    +0.314 C 
BRANCH  30  31
ATOM     31  OE1 GLU A   1     -38.668  20.971   2.403  0.00  0.00    -0.480 OA
ATOM     32  HE1 GLU A   1     -38.320  20.128   2.184  0.00  0.00    +0.295 HD
ENDBRANCH  30  31
ENDBRANCH  28  30
ENDBRANCH  27  28
ENDBRANCH  22  27
ENDBRANCH  20  22
ENDBRANCH   1  19
BRANCH   1  33
ATOM     33  CB  VAL A   2     -34.821  23.265   4.768  0.00  0.00    +0.027 C 
ATOM     34  CG1 VAL A   2     -34.363  24.706   5.018  0.00  0.00    +0.002 C 
ATOM     35  CG2 VAL A   2     -35.641  22.766   5.962  0.00  0.00    +0.002 C 
ENDBRANCH   1  33
TORSDOF 14
ENDMDL
MODEL 2
REMARK VINA RESULT:      -6.6      1.905      3.773
REMARK  Name = 193678
REMARK  14 active torsions:
REMARK  status: ('A' for Active; 'I' for Inactive)
REMARK    1  A    between atoms: CA_1  and  C_4
REMARK    2  A    between atoms: CA_1  and  N_19
REMARK    3  A    between atoms: CA_1  and  CB_33
REMARK    4  A    between atoms: N_3  and  CA_6
REMARK    5  A    between atoms: CA_6  and  C_8
REMARK    6  A    between atoms: CA_6  and  CB_11
REMARK    7  A    between atoms: C_8  and  O_9
REMARK    8  A    between atoms: CB_11  and  CG_12
REMARK    9  A    between atoms: C_20  and  CA_22
REMARK   10  A    between atoms: CA_22  and  N_23
REMARK   11  A    between atoms: CA_22  and  CB_27
REMARK   12  A    between atoms: CB_27  and  CG_28
REMARK   13  A    between atoms: CG_28  and  CD_30
REMARK   14  A    between atoms: CD_30  and  OE1_31
REMARK                            x       y       z     vdW  Elec       q    Type
REMARK                         _______ _______ _______ _____ _____    ______ ____
ROOT
ATOM      1  CA  VAL A   2     -37.456  24.210   1.284  0.00  0.00    +0.148 C 
ENDROOT
BRANCH   1   4
ATOM      2  O   VAL A   2     -36.082  23.270  -0.482  0.00  0.00    -0.273 OA
ATOM      3  N   PHE A   3     -36.853  21.867   1.199  0.00  0.00    -0.295 N 
ATOM      4  C   VAL A   2     -36.728  23.086   0.548  0.00  0.00    +0.241 C 
ATOM      5  H   PHE A   3     -37.394  21.825   2.019  0.00  0.00    +0.150 HD
BRANCH   3   6
ATOM      6  CA  PHE A   3     -36.223  20.656   0.726  0.00  0.00    +0.176 C 
BRANCH   6   8
ATOM      7  OXT PHE A   3     -38.290  19.869  -0.255  0.00  0.00    -0.248 OA
ATOM      8  C   PHE A   3     -37.261  19.605   0.360  0.00  0.00    +0.332 C 
BRANCH   8   9
ATOM      9  O   PHE A   3     -36.961  18.345   0.759  0.00  0.00    -0.479 OA
ATOM     10  H   PHE A   3     -37.643  17.713   0.867  0.00  0.00    +0.295 HD
ENDBRANCH   8   9
ENDBRANCH   6   8
BRANCH   6  11
ATOM     11  CB  PHE A   3     -35.253  20.091   1.773  0.00  0.00    +0.057 C 
BRANCH  11  12
ATOM     12  CG  PHE A   3     -33.875  19.827   1.215  0.00  0.00    -0.020 C 
ATOM     13  CD1 PHE A   3     -33.264  20.771   0.390  0.00  0.00    -0.004 C 
ATOM     14  CD2 PHE A   3     -33.213  18.638   1.526  0.00  0.00    -0.004 C 
ATOM     15  CE1 PHE A   3     -31.992  20.527  -0.126  0.00  0.00    -0.000 C 
ATOM     16  CE2 PHE A   3     -31.940  18.395   1.010  0.00  0.00    -0.000 C 
ATOM     17  CZ  PHE A   3     -31.330  19.339   0.184  0.00  0.00    -0.000 C 
ENDBRANCH  11  12
ENDBRANCH   6  11
ENDBRANCH   3   6
ENDBRANCH   1   4
BRANCH   1  19
ATOM     18  O   GLU A   1     -37.968  24.429   4.123  0.00  0.00    -0.277 OA
ATOM     19  N   VAL A   2     -36.566  24.732   2.296  0.00  0.00    -0.300 N 
ATOM     20  C   GLU A   1     -36.899  24.799   3.640  0.00  0.00    +0.202 C 
ATOM     21  H   VAL A   2     -35.679  25.057   2.016  0.00  0.00    +0.150 HD
BRANCH  20  22
ATOM     22  CA  GLU A   1     -35.791  25.422   4.483  0.00  0.00    +0.013 C 
BRANCH  22  23
ATOM     23  N   GLU A   1     -36.416  26.492   5.262  0.00  0.00    +0.387 N 
ATOM     24  H1  GLU A   1     -36.073  27.395   4.934  0.00  0.00    -0.089 HD
ATOM     25  H2  GLU A   1     -36.179  26.377   6.249  0.00  0.00    -0.089 HD
ATOM     26  H3  GLU A   1     -37.428  26.449   5.148  0.00  0.00    -0.089 HD
ENDBRANCH  22  23
BRANCH  22  27
ATOM     27  CB  GLU A   1     -35.145  24.408   5.440  0.00  0.00    -0.001 C 
BRANCH  27  28
ATOM     28  CG  GLU A   1     -34.933  23.028   4.817  0.00  0.00    +0.108 C 
BRANCH  28  30
ATOM     29  OE2 GLU A   1     -36.126  22.114   6.706  0.00  0.00    -0.250 OA
ATOM     30  CD  GLU A   1     -35.452  21.923   5.702  0.00  0.00    +0.314 C 
BRANCH  30  31
ATOM     31  OE1 GLU A   1     -35.073  20.690   5.284  0.00  0.00    -0.480 OA
ATOM     32  HE1 GLU A   1     -35.542  19.932   5.576  0.00  0.00    +0.295 HD
ENDBRANCH  30  31
ENDBRANCH  28  30
ENDBRANCH  27  28
ENDBRANCH  22  27
ENDBRANCH  20  22
ENDBRANCH   1  19
BRANCH   1  33
ATOM     33  CB  VAL A   2     -37.981  25.294   0.320  0.00  0.00    +0.027 C 
ATOM     34  CG1 VAL A   2     -39.426  25.711   0.613  0.00  0.00    +0.002 C 
ATOM     35  CG2 VAL A   2     -37.072  26.527   0.331  0.00  0.00    +0.002 C 
ENDBRANCH   1  33
TORSDOF 14
ENDMDL
MODEL 3
REMARK VINA RESULT:      -6.5      2.278      3.644
REMARK  Name = 193678
REMARK  14 active torsions:
REMARK  status: ('A' for Active; 'I' for Inactive)
REMARK    1  A    between atoms: CA_1  and  C_4
REMARK    2  A    between atoms: CA_1  and  N_19
REMARK    3  A    between atoms: CA_1  and  CB_33
REMARK    4  A    between atoms: N_3  and  CA_6
REMARK    5  A    between atoms: CA_6  and  C_8
REMARK    6  A    between atoms: CA_6  and  CB_11
REMARK    7  A    between atoms: C_8  and  O_9
REMARK    8  A    between atoms: CB_11  and  CG_12
REMARK    9  A    between atoms: C_20  and  CA_22
REMARK   10  A    between atoms: CA_22  and  N_23
REMARK   11  A    between atoms: CA_22  and  CB_27
REMARK   12  A    between atoms: CB_27  and  CG_28
REMARK   13  A    between atoms: CG_28  and  CD_30
REMARK   14  A    between atoms: CD_30  and  OE1_31
REMARK                            x       y       z     vdW  Elec       q    Type
REMARK                         _______ _______ _______ _____ _____    ______ ____
ROOT
ATOM      1  CA  VAL A   2     -35.162  24.536   0.900  0.00  0.00    +0.148 C 
ENDROOT
BRANCH   1   4
ATOM      2  O   VAL A   2     -35.849  22.873  -0.729  0.00  0.00    -0.273 OA
ATOM      3  N   PHE A   3     -35.163  22.162   1.371  0.00  0.00    -0.295 N 
ATOM      4  C   VAL A   2     -35.447  23.118   0.407  0.00  0.00    +0.241 C 
ATOM      5  H   PHE A   3     -34.846  22.463   2.253  0.00  0.00    +0.150 HD
BRANCH   3   6
ATOM      6  CA  PHE A   3     -35.310  20.744   1.140  0.00  0.00    +0.176 C 
BRANCH   6   8
ATOM      7  OXT PHE A   3     -37.645  20.389   0.612  0.00  0.00    -0.248 OA
ATOM      8  C   PHE A   3     -36.733  20.286   1.427  0.00  0.00    +0.332 C 
BRANCH   8   9
ATOM      9  O   PHE A   3     -36.920  19.746   2.656  0.00  0.00    -0.479 OA
ATOM     10  H   PHE A   3     -37.784  19.530   2.946  0.00  0.00    +0.295 HD
ENDBRANCH   8   9
ENDBRANCH   6   8
BRANCH   6  11
ATOM     11  CB  PHE A   3     -34.320  19.937   1.990  0.00  0.00    +0.057 C 
BRANCH  11  12
ATOM     12  CG  PHE A   3     -33.119  19.466   1.205  0.00  0.00    -0.020 C 
ATOM     13  CD1 PHE A   3     -32.486  20.332   0.313  0.00  0.00    -0.004 C 
ATOM     14  CD2 PHE A   3     -32.644  18.165   1.372  0.00  0.00    -0.004 C 
ATOM     15  CE1 PHE A   3     -31.378  19.897  -0.413  0.00  0.00    -0.000 C 
ATOM     16  CE2 PHE A   3     -31.534  17.730   0.646  0.00  0.00    -0.000 C 
ATOM     17  CZ  PHE A   3     -30.902  18.596  -0.246  0.00  0.00    -0.000 C 
ENDBRANCH  11  12
ENDBRANCH   6  11
ENDBRANCH   3   6
ENDBRANCH   1   4
BRANCH   1  19
ATOM     18  O   GLU A   1     -35.746  26.475   2.967  0.00  0.00    -0.277 OA
ATOM     19  N   VAL A   2     -34.803  24.459   2.299  0.00  0.00    -0.300 N 
ATOM     20  C   GLU A   1     -35.127  25.442   3.221  0.00  0.00    +0.202 C 
ATOM     21  H   VAL A   2     -34.303  23.671   2.610  0.00  0.00    +0.150 HD
BRANCH  20  22
ATOM     22  CA  GLU A   1     -34.600  25.126   4.617  0.00  0.00    +0.013 C 
BRANCH  22  23
ATOM     23  N   GLU A   1     -34.264  26.410   5.233  0.00  0.00    +0.387 N 
ATOM     24  H1  GLU A   1     -33.712  26.248   6.076  0.00  0.00    -0.089 HD
ATOM     25  H2  GLU A   1     -35.121  26.906   5.479  0.00  0.00    -0.089 HD
ATOM     26  H3  GLU A   1     -33.723  26.971   4.576  0.00  0.00    -0.089 HD
ENDBRANCH  22  23
BRANCH  22  27
ATOM     27  CB  GLU A   1     -35.643  24.405   5.485  0.00  0.00    -0.001 C 
BRANCH  27  28
ATOM     28  CG  GLU A   1     -35.189  23.028   5.969  0.00  0.00    +0.108 C 
BRANCH  28  30
ATOM     29  OE2 GLU A   1     -35.092  20.813   5.014  0.00  0.00    -0.250 OA
ATOM     30  CD  GLU A   1     -35.587  21.933   5.012  0.00  0.00    +0.314 C 
BRANCH  30  31
ATOM     31  OE1 GLU A   1     -36.536  22.325   4.126  0.00  0.00    -0.480 OA
ATOM     32  HE1 GLU A   1     -37.064  21.684   3.692  0.00  0.00    +0.295 HD
ENDBRANCH  30  31
ENDBRANCH  28  30
ENDBRANCH  27  28
ENDBRANCH  22  27
ENDBRANCH  20  22
ENDBRANCH   1  19
BRANCH   1  33
ATOM     33  CB  VAL A   2     -34.098  25.249   0.040  0.00  0.00    +0.027 C 
ATOM     34  CG1 VAL A   2     -34.423  26.725  -0.216  0.00  0.00    +0.002 C 
ATOM     35  CG2 VAL A   2     -32.707  25.125   0.669  0.00  0.00    +0.002 C 
ENDBRANCH   1  33
TORSDOF 14
ENDMDL
MODEL 4
REMARK VINA RESULT:      -6.3      1.316      1.704
REMARK  Name = 193678
REMARK  14 active torsions:
REMARK  status: ('A' for Active; 'I' for Inactive)
REMARK    1  A    between atoms: CA_1  and  C_4
REMARK    2  A    between atoms: CA_1  and  N_19
REMARK    3  A    between atoms: CA_1  and  CB_33
REMARK    4  A    between atoms: N_3  and  CA_6
REMARK    5  A    between atoms: CA_6  and  C_8
REMARK    6  A    between atoms: CA_6  and  CB_11
REMARK    7  A    between atoms: C_8  and  O_9
REMARK    8  A    between atoms: CB_11  and  CG_12
REMARK    9  A    between atoms: C_20  and  CA_22
REMARK   10  A    between atoms: CA_22  and  N_23
REMARK   11  A    between atoms: CA_22  and  CB_27
REMARK   12  A    between atoms: CB_27  and  CG_28
REMARK   13  A    between atoms: CG_28  and  CD_30
REMARK   14  A    between atoms: CD_30  and  OE1_31
REMARK                            x       y       z     vdW  Elec       q    Type
REMARK                         _______ _______ _______ _____ _____    ______ ____
ROOT
ATOM      1  CA  VAL A   2     -35.776  24.825   3.330  0.00  0.00    +0.148 C 
ENDROOT
BRANCH   1   4
ATOM      2  O   VAL A   2     -33.985  24.354   1.761  0.00  0.00    -0.273 OA
ATOM      3  N   PHE A   3     -35.776  22.883   1.886  0.00  0.00    -0.295 N 
ATOM      4  C   VAL A   2     -35.070  24.025   2.236  0.00  0.00    +0.241 C 
ATOM      5  H   PHE A   3     -36.639  22.709   2.326  0.00  0.00    +0.150 HD
BRANCH   3   6
ATOM      6  CA  PHE A   3     -35.302  21.936   0.903  0.00  0.00    +0.176 C 
BRANCH   6   8
ATOM      7  OXT PHE A   3     -36.872  20.719  -0.478  0.00  0.00    -0.248 OA
ATOM      8  C   PHE A   3     -36.302  21.777  -0.233  0.00  0.00    +0.332 C 
BRANCH   8   9
ATOM      9  O   PHE A   3     -36.525  22.901  -0.957  0.00  0.00    -0.479 OA
ATOM     10  H   PHE A   3     -37.311  22.987  -1.459  0.00  0.00    +0.295 HD
ENDBRANCH   8   9
ENDBRANCH   6   8
BRANCH   6  11
ATOM     11  CB  PHE A   3     -35.014  20.571   1.542  0.00  0.00    +0.057 C 
BRANCH  11  12
ATOM     12  CG  PHE A   3     -33.689  19.989   1.113  0.00  0.00    -0.020 C 
ATOM     13  CD1 PHE A   3     -32.841  20.722   0.283  0.00  0.00    -0.004 C 
ATOM     14  CD2 PHE A   3     -33.312  18.718   1.548  0.00  0.00    -0.004 C 
ATOM     15  CE1 PHE A   3     -31.617  20.184  -0.114  0.00  0.00    -0.000 C 
ATOM     16  CE2 PHE A   3     -32.087  18.180   1.152  0.00  0.00    -0.000 C 
ATOM     17  CZ  PHE A   3     -31.240  18.914   0.321  0.00  0.00    -0.000 C 
ENDBRANCH  11  12
ENDBRANCH   6  11
ENDBRANCH   3   6
ENDBRANCH   1   4
BRANCH   1  19
ATOM     18  O   GLU A   1     -38.090  26.446   2.708  0.00  0.00    -0.277 OA
ATOM     19  N   VAL A   2     -37.163  24.417   3.358  0.00  0.00    -0.300 N 
ATOM     20  C   GLU A   1     -38.211  25.268   3.043  0.00  0.00    +0.202 C 
ATOM     21  H   VAL A   2     -37.372  23.490   3.614  0.00  0.00    +0.150 HD
BRANCH  20  22
ATOM     22  CA  GLU A   1     -39.571  24.593   3.185  0.00  0.00    +0.013 C 
BRANCH  22  23
ATOM     23  N   GLU A   1     -40.439  25.549   3.874  0.00  0.00    +0.387 N 
ATOM     24  H1  GLU A   1     -40.061  25.743   4.801  0.00  0.00    -0.089 HD
ATOM     25  H2  GLU A   1     -41.376  25.155   3.963  0.00  0.00    -0.089 HD
ATOM     26  H3  GLU A   1     -40.483  26.415   3.337  0.00  0.00    -0.089 HD
ENDBRANCH  22  23
BRANCH  22  27
ATOM     27  CB  GLU A   1     -40.190  24.234   1.825  0.00  0.00    -0.001 C 
BRANCH  27  28
ATOM     28  CG  GLU A   1     -39.476  23.087   1.111  0.00  0.00    +0.108 C 
BRANCH  28  30
ATOM     29  OE2 GLU A   1     -40.460  21.087   2.038  0.00  0.00    -0.250 OA
ATOM     30  CD  GLU A   1     -39.486  21.820   1.929  0.00  0.00    +0.314 C 
BRANCH  30  31
ATOM     31  OE1 GLU A   1     -38.307  21.589   2.558  0.00  0.00    -0.480 OA
ATOM     32  HE1 GLU A   1     -37.902  22.269   3.060  0.00  0.00    +0.295 HD
ENDBRANCH  30  31
ENDBRANCH  28  30
ENDBRANCH  27  28
ENDBRANCH  22  27
ENDBRANCH  20  22
ENDBRANCH   1  19
BRANCH   1  33
ATOM     33  CB  VAL A   2     -35.076  24.686   4.698  0.00  0.00    +0.027 C 
ATOM     34  CG1 VAL A   2     -35.339  25.873   5.631  0.00  0.00    +0.002 C 
ATOM     35  CG2 VAL A   2     -35.477  23.381   5.392  0.00  0.00    +0.002 C 
ENDBRANCH   1  33
TORSDOF 14
ENDMDL
MODEL 5
REMARK VINA RESULT:      -6.2      2.122      4.357
REMARK  Name = 193678
REMARK  14 active torsions:
REMARK  status: ('A' for Active; 'I' for Inactive)
REMARK    1  A    between atoms: CA_1  and  C_4
REMARK    2  A    between atoms: CA_1  and  N_19
REMARK    3  A    between atoms: CA_1  and  CB_33
REMARK    4  A    between atoms: N_3  and  CA_6
REMARK    5  A    between atoms: CA_6  and  C_8
REMARK    6  A    between atoms: CA_6  and  CB_11
REMARK    7  A    between atoms: C_8  and  O_9
REMARK    8  A    between atoms: CB_11  and  CG_12
REMARK    9  A    between atoms: C_20  and  CA_22
REMARK   10  A    between atoms: CA_22  and  N_23
REMARK   11  A    between atoms: CA_22  and  CB_27
REMARK   12  A    between atoms: CB_27  and  CG_28
REMARK   13  A    between atoms: CG_28  and  CD_30
REMARK   14  A    between atoms: CD_30  and  OE1_31
REMARK                            x       y       z     vdW  Elec       q    Type
REMARK                         _______ _______ _______ _____ _____    ______ ____
ROOT
ATOM      1  CA  VAL A   2     -36.449  24.371   1.539  0.00  0.00    +0.148 C 
ENDROOT
BRANCH   1   4
ATOM      2  O   VAL A   2     -35.850  23.224  -0.513  0.00  0.00    -0.273 OA
ATOM      3  N   PHE A   3     -36.100  21.978   1.429  0.00  0.00    -0.295 N 
ATOM      4  C   VAL A   2     -36.112  23.150   0.685  0.00  0.00    +0.241 C 
ATOM      5  H   PHE A   3     -36.326  22.026   2.386  0.00  0.00    +0.150 HD
BRANCH   3   6
ATOM      6  CA  PHE A   3     -35.771  20.691   0.863  0.00  0.00    +0.176 C 
BRANCH   6   8
ATOM      7  OXT PHE A   3     -38.011  20.376   0.007  0.00  0.00    -0.248 OA
ATOM      8  C   PHE A   3     -37.027  19.889   0.554  0.00  0.00    +0.332 C 
BRANCH   8   9
ATOM      9  O   PHE A   3     -36.977  18.587   0.924  0.00  0.00    -0.479 OA
ATOM     10  H   PHE A   3     -37.668  18.219   1.438  0.00  0.00    +0.295 HD
ENDBRANCH   8   9
ENDBRANCH   6   8
BRANCH   6  11
ATOM     11  CB  PHE A   3     -34.857  19.890   1.801  0.00  0.00    +0.057 C 
BRANCH  11  12
ATOM     12  CG  PHE A   3     -33.500  19.611   1.201  0.00  0.00    -0.020 C 
ATOM     13  CD1 PHE A   3     -32.846  18.412   1.486  0.00  0.00    -0.004 C 
ATOM     14  CD2 PHE A   3     -32.900  20.552   0.364  0.00  0.00    -0.004 C 
ATOM     15  CE1 PHE A   3     -31.591  18.154   0.933  0.00  0.00    -0.000 C 
ATOM     16  CE2 PHE A   3     -31.645  20.293  -0.190  0.00  0.00    -0.000 C 
ATOM     17  CZ  PHE A   3     -30.992  19.094   0.095  0.00  0.00    -0.000 C 
ENDBRANCH  11  12
ENDBRANCH   6  11
ENDBRANCH   3   6
ENDBRANCH   1   4
BRANCH   1  19
ATOM     18  O   GLU A   1     -37.946  24.564   4.008  0.00  0.00    -0.277 OA
ATOM     19  N   VAL A   2     -35.963  24.128   2.879  0.00  0.00    -0.300 N 
ATOM     20  C   GLU A   1     -36.757  24.246   4.009  0.00  0.00    +0.202 C 
ATOM     21  H   VAL A   2     -35.020  23.867   2.994  0.00  0.00    +0.150 HD
BRANCH  20  22
ATOM     22  CA  GLU A   1     -35.985  23.966   5.294  0.00  0.00    +0.013 C 
BRANCH  22  23
ATOM     23  N   GLU A   1     -36.026  22.517   5.495  0.00  0.00    +0.387 N 
ATOM     24  H1  GLU A   1     -35.298  22.076   4.932  0.00  0.00    -0.089 HD
ATOM     25  H2  GLU A   1     -36.938  22.159   5.210  0.00  0.00    -0.089 HD
ATOM     26  H3  GLU A   1     -35.869  22.306   6.479  0.00  0.00    -0.089 HD
ENDBRANCH  22  23
BRANCH  22  27
ATOM     27  CB  GLU A   1     -34.521  24.426   5.208  0.00  0.00    -0.001 C 
BRANCH  27  28
ATOM     28  CG  GLU A   1     -34.303  25.863   5.680  0.00  0.00    +0.108 C 
BRANCH  28  30
ATOM     29  OE2 GLU A   1     -32.554  26.543   4.162  0.00  0.00    -0.250 OA
ATOM     30  CD  GLU A   1     -33.680  26.721   4.607  0.00  0.00    +0.314 C 
BRANCH  30  31
ATOM     31  OE1 GLU A   1     -34.489  27.731   4.203  0.00  0.00    -0.480 OA
ATOM     32  HE1 GLU A   1     -35.399  27.721   4.428  0.00  0.00    +0.295 HD
ENDBRANCH  30  31
ENDBRANCH  28  30
ENDBRANCH  27  28
ENDBRANCH  22  27
ENDBRANCH  20  22
ENDBRANCH   1  19
BRANCH   1  33
ATOM     33  CB  VAL A   2     -35.908  25.679   0.926  0.00  0.00    +0.027 C 
ATOM     34  CG1 VAL A   2     -36.631  26.928   1.440  0.00  0.00    +0.002 C 
ATOM     35  CG2 VAL A   2     -34.401  25.816   1.164  0.00  0.00    +0.002 C 
ENDBRANCH   1  33
TORSDOF 14
ENDMDL
MODEL 6
REMARK VINA RESULT:      -6.2      2.060      4.417
REMARK  Name = 193678
REMARK  14 active torsions:
REMARK  status: ('A' for Active; 'I' for Inactive)
REMARK    1  A    between atoms: CA_1  and  C_4
REMARK    2  A    between atoms: CA_1  and  N_19
REMARK    3  A    between atoms: CA_1  and  CB_33
REMARK    4  A    between atoms: N_3  and  CA_6
REMARK    5  A    between atoms: CA_6  and  C_8
REMARK    6  A    between atoms: CA_6  and  CB_11
REMARK    7  A    between atoms: C_8  and  O_9
REMARK    8  A    between atoms: CB_11  and  CG_12
REMARK    9  A    between atoms: C_20  and  CA_22
REMARK   10  A    between atoms: CA_22  and  N_23
REMARK   11  A    between atoms: CA_22  and  CB_27
REMARK   12  A    between atoms: CB_27  and  CG_28
REMARK   13  A    between atoms: CG_28  and  CD_30
REMARK   14  A    between atoms: CD_30  and  OE1_31
REMARK                            x       y       z     vdW  Elec       q    Type
REMARK                         _______ _______ _______ _____ _____    ______ ____
ROOT
ATOM      1  CA  VAL A   2     -37.206  21.358   2.121  0.00  0.00    +0.148 C 
ENDROOT
BRANCH   1   4
ATOM      2  O   VAL A   2     -35.333  21.870   0.665  0.00  0.00    -0.273 OA
ATOM      3  N   PHE A   3     -35.758  19.651   1.199  0.00  0.00    -0.295 N 
ATOM      4  C   VAL A   2     -36.007  21.016   1.238  0.00  0.00    +0.241 C 
ATOM      5  H   PHE A   3     -36.359  19.049   1.693  0.00  0.00    +0.150 HD
BRANCH   3   6
ATOM      6  CA  PHE A   3     -34.655  19.074   0.465  0.00  0.00    +0.176 C 
BRANCH   6   8
ATOM      7  OXT PHE A   3     -34.320  17.139  -0.947  0.00  0.00    -0.248 OA
ATOM      8  C   PHE A   3     -35.064  17.770  -0.204  0.00  0.00    +0.332 C 
BRANCH   8   9
ATOM      9  O   PHE A   3     -36.318  17.348   0.090  0.00  0.00    -0.479 OA
ATOM     10  H   PHE A   3     -36.977  17.339  -0.576  0.00  0.00    +0.295 HD
ENDBRANCH   8   9
ENDBRANCH   6   8
BRANCH   6  11
ATOM     11  CB  PHE A   3     -33.446  18.836   1.380  0.00  0.00    +0.057 C 
BRANCH  11  12
ATOM     12  CG  PHE A   3     -32.131  19.160   0.711  0.00  0.00    -0.020 C 
ATOM     13  CD1 PHE A   3     -31.069  18.260   0.789  0.00  0.00    -0.004 C 
ATOM     14  CD2 PHE A   3     -31.979  20.360   0.015  0.00  0.00    -0.004 C 
ATOM     15  CE1 PHE A   3     -29.854  18.559   0.173  0.00  0.00    -0.000 C 
ATOM     16  CE2 PHE A   3     -30.764  20.659  -0.602  0.00  0.00    -0.000 C 
ATOM     17  CZ  PHE A   3     -29.702  19.758  -0.523  0.00  0.00    -0.000 C 
ENDBRANCH  11  12
ENDBRANCH   6  11
ENDBRANCH   3   6
ENDBRANCH   1   4
BRANCH   1  19
ATOM     18  O   GLU A   1     -35.170  20.555   4.013  0.00  0.00    -0.277 OA
ATOM     19  N   VAL A   2     -36.723  22.109   3.258  0.00  0.00    -0.300 N 
ATOM     20  C   GLU A   1     -35.739  21.641   4.115  0.00  0.00    +0.202 C 
ATOM     21  H   VAL A   2     -37.114  22.995   3.433  0.00  0.00    +0.150 HD
BRANCH  20  22
ATOM     22  CA  GLU A   1     -35.443  22.617   5.249  0.00  0.00    +0.013 C 
BRANCH  22  23
ATOM     23  N   GLU A   1     -34.687  21.868   6.254  0.00  0.00    +0.387 N 
ATOM     24  H1  GLU A   1     -35.062  20.922   6.325  0.00  0.00    -0.089 HD
ATOM     25  H2  GLU A   1     -34.768  22.335   7.158  0.00  0.00    -0.089 HD
ATOM     26  H3  GLU A   1     -33.706  21.826   5.979  0.00  0.00    -0.089 HD
ENDBRANCH  22  23
BRANCH  22  27
ATOM     27  CB  GLU A   1     -34.610  23.820   4.780  0.00  0.00    -0.001 C 
BRANCH  27  28
ATOM     28  CG  GLU A   1     -34.715  25.034   5.704  0.00  0.00    +0.108 C 
BRANCH  28  30
ATOM     29  OE2 GLU A   1     -34.860  27.014   4.332  0.00  0.00    -0.250 OA
ATOM     30  CD  GLU A   1     -35.421  26.189   5.040  0.00  0.00    +0.314 C 
BRANCH  30  31
ATOM     31  OE1 GLU A   1     -36.745  26.236   5.331  0.00  0.00    -0.480 OA
ATOM     32  HE1 GLU A   1     -37.204  25.449   5.550  0.00  0.00    +0.295 HD
ENDBRANCH  30  31
ENDBRANCH  28  30
ENDBRANCH  27  28
ENDBRANCH  22  27
ENDBRANCH  20  22
ENDBRANCH   1  19
BRANCH   1  33
ATOM     33  CB  VAL A   2     -38.316  22.089   1.338  0.00  0.00    +0.027 C 
ATOM     34  CG1 VAL A   2     -39.702  21.465   1.537  0.00  0.00    +0.002 C 
ATOM     35  CG2 VAL A   2     -38.359  23.576   1.704  0.00  0.00    +0.002 C 
ENDBRANCH   1  33
TORSDOF 14
ENDMDL
MODEL 7
REMARK VINA RESULT:      -6.0      3.361      5.470
REMARK  Name = 193678
REMARK  14 active torsions:
REMARK  status: ('A' for Active; 'I' for Inactive)
REMARK    1  A    between atoms: CA_1  and  C_4
REMARK    2  A    between atoms: CA_1  and  N_19
REMARK    3  A    between atoms: CA_1  and  CB_33
REMARK    4  A    between atoms: N_3  and  CA_6
REMARK    5  A    between atoms: CA_6  and  C_8
REMARK    6  A    between atoms: CA_6  and  CB_11
REMARK    7  A    between atoms: C_8  and  O_9
REMARK    8  A    between atoms: CB_11  and  CG_12
REMARK    9  A    between atoms: C_20  and  CA_22
REMARK   10  A    between atoms: CA_22  and  N_23
REMARK   11  A    between atoms: CA_22  and  CB_27
REMARK   12  A    between atoms: CB_27  and  CG_28
REMARK   13  A    between atoms: CG_28  and  CD_30
REMARK   14  A    between atoms: CD_30  and  OE1_31
REMARK                            x       y       z     vdW  Elec       q    Type
REMARK                         _______ _______ _______ _____ _____    ______ ____
ROOT
ATOM      1  CA  VAL A   2     -34.628  24.513   3.740  0.00  0.00    +0.148 C 
ENDROOT
BRANCH   1   4
ATOM      2  O   VAL A   2     -35.091  24.359   1.363  0.00  0.00    -0.273 OA
ATOM      3  N   PHE A   3     -35.301  22.451   2.667  0.00  0.00    -0.295 N 
ATOM      4  C   VAL A   2     -35.039  23.797   2.455  0.00  0.00    +0.241 C 
ATOM      5  H   PHE A   3     -35.232  22.097   3.582  0.00  0.00    +0.150 HD
BRANCH   3   6
ATOM      6  CA  PHE A   3     -35.671  21.545   1.604  0.00  0.00    +0.176 C 
BRANCH   6   8
ATOM      7  OXT PHE A   3     -37.756  22.291   0.630  0.00  0.00    -0.248 OA
ATOM      8  C   PHE A   3     -37.179  21.528   1.398  0.00  0.00    +0.332 C 
BRANCH   8   9
ATOM      9  O   PHE A   3     -37.843  20.597   2.125  0.00  0.00    -0.479 OA
ATOM     10  H   PHE A   3     -37.490  20.301   2.940  0.00  0.00    +0.295 HD
ENDBRANCH   8   9
ENDBRANCH   6   8
BRANCH   6  11
ATOM     11  CB  PHE A   3     -35.166  20.123   1.887  0.00  0.00    +0.057 C 
BRANCH  11  12
ATOM     12  CG  PHE A   3     -33.818  19.845   1.267  0.00  0.00    -0.020 C 
ATOM     13  CD1 PHE A   3     -33.152  18.653   1.553  0.00  0.00    -0.004 C 
ATOM     14  CD2 PHE A   3     -33.238  20.780   0.409  0.00  0.00    -0.004 C 
ATOM     15  CE1 PHE A   3     -31.905  18.396   0.982  0.00  0.00    -0.000 C 
ATOM     16  CE2 PHE A   3     -31.992  20.522  -0.164  0.00  0.00    -0.000 C 
ATOM     17  CZ  PHE A   3     -31.326  19.330   0.124  0.00  0.00    -0.000 C 
ENDBRANCH  11  12
ENDBRANCH   6  11
ENDBRANCH   3   6
ENDBRANCH   1   4
BRANCH   1  19
ATOM     18  O   GLU A   1     -32.097  25.797   3.174  0.00  0.00    -0.277 OA
ATOM     19  N   VAL A   2     -34.405  25.906   3.423  0.00  0.00    -0.300 N 
ATOM     20  C   GLU A   1     -33.149  26.435   3.165  0.00  0.00    +0.202 C 
ATOM     21  H   VAL A   2     -35.183  26.509   3.390  0.00  0.00    +0.150 HD
BRANCH  20  22
ATOM     22  CA  GLU A   1     -33.195  27.935   2.892  0.00  0.00    +0.013 C 
BRANCH  22  23
ATOM     23  N   GLU A   1     -34.423  28.432   3.514  0.00  0.00    +0.387 N 
ATOM     24  H1  GLU A   1     -35.171  27.752   3.379  0.00  0.00    -0.089 HD
ATOM     25  H2  GLU A   1     -34.688  29.318   3.083  0.00  0.00    -0.089 HD
ATOM     26  H3  GLU A   1     -34.266  28.572   4.512  0.00  0.00    -0.089 HD
ENDBRANCH  22  23
BRANCH  22  27
ATOM     27  CB  GLU A   1     -31.988  28.674   3.491  0.00  0.00    -0.001 C 
BRANCH  27  28
ATOM     28  CG  GLU A   1     -32.239  29.217   4.898  0.00  0.00    +0.108 C 
BRANCH  28  30
ATOM     29  OE2 GLU A   1     -30.557  27.732   5.787  0.00  0.00    -0.250 OA
ATOM     30  CD  GLU A   1     -31.595  28.359   5.957  0.00  0.00    +0.314 C 
BRANCH  30  31
ATOM     31  OE1 GLU A   1     -32.299  28.332   7.115  0.00  0.00    -0.480 OA
ATOM     32  HE1 GLU A   1     -32.640  27.520   7.437  0.00  0.00    +0.295 HD
ENDBRANCH  30  31
ENDBRANCH  28  30
ENDBRANCH  27  28
ENDBRANCH  22  27
ENDBRANCH  20  22
ENDBRANCH   1  19
BRANCH   1  33
ATOM     33  CB  VAL A   2     -35.651  24.307   4.876  0.00  0.00    +0.027 C 
ATOM     34  CG1 VAL A   2     -35.202  23.266   5.907  0.00  0.00    +0.002 C 
ATOM     35  CG2 VAL A   2     -35.969  25.630   5.578  0.00  0.00    +0.002 C 
ENDBRANCH   1  33
TORSDOF 14
ENDMDL
MODEL 8
REMARK VINA RESULT:      -6.0      5.434      8.795
REMARK  Name = 193678
REMARK  14 active torsions:
REMARK  status: ('A' for Active; 'I' for Inactive)
REMARK    1  A    between atoms: CA_1  and  C_4
REMARK    2  A    between atoms: CA_1  and  N_19
REMARK    3  A    between atoms: CA_1  and  CB_33
REMARK    4  A    between atoms: N_3  and  CA_6
REMARK    5  A    between atoms: CA_6  and  C_8
REMARK    6  A    between atoms: CA_6  and  CB_11
REMARK    7  A    between atoms: C_8  and  O_9
REMARK    8  A    between atoms: CB_11  and  CG_12
REMARK    9  A    between atoms: C_20  and  CA_22
REMARK   10  A    between atoms: CA_22  and  N_23
REMARK   11  A    between atoms: CA_22  and  CB_27
REMARK   12  A    between atoms: CB_27  and  CG_28
REMARK   13  A    between atoms: CG_28  and  CD_30
REMARK   14  A    between atoms: CD_30  and  OE1_31
REMARK                            x       y       z     vdW  Elec       q    Type
REMARK                         _______ _______ _______ _____ _____    ______ ____
ROOT
ATOM      1  CA  VAL A   2     -32.679  28.198   3.102  0.00  0.00    +0.148 C 
ENDROOT
BRANCH   1   4
ATOM      2  O   VAL A   2     -32.876  25.792   3.353  0.00  0.00    -0.273 OA
ATOM      3  N   PHE A   3     -34.800  27.037   2.989  0.00  0.00    -0.295 N 
ATOM      4  C   VAL A   2     -33.433  26.870   3.153  0.00  0.00    +0.241 C 
ATOM      5  H   PHE A   3     -35.148  27.944   2.833  0.00  0.00    +0.150 HD
BRANCH   3   6
ATOM      6  CA  PHE A   3     -35.739  25.939   3.036  0.00  0.00    +0.176 C 
BRANCH   6   8
ATOM      7  OXT PHE A   3     -37.892  25.464   2.041  0.00  0.00    -0.248 OA
ATOM      8  C   PHE A   3     -37.038  26.297   2.328  0.00  0.00    +0.332 C 
BRANCH   8   9
ATOM      9  O   PHE A   3     -37.186  27.613   2.042  0.00  0.00    -0.479 OA
ATOM     10  H   PHE A   3     -38.042  27.969   1.905  0.00  0.00    +0.295 HD
ENDBRANCH   8   9
ENDBRANCH   6   8
BRANCH   6  11
ATOM     11  CB  PHE A   3     -36.030  25.522   4.484  0.00  0.00    +0.057 C 
BRANCH  11  12
ATOM     12  CG  PHE A   3     -35.736  24.064   4.745  0.00  0.00    -0.020 C 
ATOM     13  CD1 PHE A   3     -35.784  23.144   3.698  0.00  0.00    -0.004 C 
ATOM     14  CD2 PHE A   3     -35.417  23.637   6.035  0.00  0.00    -0.004 C 
ATOM     15  CE1 PHE A   3     -35.514  21.797   3.939  0.00  0.00    -0.000 C 
ATOM     16  CE2 PHE A   3     -35.145  22.290   6.276  0.00  0.00    -0.000 C 
ATOM     17  CZ  PHE A   3     -35.195  21.371   5.228  0.00  0.00    -0.000 C 
ENDBRANCH  11  12
ENDBRANCH   6  11
ENDBRANCH   3   6
ENDBRANCH   1   4
BRANCH   1  19
ATOM     18  O   GLU A   1     -32.861  30.465   4.890  0.00  0.00    -0.277 OA
ATOM     19  N   VAL A   2     -31.997  28.373   4.365  0.00  0.00    -0.300 N 
ATOM     20  C   GLU A   1     -32.146  29.500   5.158  0.00  0.00    +0.202 C 
ATOM     21  H   VAL A   2     -31.397  27.658   4.675  0.00  0.00    +0.150 HD
BRANCH  20  22
ATOM     22  CA  GLU A   1     -31.289  29.442   6.418  0.00  0.00    +0.013 C 
BRANCH  22  23
ATOM     23  N   GLU A   1     -31.726  28.260   7.162  0.00  0.00    +0.387 N 
ATOM     24  H1  GLU A   1     -30.910  27.732   7.471  0.00  0.00    -0.089 HD
ATOM     25  H2  GLU A   1     -32.303  27.672   6.560  0.00  0.00    -0.089 HD
ATOM     26  H3  GLU A   1     -32.270  28.552   7.974  0.00  0.00    -0.089 HD
ENDBRANCH  22  23
BRANCH  22  27
ATOM     27  CB  GLU A   1     -29.791  29.315   6.099  0.00  0.00    -0.001 C 
BRANCH  27  28
ATOM     28  CG  GLU A   1     -28.892  29.435   7.329  0.00  0.00    +0.108 C 
BRANCH  28  30
ATOM     29  OE2 GLU A   1     -27.063  28.109   8.180  0.00  0.00    -0.250 OA
ATOM     30  CD  GLU A   1     -28.146  28.155   7.611  0.00  0.00    +0.314 C 
BRANCH  30  31
ATOM     31  OE1 GLU A   1     -28.789  27.056   7.145  0.00  0.00    -0.480 OA
ATOM     32  HE1 GLU A   1     -28.994  26.986   6.233  0.00  0.00    +0.295 HD
ENDBRANCH  30  31
ENDBRANCH  28  30
ENDBRANCH  27  28
ENDBRANCH  22  27
ENDBRANCH  20  22
ENDBRANCH   1  19
BRANCH   1  33
ATOM     33  CB  VAL A   2     -31.734  28.285   1.885  0.00  0.00    +0.027 C 
ATOM     34  CG1 VAL A   2     -31.790  29.643   1.178  0.00  0.00    +0.002 C 
ATOM     35  CG2 VAL A   2     -30.291  27.967   2.286  0.00  0.00    +0.002 C 
ENDBRANCH   1  33
TORSDOF 14
ENDMDL
MODEL 9
REMARK VINA RESULT:      -6.0      5.300      8.647
REMARK  Name = 193678
REMARK  14 active torsions:
REMARK  status: ('A' for Active; 'I' for Inactive)
REMARK    1  A    between atoms: CA_1  and  C_4
REMARK    2  A    between atoms: CA_1  and  N_19
REMARK    3  A    between atoms: CA_1  and  CB_33
REMARK    4  A    between atoms: N_3  and  CA_6
REMARK    5  A    between atoms: CA_6  and  C_8
REMARK    6  A    between atoms: CA_6  and  CB_11
REMARK    7  A    between atoms: C_8  and  O_9
REMARK    8  A    between atoms: CB_11  and  CG_12
REMARK    9  A    between atoms: C_20  and  CA_22
REMARK   10  A    between atoms: CA_22  and  N_23
REMARK   11  A    between atoms: CA_22  and  CB_27
REMARK   12  A    between atoms: CB_27  and  CG_28
REMARK   13  A    between atoms: CG_28  and  CD_30
REMARK   14  A    between atoms: CD_30  and  OE1_31
REMARK                            x       y       z     vdW  Elec       q    Type
REMARK                         _______ _______ _______ _____ _____    ______ ____
ROOT
ATOM      1  CA  VAL A   2     -32.738  28.751   4.376  0.00  0.00    +0.148 C 
ENDROOT
BRANCH   1   4
ATOM      2  O   VAL A   2     -32.530  26.393   3.840  0.00  0.00    -0.273 OA
ATOM      3  N   PHE A   3     -34.653  27.315   4.018  0.00  0.00    -0.295 N 
ATOM      4  C   VAL A   2     -33.266  27.358   4.036  0.00  0.00    +0.241 C 
ATOM      5  H   PHE A   3     -35.152  28.146   4.188  0.00  0.00    +0.150 HD
BRANCH   3   6
ATOM      6  CA  PHE A   3     -35.399  26.104   3.761  0.00  0.00    +0.176 C 
BRANCH   6   8
ATOM      7  OXT PHE A   3     -36.590  26.670   1.733  0.00  0.00    -0.248 OA
ATOM      8  C   PHE A   3     -36.639  26.390   2.926  0.00  0.00    +0.332 C 
BRANCH   8   9
ATOM      9  O   PHE A   3     -37.811  26.307   3.601  0.00  0.00    -0.479 OA
ATOM     10  H   PHE A   3     -37.816  26.040   4.500  0.00  0.00    +0.295 HD
ENDBRANCH   8   9
ENDBRANCH   6   8
BRANCH   6  11
ATOM     11  CB  PHE A   3     -35.798  25.411   5.070  0.00  0.00    +0.057 C 
BRANCH  11  12
ATOM     12  CG  PHE A   3     -35.578  23.917   5.035  0.00  0.00    -0.020 C 
ATOM     13  CD1 PHE A   3     -35.682  23.225   3.829  0.00  0.00    -0.004 C 
ATOM     14  CD2 PHE A   3     -35.271  23.230   6.210  0.00  0.00    -0.004 C 
ATOM     15  CE1 PHE A   3     -35.481  21.846   3.796  0.00  0.00    -0.000 C 
ATOM     16  CE2 PHE A   3     -35.068  21.850   6.177  0.00  0.00    -0.000 C 
ATOM     17  CZ  PHE A   3     -35.173  21.158   4.970  0.00  0.00    -0.000 C 
ENDBRANCH  11  12
ENDBRANCH   6  11
ENDBRANCH   3   6
ENDBRANCH   1   4
BRANCH   1  19
ATOM     18  O   GLU A   1     -31.533  29.547   6.883  0.00  0.00    -0.277 OA
ATOM     19  N   VAL A   2     -31.350  28.620   4.761  0.00  0.00    -0.300 N 
ATOM     20  C   GLU A   1     -30.861  29.033   5.990  0.00  0.00    +0.202 C 
ATOM     21  H   VAL A   2     -30.722  28.220   4.117  0.00  0.00    +0.150 HD
BRANCH  20  22
ATOM     22  CA  GLU A   1     -29.358  28.810   6.123  0.00  0.00    +0.013 C 
BRANCH  22  23
ATOM     23  N   GLU A   1     -29.188  27.566   6.875  0.00  0.00    +0.387 N 
ATOM     24  H1  GLU A   1     -28.722  27.766   7.760  0.00  0.00    -0.089 HD
ATOM     25  H2  GLU A   1     -28.621  26.914   6.332  0.00  0.00    -0.089 HD
ATOM     26  H3  GLU A   1     -30.102  27.152   7.058  0.00  0.00    -0.089 HD
ENDBRANCH  22  23
BRANCH  22  27
ATOM     27  CB  GLU A   1     -28.665  28.675   4.757  0.00  0.00    -0.001 C 
BRANCH  27  28
ATOM     28  CG  GLU A   1     -27.874  27.377   4.599  0.00  0.00    +0.108 C 
BRANCH  28  30
ATOM     29  OE2 GLU A   1     -28.012  25.383   3.245  0.00  0.00    -0.250 OA
ATOM     30  CD  GLU A   1     -28.497  26.456   3.581  0.00  0.00    +0.314 C 
BRANCH  30  31
ATOM     31  OE1 GLU A   1     -29.643  26.951   3.053  0.00  0.00    -0.480 OA
ATOM     32  HE1 GLU A   1     -30.246  27.420   3.597  0.00  0.00    +0.295 HD
ENDBRANCH  30  31
ENDBRANCH  28  30
ENDBRANCH  27  28
ENDBRANCH  22  27
ENDBRANCH  20  22
ENDBRANCH   1  19
BRANCH   1  33
ATOM     33  CB  VAL A   2     -32.956  29.754   3.224  0.00  0.00    +0.027 C 
ATOM     34  CG1 VAL A   2     -32.779  31.213   3.658  0.00  0.00    +0.002 C 
ATOM     35  CG2 VAL A   2     -32.029  29.447   2.044  0.00  0.00    +0.002 C 
ENDBRANCH   1  33
TORSDOF 14
ENDMDL
