MODEL 1
REMARK VINA RESULT:      -6.4      0.000      0.000
REMARK  Name = 51346130
REMARK  6 active torsions:
REMARK  status: ('A' for Active; 'I' for Inactive)
REMARK    1  A    between atoms: C_4  and  C_24
REMARK    2  A    between atoms: C_7  and  C_29
REMARK    3  A    between atoms: C_10  and  O_22
REMARK    4  A    between atoms: C_24  and  O_25
REMARK    5  A    between atoms: O_25  and  C_27
REMARK    6  A    between atoms: C_29  and  O_30
REMARK                            x       y       z     vdW  Elec       q    Type
REMARK                         _______ _______ _______ _____ _____    ______ ____
ROOT
ATOM      1  O   UNL     1     -35.217  23.929   0.468  0.00  0.00    -0.452 OA
ATOM      2  O   UNL     1     -36.286  21.380   3.631  0.00  0.00    -0.291 OA
ATOM      3  O   UNL     1     -34.406  22.054   1.407  0.00  0.00    -0.250 OA
ATOM      4  C   UNL     1     -37.370  24.759   1.348  0.00  0.00    +0.083 C 
ATOM      5  C   UNL     1     -36.904  24.439   2.845  0.00  0.00    +0.051 C 
ATOM      6  C   UNL     1     -35.571  23.593   2.854  0.00  0.00    +0.147 C 
ATOM      7  C   UNL     1     -38.399  25.961   1.221  0.00  0.00    +0.036 C 
ATOM      8  C   UNL     1     -36.060  25.092   0.591  0.00  0.00    +0.172 C 
ATOM      9  C   UNL     1     -38.529  26.644  -0.201  0.00  0.00    +0.003 C 
ATOM     10  C   UNL     1     -36.750  25.668   3.809  0.00  0.00    +0.112 C 
ATOM     11  C   UNL     1     -34.404  24.317   3.574  0.00  0.00    +0.023 C 
ATOM     12  C   UNL     1     -34.877  24.364   5.023  0.00  0.00    +0.029 C 
ATOM     13  C   UNL     1     -36.274  25.621  -0.823  0.00  0.00    +0.044 C 
ATOM     14  C   UNL     1     -36.038  25.353   5.144  0.00  0.00    +0.034 C 
ATOM     15  C   UNL     1     -37.129  26.875  -0.809  0.00  0.00    +0.004 C 
ATOM     16  C   UNL     1     -35.797  22.473   3.863  0.00  0.00    +0.178 C 
ATOM     17  C   UNL     1     -35.030  23.105   1.524  0.00  0.00    +0.323 C 
ATOM     18  C   UNL     1     -35.358  22.948   5.206  0.00  0.00    +0.013 C 
ATOM     19  C   UNL     1     -39.321  27.967  -0.219  0.00  0.00    +0.000 C 
ATOM     20  C   UNL     1     -39.283  25.688  -1.164  0.00  0.00    +0.000 C 
ATOM     21  C   UNL     1     -35.359  22.193   6.304  0.00  0.00    -0.002 C 
ENDROOT
BRANCH  10  22
ATOM     22  O   UNL     1     -38.021  26.210   4.159  0.00  0.00    -0.384 OA
ATOM     23  H   UNL     1     -37.896  27.011   4.693  0.00  0.00    +0.210 HD
ENDBRANCH  10  22
BRANCH   4  24
ATOM     24  C   UNL     1     -38.007  23.446   0.793  0.00  0.00    +0.212 C 
BRANCH  24  25
ATOM     25  O   UNL     1     -38.685  22.830   1.858  0.00  0.00    -0.448 OA
BRANCH  25  27
ATOM     26  O   UNL     1     -40.256  21.149   2.066  0.00  0.00    -0.250 OA
ATOM     27  C   UNL     1     -39.205  21.582   1.612  0.00  0.00    +0.318 C 
ATOM     28  C   UNL     1     -38.302  20.807   0.701  0.00  0.00    +0.121 C 
ENDBRANCH  25  27
ENDBRANCH  24  25
ENDBRANCH   4  24
BRANCH   7  29
ATOM     29  C   UNL     1     -39.780  25.625   1.824  0.00  0.00    +0.137 C 
BRANCH  29  30
ATOM     30  O   UNL     1     -40.182  26.717   2.621  0.00  0.00    -0.382 OA
ATOM     31  H   UNL     1     -39.809  26.622   3.511  0.00  0.00    +0.210 HD
ENDBRANCH  29  30
ENDBRANCH   7  29
TORSDOF 6
ENDMDL
MODEL 2
REMARK VINA RESULT:      -5.9      2.192      5.100
REMARK  Name = 51346130
REMARK  6 active torsions:
REMARK  status: ('A' for Active; 'I' for Inactive)
REMARK    1  A    between atoms: C_4  and  C_24
REMARK    2  A    between atoms: C_7  and  C_29
REMARK    3  A    between atoms: C_10  and  O_22
REMARK    4  A    between atoms: C_24  and  O_25
REMARK    5  A    between atoms: O_25  and  C_27
REMARK    6  A    between atoms: C_29  and  O_30
REMARK                            x       y       z     vdW  Elec       q    Type
REMARK                         _______ _______ _______ _____ _____    ______ ____
ROOT
ATOM      1  O   UNL     1     -37.534  24.713   1.261  0.00  0.00    -0.452 OA
ATOM      2  O   UNL     1     -33.959  26.134   2.946  0.00  0.00    -0.291 OA
ATOM      3  O   UNL     1     -36.671  26.710   1.828  0.00  0.00    -0.250 OA
ATOM      4  C   UNL     1     -36.053  22.756   1.531  0.00  0.00    +0.083 C 
ATOM      5  C   UNL     1     -35.525  23.323   2.931  0.00  0.00    +0.051 C 
ATOM      6  C   UNL     1     -36.010  24.808   3.158  0.00  0.00    +0.147 C 
ATOM      7  C   UNL     1     -36.028  21.172   1.411  0.00  0.00    +0.036 C 
ATOM      8  C   UNL     1     -37.506  23.279   1.417  0.00  0.00    +0.172 C 
ATOM      9  C   UNL     1     -36.955  20.525   0.303  0.00  0.00    +0.003 C 
ATOM     10  C   UNL     1     -35.853  22.466   4.203  0.00  0.00    +0.112 C 
ATOM     11  C   UNL     1     -36.895  24.965   4.421  0.00  0.00    +0.023 C 
ATOM     12  C   UNL     1     -35.922  24.667   5.556  0.00  0.00    +0.029 C 
ATOM     13  C   UNL     1     -38.287  22.703   0.241  0.00  0.00    +0.044 C 
ATOM     14  C   UNL     1     -35.576  23.176   5.547  0.00  0.00    +0.034 C 
ATOM     15  C   UNL     1     -38.349  21.189   0.323  0.00  0.00    +0.004 C 
ATOM     16  C   UNL     1     -34.786  25.574   3.646  0.00  0.00    +0.178 C 
ATOM     17  C   UNL     1     -36.740  25.499   2.022  0.00  0.00    +0.323 C 
ATOM     18  C   UNL     1     -34.737  25.494   5.133  0.00  0.00    +0.013 C 
ATOM     19  C   UNL     1     -37.114  18.994   0.398  0.00  0.00    +0.000 C 
ATOM     20  C   UNL     1     -36.348  20.800  -1.100  0.00  0.00    +0.000 C 
ATOM     21  C   UNL     1     -33.827  26.113   5.886  0.00  0.00    -0.002 C 
ENDROOT
BRANCH  10  22
ATOM     22  O   UNL     1     -35.085  21.265   4.227  0.00  0.00    -0.384 OA
ATOM     23  H   UNL     1     -35.255  20.754   3.420  0.00  0.00    +0.210 HD
ENDBRANCH  10  22
BRANCH   4  24
ATOM     24  C   UNL     1     -35.151  23.392   0.427  0.00  0.00    +0.212 C 
BRANCH  24  25
ATOM     25  O   UNL     1     -33.867  23.546   0.977  0.00  0.00    -0.448 OA
BRANCH  25  27
ATOM     26  O   UNL     1     -31.943  24.605   0.260  0.00  0.00    -0.250 OA
ATOM     27  C   UNL     1     -32.848  23.798   0.090  0.00  0.00    +0.318 C 
ATOM     28  C   UNL     1     -32.991  22.942  -1.131  0.00  0.00    +0.121 C 
ENDBRANCH  25  27
ENDBRANCH  24  25
ENDBRANCH   4  24
BRANCH   7  29
ATOM     29  C   UNL     1     -34.595  20.604   1.362  0.00  0.00    +0.137 C 
BRANCH  29  30
ATOM     30  O   UNL     1     -34.530  19.515   2.256  0.00  0.00    -0.382 OA
ATOM     31  H   UNL     1     -33.767  18.959   2.033  0.00  0.00    +0.210 HD
ENDBRANCH  29  30
ENDBRANCH   7  29
TORSDOF 6
ENDMDL
MODEL 3
REMARK VINA RESULT:      -5.6      2.039      5.513
REMARK  Name = 51346130
REMARK  6 active torsions:
REMARK  status: ('A' for Active; 'I' for Inactive)
REMARK    1  A    between atoms: C_4  and  C_24
REMARK    2  A    between atoms: C_7  and  C_29
REMARK    3  A    between atoms: C_10  and  O_22
REMARK    4  A    between atoms: C_24  and  O_25
REMARK    5  A    between atoms: O_25  and  C_27
REMARK    6  A    between atoms: C_29  and  O_30
REMARK                            x       y       z     vdW  Elec       q    Type
REMARK                         _______ _______ _______ _____ _____    ______ ____
ROOT
ATOM      1  O   UNL     1     -36.047  24.827  -0.331  0.00  0.00    -0.452 OA
ATOM      2  O   UNL     1     -37.677  26.139   3.312  0.00  0.00    -0.291 OA
ATOM      3  O   UNL     1     -36.663  26.790   0.576  0.00  0.00    -0.250 OA
ATOM      4  C   UNL     1     -36.199  22.843   1.131  0.00  0.00    +0.083 C 
ATOM      5  C   UNL     1     -37.603  23.350   1.707  0.00  0.00    +0.051 C 
ATOM      6  C   UNL     1     -37.900  24.831   1.249  0.00  0.00    +0.147 C 
ATOM      7  C   UNL     1     -36.018  21.266   1.131  0.00  0.00    +0.036 C 
ATOM      8  C   UNL     1     -36.148  23.389  -0.318  0.00  0.00    +0.172 C 
ATOM      9  C   UNL     1     -34.915  20.672   0.163  0.00  0.00    +0.003 C 
ATOM     10  C   UNL     1     -38.851  22.449   1.406  0.00  0.00    +0.112 C 
ATOM     11  C   UNL     1     -39.195  24.951   0.405  0.00  0.00    +0.023 C 
ATOM     12  C   UNL     1     -40.288  24.598   1.407  0.00  0.00    +0.029 C 
ATOM     13  C   UNL     1     -34.975  22.868  -1.141  0.00  0.00    +0.044 C 
ATOM     14  C   UNL     1     -40.212  23.105   1.732  0.00  0.00    +0.034 C 
ATOM     15  C   UNL     1     -35.002  21.352  -1.221  0.00  0.00    +0.004 C 
ATOM     16  C   UNL     1     -38.379  25.563   2.498  0.00  0.00    +0.178 C 
ATOM     17  C   UNL     1     -36.813  25.574   0.496  0.00  0.00    +0.323 C 
ATOM     18  C   UNL     1     -39.860  25.426   2.590  0.00  0.00    +0.013 C 
ATOM     19  C   UNL     1     -34.958  19.141  -0.014  0.00  0.00    +0.000 C 
ATOM     20  C   UNL     1     -33.506  20.993   0.732  0.00  0.00    +0.000 C 
ATOM     21  C   UNL     1     -40.608  26.004   3.530  0.00  0.00    -0.002 C 
ENDROOT
BRANCH  10  22
ATOM     22  O   UNL     1     -38.807  21.239   2.158  0.00  0.00    -0.384 OA
ATOM     23  H   UNL     1     -39.614  20.726   1.995  0.00  0.00    +0.210 HD
ENDBRANCH  10  22
BRANCH   4  24
ATOM     24  C   UNL     1     -35.093  23.510   2.009  0.00  0.00    +0.212 C 
BRANCH  24  25
ATOM     25  O   UNL     1     -35.613  23.636   3.308  0.00  0.00    -0.448 OA
BRANCH  25  27
ATOM     26  O   UNL     1     -33.744  24.650   4.211  0.00  0.00    -0.250 OA
ATOM     27  C   UNL     1     -34.707  23.900   4.307  0.00  0.00    +0.318 C 
ATOM     28  C   UNL     1     -35.058  23.140   5.550  0.00  0.00    +0.121 C 
ENDBRANCH  25  27
ENDBRANCH  24  25
ENDBRANCH   4  24
BRANCH   7  29
ATOM     29  C   UNL     1     -35.905  20.682   2.555  0.00  0.00    +0.137 C 
BRANCH  29  30
ATOM     30  O   UNL     1     -36.759  19.562   2.633  0.00  0.00    -0.382 OA
ATOM     31  H   UNL     1     -37.653  19.817   2.357  0.00  0.00    +0.210 HD
ENDBRANCH  29  30
ENDBRANCH   7  29
TORSDOF 6
ENDMDL
MODEL 4
REMARK VINA RESULT:      -5.6      2.210      5.348
REMARK  Name = 51346130
REMARK  6 active torsions:
REMARK  status: ('A' for Active; 'I' for Inactive)
REMARK    1  A    between atoms: C_4  and  C_24
REMARK    2  A    between atoms: C_7  and  C_29
REMARK    3  A    between atoms: C_10  and  O_22
REMARK    4  A    between atoms: C_24  and  O_25
REMARK    5  A    between atoms: O_25  and  C_27
REMARK    6  A    between atoms: C_29  and  O_30
REMARK                            x       y       z     vdW  Elec       q    Type
REMARK                         _______ _______ _______ _____ _____    ______ ____
ROOT
ATOM      1  O   UNL     1     -35.937  20.834   2.994  0.00  0.00    -0.452 OA
ATOM      2  O   UNL     1     -36.792  21.538  -1.058  0.00  0.00    -0.291 OA
ATOM      3  O   UNL     1     -36.138  19.602   1.124  0.00  0.00    -0.250 OA
ATOM      4  C   UNL     1     -36.123  23.281   2.726  0.00  0.00    +0.083 C 
ATOM      5  C   UNL     1     -37.340  23.097   1.704  0.00  0.00    +0.051 C 
ATOM      6  C   UNL     1     -37.505  21.583   1.288  0.00  0.00    +0.147 C 
ATOM      7  C   UNL     1     -36.156  24.637   3.552  0.00  0.00    +0.036 C 
ATOM      8  C   UNL     1     -36.226  22.067   3.683  0.00  0.00    +0.172 C 
ATOM      9  C   UNL     1     -35.306  24.682   4.887  0.00  0.00    +0.003 C 
ATOM     10  C   UNL     1     -38.729  23.669   2.157  0.00  0.00    +0.112 C 
ATOM     11  C   UNL     1     -38.888  21.000   1.679  0.00  0.00    +0.023 C 
ATOM     12  C   UNL     1     -39.849  21.782   0.791  0.00  0.00    +0.029 C 
ATOM     13  C   UNL     1     -35.275  22.128   4.873  0.00  0.00    +0.044 C 
ATOM     14  C   UNL     1     -39.923  23.231   1.280  0.00  0.00    +0.034 C 
ATOM     15  C   UNL     1     -35.515  23.383   5.694  0.00  0.00    +0.004 C 
ATOM     16  C   UNL     1     -37.683  21.586  -0.226  0.00  0.00    +0.178 C 
ATOM     17  C   UNL     1     -36.460  20.596   1.770  0.00  0.00    +0.323 C 
ATOM     18  C   UNL     1     -39.137  21.700  -0.534  0.00  0.00    +0.013 C 
ATOM     19  C   UNL     1     -35.579  25.900   5.793  0.00  0.00    +0.000 C 
ATOM     20  C   UNL     1     -33.795  24.750   4.531  0.00  0.00    +0.000 C 
ATOM     21  C   UNL     1     -39.646  21.666  -1.765  0.00  0.00    -0.002 C 
ENDROOT
BRANCH  10  22
ATOM     22  O   UNL     1     -38.730  25.095   2.138  0.00  0.00    -0.384 OA
ATOM     23  H   UNL     1     -37.816  25.420   2.170  0.00  0.00    +0.210 HD
ENDBRANCH  10  22
BRANCH   4  24
ATOM     24  C   UNL     1     -34.816  23.203   1.876  0.00  0.00    +0.212 C 
BRANCH  24  25
ATOM     25  O   UNL     1     -35.090  23.801   0.635  0.00  0.00    -0.448 OA
BRANCH  25  27
ATOM     26  O   UNL     1     -33.991  24.287  -1.338  0.00  0.00    -0.250 OA
ATOM     27  C   UNL     1     -34.187  23.561  -0.372  0.00  0.00    +0.318 C 
ATOM     28  C   UNL     1     -33.460  22.272  -0.131  0.00  0.00    +0.121 C 
ENDBRANCH  25  27
ENDBRANCH  24  25
ENDBRANCH   4  24
BRANCH   7  29
ATOM     29  C   UNL     1     -35.902  25.876   2.668  0.00  0.00    +0.137 C 
BRANCH  29  30
ATOM     30  O   UNL     1     -36.866  26.850   3.001  0.00  0.00    -0.382 OA
ATOM     31  H   UNL     1     -37.729  26.585   2.647  0.00  0.00    +0.210 HD
ENDBRANCH  29  30
ENDBRANCH   7  29
TORSDOF 6
ENDMDL
MODEL 5
REMARK VINA RESULT:      -5.6      2.249      4.920
REMARK  Name = 51346130
REMARK  6 active torsions:
REMARK  status: ('A' for Active; 'I' for Inactive)
REMARK    1  A    between atoms: C_4  and  C_24
REMARK    2  A    between atoms: C_7  and  C_29
REMARK    3  A    between atoms: C_10  and  O_22
REMARK    4  A    between atoms: C_24  and  O_25
REMARK    5  A    between atoms: O_25  and  C_27
REMARK    6  A    between atoms: C_29  and  O_30
REMARK                            x       y       z     vdW  Elec       q    Type
REMARK                         _______ _______ _______ _____ _____    ______ ____
ROOT
ATOM      1  O   UNL     1     -35.157  24.159  -0.068  0.00  0.00    -0.452 OA
ATOM      2  O   UNL     1     -38.202  21.308  -0.570  0.00  0.00    -0.291 OA
ATOM      3  O   UNL     1     -36.309  23.278  -1.786  0.00  0.00    -0.250 OA
ATOM      4  C   UNL     1     -35.839  23.445   2.196  0.00  0.00    +0.083 C 
ATOM      5  C   UNL     1     -36.001  21.935   1.693  0.00  0.00    +0.051 C 
ATOM      6  C   UNL     1     -35.912  21.851   0.119  0.00  0.00    +0.147 C 
ATOM      7  C   UNL     1     -35.451  23.590   3.729  0.00  0.00    +0.036 C 
ATOM      8  C   UNL     1     -34.722  24.040   1.302  0.00  0.00    +0.172 C 
ATOM      9  C   UNL     1     -34.809  24.966   4.177  0.00  0.00    +0.003 C 
ATOM     10  C   UNL     1     -35.033  20.876   2.329  0.00  0.00    +0.112 C 
ATOM     11  C   UNL     1     -34.736  20.966  -0.370  0.00  0.00    +0.023 C 
ATOM     12  C   UNL     1     -35.141  19.573   0.099  0.00  0.00    +0.029 C 
ATOM     13  C   UNL     1     -34.254  25.427   1.727  0.00  0.00    +0.044 C 
ATOM     14  C   UNL     1     -35.031  19.501   1.623  0.00  0.00    +0.034 C 
ATOM     15  C   UNL     1     -33.740  25.411   3.155  0.00  0.00    +0.004 C 
ATOM     16  C   UNL     1     -37.064  20.951  -0.315  0.00  0.00    +0.178 C 
ATOM     17  C   UNL     1     -35.837  23.150  -0.659  0.00  0.00    +0.323 C 
ATOM     18  C   UNL     1     -36.583  19.541  -0.336  0.00  0.00    +0.013 C 
ATOM     19  C   UNL     1     -34.199  24.970   5.593  0.00  0.00    +0.000 C 
ATOM     20  C   UNL     1     -35.905  26.066   4.186  0.00  0.00    +0.000 C 
ATOM     21  C   UNL     1     -37.322  18.505  -0.734  0.00  0.00    -0.002 C 
ENDROOT
BRANCH  10  22
ATOM     22  O   UNL     1     -35.373  20.619   3.689  0.00  0.00    -0.384 OA
ATOM     23  H   UNL     1     -36.313  20.386   3.750  0.00  0.00    +0.210 HD
ENDBRANCH  10  22
BRANCH   4  24
ATOM     24  C   UNL     1     -37.202  24.153   1.918  0.00  0.00    +0.212 C 
BRANCH  24  25
ATOM     25  O   UNL     1     -38.213  23.196   2.101  0.00  0.00    -0.448 OA
BRANCH  25  27
ATOM     26  O   UNL     1     -40.499  23.173   1.768  0.00  0.00    -0.250 OA
ATOM     27  C   UNL     1     -39.492  23.677   2.247  0.00  0.00    +0.318 C 
ATOM     28  C   UNL     1     -39.493  24.919   3.086  0.00  0.00    +0.121 C 
ENDBRANCH  25  27
ENDBRANCH  24  25
ENDBRANCH   4  24
BRANCH   7  29
ATOM     29  C   UNL     1     -36.592  23.156   4.672  0.00  0.00    +0.137 C 
BRANCH  29  30
ATOM     30  O   UNL     1     -36.038  22.327   5.670  0.00  0.00    -0.382 OA
ATOM     31  H   UNL     1     -36.480  21.464   5.654  0.00  0.00    +0.210 HD
ENDBRANCH  29  30
ENDBRANCH   7  29
TORSDOF 6
ENDMDL
MODEL 6
REMARK VINA RESULT:      -5.6      4.980      7.690
REMARK  Name = 51346130
REMARK  6 active torsions:
REMARK  status: ('A' for Active; 'I' for Inactive)
REMARK    1  A    between atoms: C_4  and  C_24
REMARK    2  A    between atoms: C_7  and  C_29
REMARK    3  A    between atoms: C_10  and  O_22
REMARK    4  A    between atoms: C_24  and  O_25
REMARK    5  A    between atoms: O_25  and  C_27
REMARK    6  A    between atoms: C_29  and  O_30
REMARK                            x       y       z     vdW  Elec       q    Type
REMARK                         _______ _______ _______ _____ _____    ______ ____
ROOT
ATOM      1  O   UNL     1     -31.804  27.279   1.699  0.00  0.00    -0.452 OA
ATOM      2  O   UNL     1     -35.912  27.905   2.315  0.00  0.00    -0.291 OA
ATOM      3  O   UNL     1     -33.694  27.042   0.505  0.00  0.00    -0.250 OA
ATOM      4  C   UNL     1     -32.038  28.277   3.945  0.00  0.00    +0.083 C 
ATOM      5  C   UNL     1     -33.359  27.415   4.213  0.00  0.00    +0.051 C 
ATOM      6  C   UNL     1     -33.850  26.708   2.889  0.00  0.00    +0.147 C 
ATOM      7  C   UNL     1     -31.212  28.638   5.252  0.00  0.00    +0.036 C 
ATOM      8  C   UNL     1     -31.183  27.403   2.995  0.00  0.00    +0.172 C 
ATOM      9  C   UNL     1     -29.695  29.044   5.050  0.00  0.00    +0.003 C 
ATOM     10  C   UNL     1     -33.286  26.361   5.372  0.00  0.00    +0.112 C 
ATOM     11  C   UNL     1     -33.870  25.162   3.006  0.00  0.00    +0.023 C 
ATOM     12  C   UNL     1     -34.963  24.914   4.040  0.00  0.00    +0.029 C 
ATOM     13  C   UNL     1     -29.777  27.938   2.750  0.00  0.00    +0.044 C 
ATOM     14  C   UNL     1     -34.469  25.368   5.415  0.00  0.00    +0.034 C 
ATOM     15  C   UNL     1     -29.016  28.078   4.055  0.00  0.00    +0.004 C 
ATOM     16  C   UNL     1     -35.355  26.947   2.824  0.00  0.00    +0.178 C 
ATOM     17  C   UNL     1     -33.131  27.041   1.596  0.00  0.00    +0.323 C 
ATOM     18  C   UNL     1     -36.044  25.830   3.530  0.00  0.00    +0.013 C 
ATOM     19  C   UNL     1     -28.861  29.117   6.346  0.00  0.00    +0.000 C 
ATOM     20  C   UNL     1     -29.622  30.461   4.420  0.00  0.00    +0.000 C 
ATOM     21  C   UNL     1     -37.368  25.696   3.603  0.00  0.00    -0.002 C 
ENDROOT
BRANCH  10  22
ATOM     22  O   UNL     1     -33.262  26.999   6.647  0.00  0.00    -0.384 OA
ATOM     23  H   UNL     1     -33.066  26.343   7.335  0.00  0.00    +0.210 HD
ENDBRANCH  10  22
BRANCH   4  24
ATOM     24  C   UNL     1     -32.500  29.583   3.225  0.00  0.00    +0.212 C 
BRANCH  24  25
ATOM     25  O   UNL     1     -33.757  29.925   3.750  0.00  0.00    -0.448 OA
BRANCH  25  27
ATOM     26  O   UNL     1     -35.602  31.127   3.048  0.00  0.00    -0.250 OA
ATOM     27  C   UNL     1     -34.390  30.999   3.171  0.00  0.00    +0.318 C 
ATOM     28  C   UNL     1     -33.388  32.010   2.703  0.00  0.00    +0.121 C 
ENDBRANCH  25  27
ENDBRANCH  24  25
ENDBRANCH   4  24
BRANCH   7  29
ATOM     29  C   UNL     1     -31.955  29.635   6.166  0.00  0.00    +0.137 C 
BRANCH  29  30
ATOM     30  O   UNL     1     -31.852  29.166   7.493  0.00  0.00    -0.382 OA
ATOM     31  H   UNL     1     -31.173  28.475   7.539  0.00  0.00    +0.210 HD
ENDBRANCH  29  30
ENDBRANCH   7  29
TORSDOF 6
ENDMDL
MODEL 7
REMARK VINA RESULT:      -5.5      1.837      5.310
REMARK  Name = 51346130
REMARK  6 active torsions:
REMARK  status: ('A' for Active; 'I' for Inactive)
REMARK    1  A    between atoms: C_4  and  C_24
REMARK    2  A    between atoms: C_7  and  C_29
REMARK    3  A    between atoms: C_10  and  O_22
REMARK    4  A    between atoms: C_24  and  O_25
REMARK    5  A    between atoms: O_25  and  C_27
REMARK    6  A    between atoms: C_29  and  O_30
REMARK                            x       y       z     vdW  Elec       q    Type
REMARK                         _______ _______ _______ _____ _____    ______ ____
ROOT
ATOM      1  O   UNL     1     -36.715  21.707   2.890  0.00  0.00    -0.452 OA
ATOM      2  O   UNL     1     -37.965  23.040  -0.892  0.00  0.00    -0.291 OA
ATOM      3  O   UNL     1     -37.545  20.779   1.018  0.00  0.00    -0.250 OA
ATOM      4  C   UNL     1     -36.247  24.130   2.804  0.00  0.00    +0.083 C 
ATOM      5  C   UNL     1     -37.612  24.386   2.010  0.00  0.00    +0.051 C 
ATOM      6  C   UNL     1     -38.258  23.023   1.542  0.00  0.00    +0.147 C 
ATOM      7  C   UNL     1     -35.769  25.350   3.701  0.00  0.00    +0.036 C 
ATOM      8  C   UNL     1     -36.534  22.892   3.691  0.00  0.00    +0.172 C 
ATOM      9  C   UNL     1     -34.741  25.025   4.860  0.00  0.00    +0.003 C 
ATOM     10  C   UNL     1     -38.696  25.255   2.739  0.00  0.00    +0.112 C 
ATOM     11  C   UNL     1     -39.669  22.791   2.141  0.00  0.00    +0.023 C 
ATOM     12  C   UNL     1     -40.500  23.890   1.489  0.00  0.00    +0.029 C 
ATOM     13  C   UNL     1     -35.429  22.572   4.691  0.00  0.00    +0.044 C 
ATOM     14  C   UNL     1     -40.087  25.245   2.067  0.00  0.00    +0.034 C 
ATOM     15  C   UNL     1     -35.176  23.750   5.614  0.00  0.00    +0.004 C 
ATOM     16  C   UNL     1     -38.664  23.234   0.088  0.00  0.00    +0.178 C 
ATOM     17  C   UNL     1     -37.469  21.748   1.768  0.00  0.00    +0.323 C 
ATOM     18  C   UNL     1     -40.057  23.763   0.055  0.00  0.00    +0.013 C 
ATOM     19  C   UNL     1     -34.515  26.168   5.871  0.00  0.00    +0.000 C 
ATOM     20  C   UNL     1     -33.347  24.727   4.243  0.00  0.00    +0.000 C 
ATOM     21  C   UNL     1     -40.743  23.996  -1.064  0.00  0.00    -0.002 C 
ENDROOT
BRANCH  10  22
ATOM     22  O   UNL     1     -38.300  26.623   2.804  0.00  0.00    -0.384 OA
ATOM     23  H   UNL     1     -38.598  27.007   3.644  0.00  0.00    +0.210 HD
ENDBRANCH  10  22
BRANCH   4  24
ATOM     24  C   UNL     1     -35.165  23.797   1.729  0.00  0.00    +0.212 C 
BRANCH  24  25
ATOM     25  O   UNL     1     -35.460  24.565   0.590  0.00  0.00    -0.448 OA
BRANCH  25  27
ATOM     26  O   UNL     1     -34.409  25.076  -1.403  0.00  0.00    -0.250 OA
ATOM     27  C   UNL     1     -34.751  24.268  -0.548  0.00  0.00    +0.318 C 
ATOM     28  C   UNL     1     -34.443  22.802  -0.609  0.00  0.00    +0.121 C 
ENDBRANCH  25  27
ENDBRANCH  24  25
ENDBRANCH   4  24
BRANCH   7  29
ATOM     29  C   UNL     1     -35.320  26.563   2.860  0.00  0.00    +0.137 C 
BRANCH  29  30
ATOM     30  O   UNL     1     -35.715  27.733   3.542  0.00  0.00    -0.382 OA
ATOM     31  H   UNL     1     -34.928  28.216   3.838  0.00  0.00    +0.210 HD
ENDBRANCH  29  30
ENDBRANCH   7  29
TORSDOF 6
ENDMDL
MODEL 8
REMARK VINA RESULT:      -5.4      2.391      4.809
REMARK  Name = 51346130
REMARK  6 active torsions:
REMARK  status: ('A' for Active; 'I' for Inactive)
REMARK    1  A    between atoms: C_4  and  C_24
REMARK    2  A    between atoms: C_7  and  C_29
REMARK    3  A    between atoms: C_10  and  O_22
REMARK    4  A    between atoms: C_24  and  O_25
REMARK    5  A    between atoms: O_25  and  C_27
REMARK    6  A    between atoms: C_29  and  O_30
REMARK                            x       y       z     vdW  Elec       q    Type
REMARK                         _______ _______ _______ _____ _____    ______ ____
ROOT
ATOM      1  O   UNL     1     -37.562  22.915   0.940  0.00  0.00    -0.452 OA
ATOM      2  O   UNL     1     -35.121  20.283   3.121  0.00  0.00    -0.291 OA
ATOM      3  O   UNL     1     -37.735  20.837   1.782  0.00  0.00    -0.250 OA
ATOM      4  C   UNL     1     -35.487  24.145   1.462  0.00  0.00    +0.083 C 
ATOM      5  C   UNL     1     -34.617  22.825   1.213  0.00  0.00    +0.051 C 
ATOM      6  C   UNL     1     -35.545  21.556   1.069  0.00  0.00    +0.147 C 
ATOM      7  C   UNL     1     -34.721  25.504   1.161  0.00  0.00    +0.036 C 
ATOM      8  C   UNL     1     -36.707  23.997   0.520  0.00  0.00    +0.172 C 
ATOM      9  C   UNL     1     -35.614  26.787   0.911  0.00  0.00    +0.003 C 
ATOM     10  C   UNL     1     -33.602  22.869   0.017  0.00  0.00    +0.112 C 
ATOM     11  C   UNL     1     -35.400  20.858  -0.308  0.00  0.00    +0.023 C 
ATOM     12  C   UNL     1     -33.971  20.327  -0.270  0.00  0.00    +0.029 C 
ATOM     13  C   UNL     1     -37.589  25.238   0.440  0.00  0.00    +0.044 C 
ATOM     14  C   UNL     1     -32.993  21.500  -0.360  0.00  0.00    +0.034 C 
ATOM     15  C   UNL     1     -36.790  26.441  -0.027  0.00  0.00    +0.004 C 
ATOM     16  C   UNL     1     -34.908  20.476   1.936  0.00  0.00    +0.178 C 
ATOM     17  C   UNL     1     -37.031  21.730   1.318  0.00  0.00    +0.323 C 
ATOM     18  C   UNL     1     -33.940  19.708   1.103  0.00  0.00    +0.013 C 
ATOM     19  C   UNL     1     -34.857  28.010   0.356  0.00  0.00    +0.000 C 
ATOM     20  C   UNL     1     -36.236  27.251   2.257  0.00  0.00    +0.000 C 
ATOM     21  C   UNL     1     -33.256  18.649   1.536  0.00  0.00    -0.002 C 
ENDROOT
BRANCH  10  22
ATOM     22  O   UNL     1     -32.499  23.724   0.310  0.00  0.00    -0.384 OA
ATOM     23  H   UNL     1     -31.671  23.279   0.066  0.00  0.00    +0.210 HD
ENDBRANCH  10  22
BRANCH   4  24
ATOM     24  C   UNL     1     -35.937  24.103   2.956  0.00  0.00    +0.212 C 
BRANCH  24  25
ATOM     25  O   UNL     1     -34.907  23.485   3.684  0.00  0.00    -0.448 OA
BRANCH  25  27
ATOM     26  O   UNL     1     -34.677  24.850   5.534  0.00  0.00    -0.250 OA
ATOM     27  C   UNL     1     -34.866  23.750   5.032  0.00  0.00    +0.318 C 
ATOM     28  C   UNL     1     -35.087  22.495   5.821  0.00  0.00    +0.121 C 
ENDBRANCH  25  27
ENDBRANCH  24  25
ENDBRANCH   4  24
BRANCH   7  29
ATOM     29  C   UNL     1     -33.588  25.782   2.171  0.00  0.00    +0.137 C 
BRANCH  29  30
ATOM     30  O   UNL     1     -32.446  26.175   1.443  0.00  0.00    -0.382 OA
ATOM     31  H   UNL     1     -31.950  26.836   1.951  0.00  0.00    +0.210 HD
ENDBRANCH  29  30
ENDBRANCH   7  29
TORSDOF 6
ENDMDL
MODEL 9
REMARK VINA RESULT:      -5.4      7.892     11.037
REMARK  Name = 51346130
REMARK  6 active torsions:
REMARK  status: ('A' for Active; 'I' for Inactive)
REMARK    1  A    between atoms: C_4  and  C_24
REMARK    2  A    between atoms: C_7  and  C_29
REMARK    3  A    between atoms: C_10  and  O_22
REMARK    4  A    between atoms: C_24  and  O_25
REMARK    5  A    between atoms: O_25  and  C_27
REMARK    6  A    between atoms: C_29  and  O_30
REMARK                            x       y       z     vdW  Elec       q    Type
REMARK                         _______ _______ _______ _____ _____    ______ ____
ROOT
ATOM      1  O   UNL     1     -43.034  29.536   5.582  0.00  0.00    -0.452 OA
ATOM      2  O   UNL     1     -46.438  30.663   7.771  0.00  0.00    -0.291 OA
ATOM      3  O   UNL     1     -43.463  30.417   7.606  0.00  0.00    -0.250 OA
ATOM      4  C   UNL     1     -44.994  28.897   4.222  0.00  0.00    +0.083 C 
ATOM      5  C   UNL     1     -45.757  30.235   4.655  0.00  0.00    +0.051 C 
ATOM      6  C   UNL     1     -44.986  30.973   5.819  0.00  0.00    +0.147 C 
ATOM      7  C   UNL     1     -45.403  28.340   2.792  0.00  0.00    +0.036 C 
ATOM      8  C   UNL     1     -43.492  29.277   4.239  0.00  0.00    +0.172 C 
ATOM      9  C   UNL     1     -44.388  27.345   2.095  0.00  0.00    +0.003 C 
ATOM     10  C   UNL     1     -46.081  31.259   3.512  0.00  0.00    +0.112 C 
ATOM     11  C   UNL     1     -44.528  32.401   5.426  0.00  0.00    +0.023 C 
ATOM     12  C   UNL     1     -45.847  33.148   5.262  0.00  0.00    +0.029 C 
ATOM     13  C   UNL     1     -42.570  28.205   3.670  0.00  0.00    +0.044 C 
ATOM     14  C   UNL     1     -46.559  32.643   4.005  0.00  0.00    +0.034 C 
ATOM     15  C   UNL     1     -42.945  27.875   2.236  0.00  0.00    +0.004 C 
ATOM     16  C   UNL     1     -46.049  31.353   6.844  0.00  0.00    +0.178 C 
ATOM     17  C   UNL     1     -43.784  30.278   6.428  0.00  0.00    +0.323 C 
ATOM     18  C   UNL     1     -46.576  32.705   6.503  0.00  0.00    +0.013 C 
ATOM     19  C   UNL     1     -44.683  27.046   0.611  0.00  0.00    +0.000 C 
ATOM     20  C   UNL     1     -44.434  25.972   2.820  0.00  0.00    +0.000 C 
ATOM     21  C   UNL     1     -47.473  33.365   7.235  0.00  0.00    -0.002 C 
ENDROOT
BRANCH  10  22
ATOM     22  O   UNL     1     -47.111  30.768   2.658  0.00  0.00    -0.384 OA
ATOM     23  H   UNL     1     -46.895  30.978   1.735  0.00  0.00    +0.210 HD
ENDBRANCH  10  22
BRANCH   4  24
ATOM     24  C   UNL     1     -45.305  27.834   5.322  0.00  0.00    +0.212 C 
BRANCH  24  25
ATOM     25  O   UNL     1     -46.621  28.061   5.759  0.00  0.00    -0.448 OA
BRANCH  25  27
ATOM     26  O   UNL     1     -48.171  26.936   7.051  0.00  0.00    -0.250 OA
ATOM     27  C   UNL     1     -47.033  27.343   6.856  0.00  0.00    +0.318 C 
ATOM     28  C   UNL     1     -45.889  27.118   7.798  0.00  0.00    +0.121 C 
ENDBRANCH  25  27
ENDBRANCH  24  25
ENDBRANCH   4  24
BRANCH   7  29
ATOM     29  C   UNL     1     -46.849  27.800   2.759  0.00  0.00    +0.137 C 
BRANCH  29  30
ATOM     30  O   UNL     1     -47.473  28.308   1.601  0.00  0.00    -0.382 OA
ATOM     31  H   UNL     1     -46.945  29.038   1.242  0.00  0.00    +0.210 HD
ENDBRANCH  29  30
ENDBRANCH   7  29
TORSDOF 6
ENDMDL
