MODEL 1
REMARK VINA RESULT:      -6.7      0.000      0.000
REMARK  Name = 196839
REMARK  6 active torsions:
REMARK  status: ('A' for Active; 'I' for Inactive)
REMARK    1  A    between atoms: C_9  and  C_29
REMARK    2  A    between atoms: C_11  and  O_24
REMARK    3  A    between atoms: C_14  and  O_26
REMARK    4  A    between atoms: C_22  and  O_33
REMARK    5  A    between atoms: C_29  and  O_30
REMARK    6  A    between atoms: O_30  and  C_31
REMARK                            x       y       z     vdW  Elec       q    Type
REMARK                         _______ _______ _______ _____ _____    ______ ____
ROOT
ATOM      1  O   UNL     1     -35.151  27.292   3.388  0.00  0.00    -0.345 OA
ATOM      2  O   UNL     1     -33.471  25.089   0.387  0.00  0.00    -0.452 OA
ATOM      3  O   UNL     1     -31.265  25.517   0.562  0.00  0.00    -0.250 OA
ATOM      4  O   UNL     1     -40.123  21.604   2.209  0.00  0.00    -0.288 OA
ATOM      5  C   UNL     1     -35.031  25.209   2.284  0.00  0.00    +0.070 C 
ATOM      6  C   UNL     1     -36.326  24.601   2.972  0.00  0.00    +0.036 C 
ATOM      7  C   UNL     1     -33.842  25.339   3.244  0.00  0.00    +0.055 C 
ATOM      8  C   UNL     1     -37.015  23.452   2.143  0.00  0.00    +0.014 C 
ATOM      9  C   UNL     1     -34.465  26.333   4.225  0.00  0.00    +0.208 C 
ATOM     10  C   UNL     1     -34.563  24.438   1.065  0.00  0.00    +0.171 C 
ATOM     11  C   UNL     1     -36.153  24.388   4.494  0.00  0.00    +0.140 C 
ATOM     12  C   UNL     1     -37.071  23.941   0.655  0.00  0.00    +0.025 C 
ATOM     13  C   UNL     1     -35.313  26.709   2.074  0.00  0.00    +0.146 C 
ATOM     14  C   UNL     1     -35.476  25.612   5.153  0.00  0.00    +0.172 C 
ATOM     15  C   UNL     1     -35.660  24.123   0.052  0.00  0.00    +0.048 C 
ATOM     16  C   UNL     1     -32.578  25.857   2.532  0.00  0.00    +0.113 C 
ATOM     17  C   UNL     1     -38.475  23.285   2.623  0.00  0.00    +0.073 C 
ATOM     18  C   UNL     1     -36.331  22.067   2.285  0.00  0.00    +0.001 C 
ATOM     19  C   UNL     1     -38.028  23.143  -0.238  0.00  0.00    -0.008 C 
ATOM     20  C   UNL     1     -32.368  25.431   1.096  0.00  0.00    +0.317 C 
ATOM     21  C   UNL     1     -39.254  22.340   1.740  0.00  0.00    +0.206 C 
ATOM     22  C   UNL     1     -39.008  22.365   0.271  0.00  0.00    +0.160 C 
ATOM     23  C   UNL     1     -37.864  23.352  -1.727  0.00  0.00    +0.030 C 
ENDROOT
BRANCH  11  24
ATOM     24  O   UNL     1     -35.449  23.203   4.843  0.00  0.00    -0.382 OA
ATOM     25  H   UNL     1     -35.764  22.467   4.296  0.00  0.00    +0.210 HD
ENDBRANCH  11  24
BRANCH  14  26
ATOM     26  O   UNL     1     -36.470  26.538   5.591  0.00  0.00    -0.379 OA
ATOM     27  H   UNL     1     -36.589  26.454   6.551  0.00  0.00    +0.211 HD
ENDBRANCH  14  26
BRANCH   9  29
ATOM     28  O   UNL     1     -32.891  26.619   6.025  0.00  0.00    -0.247 OA
ATOM     29  C   UNL     1     -33.473  27.089   5.058  0.00  0.00    +0.344 C 
BRANCH  29  30
ATOM     30  O   UNL     1     -33.336  28.354   4.567  0.00  0.00    -0.447 OA
BRANCH  30  31
ATOM     31  C   UNL     1     -32.019  28.906   4.648  0.00  0.00    +0.209 C 
ATOM     32  C   UNL     1     -32.031  30.069   5.618  0.00  0.00    +0.051 C 
ENDBRANCH  30  31
ENDBRANCH  29  30
ENDBRANCH   9  29
BRANCH  22  33
ATOM     33  O   UNL     1     -39.862  21.582  -0.477  0.00  0.00    -0.503 OA
ATOM     34  H   UNL     1     -40.760  21.830  -0.576  0.00  0.00    +0.292 HD
ENDBRANCH  22  33
TORSDOF 6
ENDMDL
MODEL 2
REMARK VINA RESULT:      -6.5      1.867      3.265
REMARK  Name = 196839
REMARK  6 active torsions:
REMARK  status: ('A' for Active; 'I' for Inactive)
REMARK    1  A    between atoms: C_9  and  C_29
REMARK    2  A    between atoms: C_11  and  O_24
REMARK    3  A    between atoms: C_14  and  O_26
REMARK    4  A    between atoms: C_22  and  O_33
REMARK    5  A    between atoms: C_29  and  O_30
REMARK    6  A    between atoms: O_30  and  C_31
REMARK                            x       y       z     vdW  Elec       q    Type
REMARK                         _______ _______ _______ _____ _____    ______ ____
ROOT
ATOM      1  O   UNL     1     -34.181  25.134   2.682  0.00  0.00    -0.345 OA
ATOM      2  O   UNL     1     -35.783  21.653   4.096  0.00  0.00    -0.452 OA
ATOM      3  O   UNL     1     -34.802  21.375   6.107  0.00  0.00    -0.250 OA
ATOM      4  O   UNL     1     -40.928  24.578  -0.872  0.00  0.00    -0.288 OA
ATOM      5  C   UNL     1     -36.128  23.850   3.047  0.00  0.00    +0.070 C 
ATOM      6  C   UNL     1     -37.071  24.750   2.140  0.00  0.00    +0.036 C 
ATOM      7  C   UNL     1     -35.722  24.532   4.359  0.00  0.00    +0.055 C 
ATOM      8  C   UNL     1     -38.335  23.994   1.580  0.00  0.00    +0.014 C 
ATOM      9  C   UNL     1     -34.953  25.710   3.760  0.00  0.00    +0.208 C 
ATOM     10  C   UNL     1     -36.714  22.494   3.390  0.00  0.00    +0.171 C 
ATOM     11  C   UNL     1     -37.277  26.171   2.715  0.00  0.00    +0.140 C 
ATOM     12  C   UNL     1     -37.834  22.605   1.057  0.00  0.00    +0.025 C 
ATOM     13  C   UNL     1     -34.747  23.842   2.363  0.00  0.00    +0.146 C 
ATOM     14  C   UNL     1     -35.939  26.771   3.205  0.00  0.00    +0.172 C 
ATOM     15  C   UNL     1     -37.275  21.724   2.197  0.00  0.00    +0.048 C 
ATOM     16  C   UNL     1     -34.872  23.609   5.252  0.00  0.00    +0.113 C 
ATOM     17  C   UNL     1     -38.890  24.767   0.362  0.00  0.00    +0.073 C 
ATOM     18  C   UNL     1     -39.498  23.859   2.598  0.00  0.00    +0.001 C 
ATOM     19  C   UNL     1     -38.827  21.876   0.143  0.00  0.00    -0.008 C 
ATOM     20  C   UNL     1     -35.188  22.130   5.217  0.00  0.00    +0.317 C 
ATOM     21  C   UNL     1     -39.978  23.997  -0.347  0.00  0.00    +0.206 C 
ATOM     22  C   UNL     1     -39.847  22.518  -0.467  0.00  0.00    +0.160 C 
ATOM     23  C   UNL     1     -38.539  20.413  -0.104  0.00  0.00    +0.030 C 
ENDROOT
BRANCH  11  24
ATOM     24  O   UNL     1     -38.248  26.250   3.750  0.00  0.00    -0.382 OA
ATOM     25  H   UNL     1     -37.874  26.726   4.507  0.00  0.00    +0.210 HD
ENDBRANCH  11  24
BRANCH  14  26
ATOM     26  O   UNL     1     -35.316  27.498   2.146  0.00  0.00    -0.379 OA
ATOM     27  H   UNL     1     -35.972  28.068   1.715  0.00  0.00    +0.211 HD
ENDBRANCH  14  26
BRANCH   9  29
ATOM     28  O   UNL     1     -34.242  26.625   5.872  0.00  0.00    -0.247 OA
ATOM     29  C   UNL     1     -33.990  26.368   4.702  0.00  0.00    +0.344 C 
BRANCH  29  30
ATOM     30  O   UNL     1     -32.819  26.625   4.053  0.00  0.00    -0.447 OA
BRANCH  30  31
ATOM     31  C   UNL     1     -32.342  27.970   4.152  0.00  0.00    +0.209 C 
ATOM     32  C   UNL     1     -31.969  28.464   2.770  0.00  0.00    +0.051 C 
ENDBRANCH  30  31
ENDBRANCH  29  30
ENDBRANCH   9  29
BRANCH  22  33
ATOM     33  O   UNL     1     -40.803  21.910  -1.254  0.00  0.00    -0.503 OA
ATOM     34  H   UNL     1     -41.712  22.013  -1.050  0.00  0.00    +0.292 HD
ENDBRANCH  22  33
TORSDOF 6
ENDMDL
MODEL 3
REMARK VINA RESULT:      -6.4      1.915      7.180
REMARK  Name = 196839
REMARK  6 active torsions:
REMARK  status: ('A' for Active; 'I' for Inactive)
REMARK    1  A    between atoms: C_9  and  C_29
REMARK    2  A    between atoms: C_11  and  O_24
REMARK    3  A    between atoms: C_14  and  O_26
REMARK    4  A    between atoms: C_22  and  O_33
REMARK    5  A    between atoms: C_29  and  O_30
REMARK    6  A    between atoms: O_30  and  C_31
REMARK                            x       y       z     vdW  Elec       q    Type
REMARK                         _______ _______ _______ _____ _____    ______ ____
ROOT
ATOM      1  O   UNL     1     -37.922  24.874   3.573  0.00  0.00    -0.345 OA
ATOM      2  O   UNL     1     -34.728  23.207   5.495  0.00  0.00    -0.452 OA
ATOM      3  O   UNL     1     -35.188  21.001   5.511  0.00  0.00    -0.250 OA
ATOM      4  O   UNL     1     -32.227  29.846   2.434  0.00  0.00    -0.288 OA
ATOM      5  C   UNL     1     -35.575  24.757   3.785  0.00  0.00    +0.070 C 
ATOM      6  C   UNL     1     -35.282  26.049   2.909  0.00  0.00    +0.036 C 
ATOM      7  C   UNL     1     -36.064  23.564   2.956  0.00  0.00    +0.055 C 
ATOM      8  C   UNL     1     -33.902  26.741   3.225  0.00  0.00    +0.014 C 
ATOM      9  C   UNL     1     -37.361  24.183   2.434  0.00  0.00    +0.208 C 
ATOM     10  C   UNL     1     -34.391  24.294   4.613  0.00  0.00    +0.171 C 
ATOM     11  C   UNL     1     -35.673  25.867   1.424  0.00  0.00    +0.140 C 
ATOM     12  C   UNL     1     -33.777  26.804   4.786  0.00  0.00    +0.025 C 
ATOM     13  C   UNL     1     -36.876  25.042   4.558  0.00  0.00    +0.146 C 
ATOM     14  C   UNL     1     -37.057  25.189   1.293  0.00  0.00    +0.172 C 
ATOM     15  C   UNL     1     -33.709  25.397   5.420  0.00  0.00    +0.048 C 
ATOM     16  C   UNL     1     -36.266  22.304   3.820  0.00  0.00    +0.113 C 
ATOM     17  C   UNL     1     -33.935  28.198   2.710  0.00  0.00    +0.073 C 
ATOM     18  C   UNL     1     -32.679  26.054   2.561  0.00  0.00    +0.001 C 
ATOM     19  C   UNL     1     -32.696  27.765   5.296  0.00  0.00    -0.008 C 
ATOM     20  C   UNL     1     -35.316  22.101   4.979  0.00  0.00    +0.317 C 
ATOM     21  C   UNL     1     -32.723  28.981   3.155  0.00  0.00    +0.206 C 
ATOM     22  C   UNL     1     -32.177  28.742   4.521  0.00  0.00    +0.160 C 
ATOM     23  C   UNL     1     -32.312  27.608   6.750  0.00  0.00    +0.030 C 
ENDROOT
BRANCH  11  24
ATOM     24  O   UNL     1     -34.716  25.161   0.647  0.00  0.00    -0.382 OA
ATOM     25  H   UNL     1     -34.612  24.264   1.000  0.00  0.00    +0.210 HD
ENDBRANCH  11  24
BRANCH  14  26
ATOM     26  O   UNL     1     -38.081  26.181   1.243  0.00  0.00    -0.379 OA
ATOM     27  H   UNL     1     -37.683  27.049   1.071  0.00  0.00    +0.211 HD
ENDBRANCH  14  26
BRANCH   9  29
ATOM     28  O   UNL     1     -39.455  22.995   2.514  0.00  0.00    -0.247 OA
ATOM     29  C   UNL     1     -38.380  23.188   1.963  0.00  0.00    +0.344 C 
BRANCH  29  30
ATOM     30  O   UNL     1     -37.916  22.554   0.849  0.00  0.00    -0.447 OA
BRANCH  30  31
ATOM     31  C   UNL     1     -38.238  21.163   0.754  0.00  0.00    +0.209 C 
ATOM     32  C   UNL     1     -36.953  20.361   0.714  0.00  0.00    +0.051 C 
ENDBRANCH  30  31
ENDBRANCH  29  30
ENDBRANCH   9  29
BRANCH  22  33
ATOM     33  O   UNL     1     -31.166  29.599   4.902  0.00  0.00    -0.503 OA
ATOM     34  H   UNL     1     -30.299  29.480   4.568  0.00  0.00    +0.292 HD
ENDBRANCH  22  33
TORSDOF 6
ENDMDL
MODEL 4
REMARK VINA RESULT:      -6.3      2.051      3.937
REMARK  Name = 196839
REMARK  6 active torsions:
REMARK  status: ('A' for Active; 'I' for Inactive)
REMARK    1  A    between atoms: C_9  and  C_29
REMARK    2  A    between atoms: C_11  and  O_24
REMARK    3  A    between atoms: C_14  and  O_26
REMARK    4  A    between atoms: C_22  and  O_33
REMARK    5  A    between atoms: C_29  and  O_30
REMARK    6  A    between atoms: O_30  and  C_31
REMARK                            x       y       z     vdW  Elec       q    Type
REMARK                         _______ _______ _______ _____ _____    ______ ____
ROOT
ATOM      1  O   UNL     1     -32.621  27.143   1.421  0.00  0.00    -0.345 OA
ATOM      2  O   UNL     1     -33.334  25.702   5.175  0.00  0.00    -0.452 OA
ATOM      3  O   UNL     1     -32.405  27.239   6.538  0.00  0.00    -0.250 OA
ATOM      4  O   UNL     1     -38.832  22.758   0.614  0.00  0.00    -0.288 OA
ATOM      5  C   UNL     1     -34.186  26.220   2.928  0.00  0.00    +0.070 C 
ATOM      6  C   UNL     1     -35.288  25.911   1.827  0.00  0.00    +0.036 C 
ATOM      7  C   UNL     1     -34.028  27.717   3.221  0.00  0.00    +0.055 C 
ATOM      8  C   UNL     1     -36.288  24.761   2.225  0.00  0.00    +0.014 C 
ATOM      9  C   UNL     1     -33.563  28.159   1.833  0.00  0.00    +0.208 C 
ATOM     10  C   UNL     1     -34.418  25.510   4.247  0.00  0.00    +0.171 C 
ATOM     11  C   UNL     1     -35.878  27.192   1.193  0.00  0.00    +0.140 C 
ATOM     12  C   UNL     1     -35.423  23.598   2.820  0.00  0.00    +0.025 C 
ATOM     13  C   UNL     1     -32.821  25.979   2.256  0.00  0.00    +0.146 C 
ATOM     14  C   UNL     1     -34.763  28.208   0.852  0.00  0.00    +0.172 C 
ATOM     15  C   UNL     1     -34.707  24.016   4.123  0.00  0.00    +0.048 C 
ATOM     16  C   UNL     1     -33.010  27.982   4.346  0.00  0.00    +0.113 C 
ATOM     17  C   UNL     1     -36.969  24.216   0.947  0.00  0.00    +0.073 C 
ATOM     18  C   UNL     1     -37.421  25.207   3.185  0.00  0.00    +0.001 C 
ATOM     19  C   UNL     1     -36.154  22.252   2.919  0.00  0.00    -0.008 C 
ATOM     20  C   UNL     1     -32.932  26.965   5.462  0.00  0.00    +0.317 C 
ATOM     21  C   UNL     1     -37.789  22.980   1.229  0.00  0.00    +0.206 C 
ATOM     22  C   UNL     1     -37.276  21.989   2.216  0.00  0.00    +0.160 C 
ATOM     23  C   UNL     1     -35.488  21.207   3.786  0.00  0.00    +0.030 C 
ENDROOT
BRANCH  11  24
ATOM     24  O   UNL     1     -36.881  27.825   1.976  0.00  0.00    -0.382 OA
ATOM     25  H   UNL     1     -36.543  28.668   2.315  0.00  0.00    +0.210 HD
ENDBRANCH  11  24
BRANCH  14  26
ATOM     26  O   UNL     1     -34.301  27.992  -0.481  0.00  0.00    -0.379 OA
ATOM     27  H   UNL     1     -34.391  28.813  -0.992  0.00  0.00    +0.211 HD
ENDBRANCH  14  26
BRANCH   9  29
ATOM     28  O   UNL     1     -31.640  29.603   1.977  0.00  0.00    -0.247 OA
ATOM     29  C   UNL     1     -32.844  29.476   1.808  0.00  0.00    +0.344 C 
BRANCH  29  30
ATOM     30  O   UNL     1     -33.738  30.478   1.572  0.00  0.00    -0.447 OA
BRANCH  30  31
ATOM     31  C   UNL     1     -34.030  31.319   2.693  0.00  0.00    +0.209 C 
ATOM     32  C   UNL     1     -35.486  31.147   3.072  0.00  0.00    +0.051 C 
ENDBRANCH  30  31
ENDBRANCH  29  30
ENDBRANCH   9  29
BRANCH  22  33
ATOM     33  O   UNL     1     -38.008  20.824   2.305  0.00  0.00    -0.503 OA
ATOM     34  H   UNL     1     -38.729  20.678   1.725  0.00  0.00    +0.292 HD
ENDBRANCH  22  33
TORSDOF 6
ENDMDL
MODEL 5
REMARK VINA RESULT:      -6.1      3.908      5.424
REMARK  Name = 196839
REMARK  6 active torsions:
REMARK  status: ('A' for Active; 'I' for Inactive)
REMARK    1  A    between atoms: C_9  and  C_29
REMARK    2  A    between atoms: C_11  and  O_24
REMARK    3  A    between atoms: C_14  and  O_26
REMARK    4  A    between atoms: C_22  and  O_33
REMARK    5  A    between atoms: C_29  and  O_30
REMARK    6  A    between atoms: O_30  and  C_31
REMARK                            x       y       z     vdW  Elec       q    Type
REMARK                         _______ _______ _______ _____ _____    ______ ____
ROOT
ATOM      1  O   UNL     1     -37.021  23.052   0.700  0.00  0.00    -0.345 OA
ATOM      2  O   UNL     1     -33.091  23.516  -0.310  0.00  0.00    -0.452 OA
ATOM      3  O   UNL     1     -32.521  25.497   0.601  0.00  0.00    -0.250 OA
ATOM      4  O   UNL     1     -34.474  15.914  -0.307  0.00  0.00    -0.288 OA
ATOM      5  C   UNL     1     -34.875  22.077   0.580  0.00  0.00    +0.070 C 
ATOM      6  C   UNL     1     -35.373  20.590   0.832  0.00  0.00    +0.036 C 
ATOM      7  C   UNL     1     -34.956  22.962   1.829  0.00  0.00    +0.055 C 
ATOM      8  C   UNL     1     -34.405  19.483   0.268  0.00  0.00    +0.014 C 
ATOM      9  C   UNL     1     -36.471  22.913   2.029  0.00  0.00    +0.208 C 
ATOM     10  C   UNL     1     -33.463  22.168   0.035  0.00  0.00    +0.171 C 
ATOM     11  C   UNL     1     -35.952  20.386   2.252  0.00  0.00    +0.140 C 
ATOM     12  C   UNL     1     -33.991  19.940  -1.173  0.00  0.00    +0.025 C 
ATOM     13  C   UNL     1     -35.972  22.767  -0.254  0.00  0.00    +0.146 C 
ATOM     14  C   UNL     1     -36.890  21.551   2.643  0.00  0.00    +0.172 C 
ATOM     15  C   UNL     1     -33.179  21.254  -1.154  0.00  0.00    +0.048 C 
ATOM     16  C   UNL     1     -34.395  24.373   1.575  0.00  0.00    +0.113 C 
ATOM     17  C   UNL     1     -35.183  18.156   0.120  0.00  0.00    +0.073 C 
ATOM     18  C   UNL     1     -33.178  19.190   1.171  0.00  0.00    +0.001 C 
ATOM     19  C   UNL     1     -33.360  18.835  -2.030  0.00  0.00    -0.008 C 
ATOM     20  C   UNL     1     -33.229  24.494   0.619  0.00  0.00    +0.317 C 
ATOM     21  C   UNL     1     -34.373  17.105  -0.601  0.00  0.00    +0.206 C 
ATOM     22  C   UNL     1     -33.501  17.525  -1.734  0.00  0.00    +0.160 C 
ATOM     23  C   UNL     1     -32.646  19.301  -3.279  0.00  0.00    +0.030 C 
ENDROOT
BRANCH  11  24
ATOM     24  O   UNL     1     -34.972  20.197   3.263  0.00  0.00    -0.382 OA
ATOM     25  H   UNL     1     -34.526  19.347   3.126  0.00  0.00    +0.210 HD
ENDBRANCH  11  24
BRANCH  14  26
ATOM     26  O   UNL     1     -38.231  21.245   2.260  0.00  0.00    -0.379 OA
ATOM     27  H   UNL     1     -38.565  21.939   1.670  0.00  0.00    +0.211 HD
ENDBRANCH  14  26
BRANCH   9  29
ATOM     28  O   UNL     1     -37.408  25.099   2.414  0.00  0.00    -0.247 OA
ATOM     29  C   UNL     1     -37.024  24.028   2.865  0.00  0.00    +0.344 C 
BRANCH  29  30
ATOM     30  O   UNL     1     -37.026  23.657   4.177  0.00  0.00    -0.447 OA
BRANCH  30  31
ATOM     31  C   UNL     1     -36.066  24.319   5.006  0.00  0.00    +0.209 C 
ATOM     32  C   UNL     1     -35.132  23.287   5.600  0.00  0.00    +0.051 C 
ENDBRANCH  30  31
ENDBRANCH  29  30
ENDBRANCH   9  29
BRANCH  22  33
ATOM     33  O   UNL     1     -32.913  16.490  -2.431  0.00  0.00    -0.503 OA
ATOM     34  H   UNL     1     -32.678  16.606  -3.331  0.00  0.00    +0.292 HD
ENDBRANCH  22  33
TORSDOF 6
ENDMDL
MODEL 6
REMARK VINA RESULT:      -6.1      2.646      6.921
REMARK  Name = 196839
REMARK  6 active torsions:
REMARK  status: ('A' for Active; 'I' for Inactive)
REMARK    1  A    between atoms: C_9  and  C_29
REMARK    2  A    between atoms: C_11  and  O_24
REMARK    3  A    between atoms: C_14  and  O_26
REMARK    4  A    between atoms: C_22  and  O_33
REMARK    5  A    between atoms: C_29  and  O_30
REMARK    6  A    between atoms: O_30  and  C_31
REMARK                            x       y       z     vdW  Elec       q    Type
REMARK                         _______ _______ _______ _____ _____    ______ ____
ROOT
ATOM      1  O   UNL     1     -34.269  21.009   0.576  0.00  0.00    -0.345 OA
ATOM      2  O   UNL     1     -35.556  24.503  -1.102  0.00  0.00    -0.452 OA
ATOM      3  O   UNL     1     -36.817  23.840  -2.849  0.00  0.00    -0.250 OA
ATOM      4  O   UNL     1     -34.090  26.044   6.326  0.00  0.00    -0.288 OA
ATOM      5  C   UNL     1     -35.216  23.143   0.918  0.00  0.00    +0.070 C 
ATOM      6  C   UNL     1     -35.020  23.142   2.494  0.00  0.00    +0.036 C 
ATOM      7  C   UNL     1     -36.309  22.179   0.444  0.00  0.00    +0.055 C 
ATOM      8  C   UNL     1     -34.954  24.579   3.135  0.00  0.00    +0.014 C 
ATOM      9  C   UNL     1     -35.666  20.875   0.920  0.00  0.00    +0.208 C 
ATOM     10  C   UNL     1     -35.519  24.511   0.338  0.00  0.00    +0.171 C 
ATOM     11  C   UNL     1     -35.886  22.075   3.204  0.00  0.00    +0.140 C 
ATOM     12  C   UNL     1     -34.007  25.434   2.226  0.00  0.00    +0.025 C 
ATOM     13  C   UNL     1     -33.997  22.408   0.329  0.00  0.00    +0.146 C 
ATOM     14  C   UNL     1     -35.828  20.723   2.455  0.00  0.00    +0.172 C 
ATOM     15  C   UNL     1     -34.581  25.622   0.805  0.00  0.00    +0.048 C 
ATOM     16  C   UNL     1     -36.530  22.258  -1.078  0.00  0.00    +0.113 C 
ATOM     17  C   UNL     1     -34.288  24.484   4.527  0.00  0.00    +0.073 C 
ATOM     18  C   UNL     1     -36.339  25.248   3.341  0.00  0.00    +0.001 C 
ATOM     19  C   UNL     1     -33.515  26.736   2.872  0.00  0.00    -0.008 C 
ATOM     20  C   UNL     1     -36.358  23.611  -1.733  0.00  0.00    +0.317 C 
ATOM     21  C   UNL     1     -34.011  25.848   5.114  0.00  0.00    +0.206 C 
ATOM     22  C   UNL     1     -33.564  26.941   4.206  0.00  0.00    +0.160 C 
ATOM     23  C   UNL     1     -32.890  27.740   1.930  0.00  0.00    +0.030 C 
ENDROOT
BRANCH  11  24
ATOM     24  O   UNL     1     -37.241  22.457   3.403  0.00  0.00    -0.382 OA
ATOM     25  H   UNL     1     -37.678  21.809   3.977  0.00  0.00    +0.210 HD
ENDBRANCH  11  24
BRANCH  14  26
ATOM     26  O   UNL     1     -34.763  19.926   2.973  0.00  0.00    -0.379 OA
ATOM     27  H   UNL     1     -33.913  20.311   2.707  0.00  0.00    +0.211 HD
ENDBRANCH  14  26
BRANCH   9  29
ATOM     28  O   UNL     1     -37.325  19.221   0.358  0.00  0.00    -0.247 OA
ATOM     29  C   UNL     1     -36.182  19.643   0.239  0.00  0.00    +0.344 C 
BRANCH  29  30
ATOM     30  O   UNL     1     -35.190  19.088  -0.513  0.00  0.00    -0.447 OA
BRANCH  30  31
ATOM     31  C   UNL     1     -34.955  17.694  -0.289  0.00  0.00    +0.209 C 
ATOM     32  C   UNL     1     -33.651  17.528   0.464  0.00  0.00    +0.051 C 
ENDBRANCH  30  31
ENDBRANCH  29  30
ENDBRANCH   9  29
BRANCH  22  33
ATOM     33  O   UNL     1     -33.191  28.108   4.839  0.00  0.00    -0.503 OA
ATOM     34  H   UNL     1     -32.359  28.497   4.652  0.00  0.00    +0.292 HD
ENDBRANCH  22  33
TORSDOF 6
ENDMDL
MODEL 7
REMARK VINA RESULT:      -5.9      3.457      6.124
REMARK  Name = 196839
REMARK  6 active torsions:
REMARK  status: ('A' for Active; 'I' for Inactive)
REMARK    1  A    between atoms: C_9  and  C_29
REMARK    2  A    between atoms: C_11  and  O_24
REMARK    3  A    between atoms: C_14  and  O_26
REMARK    4  A    between atoms: C_22  and  O_33
REMARK    5  A    between atoms: C_29  and  O_30
REMARK    6  A    between atoms: O_30  and  C_31
REMARK                            x       y       z     vdW  Elec       q    Type
REMARK                         _______ _______ _______ _____ _____    ______ ____
ROOT
ATOM      1  O   UNL     1     -38.470  22.342   2.723  0.00  0.00    -0.345 OA
ATOM      2  O   UNL     1     -38.246  21.891  -1.330  0.00  0.00    -0.452 OA
ATOM      3  O   UNL     1     -39.334  23.691  -2.143  0.00  0.00    -0.250 OA
ATOM      4  O   UNL     1     -32.228  18.062   1.639  0.00  0.00    -0.288 OA
ATOM      5  C   UNL     1     -37.114  21.862   0.852  0.00  0.00    +0.070 C 
ATOM      6  C   UNL     1     -35.882  21.321   1.696  0.00  0.00    +0.036 C 
ATOM      7  C   UNL     1     -37.301  23.380   0.961  0.00  0.00    +0.055 C 
ATOM      8  C   UNL     1     -34.946  20.331   0.905  0.00  0.00    +0.014 C 
ATOM      9  C   UNL     1     -37.584  23.454   2.462  0.00  0.00    +0.208 C 
ATOM     10  C   UNL     1     -37.054  21.505  -0.621  0.00  0.00    +0.171 C 
ATOM     11  C   UNL     1     -35.211  22.422   2.549  0.00  0.00    +0.140 C 
ATOM     12  C   UNL     1     -35.885  19.328   0.152  0.00  0.00    +0.025 C 
ATOM     13  C   UNL     1     -38.384  21.426   1.607  0.00  0.00    +0.146 C 
ATOM     14  C   UNL     1     -36.269  23.291   3.267  0.00  0.00    +0.172 C 
ATOM     15  C   UNL     1     -36.759  20.035  -0.908  0.00  0.00    +0.048 C 
ATOM     16  C   UNL     1     -38.452  23.886   0.072  0.00  0.00    +0.113 C 
ATOM     17  C   UNL     1     -34.112  19.507   1.912  0.00  0.00    +0.073 C 
ATOM     18  C   UNL     1     -33.942  21.031  -0.049  0.00  0.00    +0.001 C 
ATOM     19  C   UNL     1     -35.180  18.069  -0.368  0.00  0.00    -0.008 C 
ATOM     20  C   UNL     1     -38.676  23.174  -1.243  0.00  0.00    +0.317 C 
ATOM     21  C   UNL     1     -33.339  18.402   1.233  0.00  0.00    +0.206 C 
ATOM     22  C   UNL     1     -33.978  17.671   0.103  0.00  0.00    +0.160 C 
ATOM     23  C   UNL     1     -35.955  17.252  -1.377  0.00  0.00    +0.030 C 
ENDROOT
BRANCH  11  24
ATOM     24  O   UNL     1     -34.312  23.255   1.829  0.00  0.00    -0.382 OA
ATOM     25  H   UNL     1     -33.682  22.704   1.340  0.00  0.00    +0.210 HD
ENDBRANCH  11  24
BRANCH  14  26
ATOM     26  O   UNL     1     -36.558  22.741   4.552  0.00  0.00    -0.379 OA
ATOM     27  H   UNL     1     -37.511  22.802   4.723  0.00  0.00    +0.211 HD
ENDBRANCH  14  26
BRANCH   9  29
ATOM     28  O   UNL     1     -37.782  25.818   2.881  0.00  0.00    -0.247 OA
ATOM     29  C   UNL     1     -38.287  24.704   2.901  0.00  0.00    +0.344 C 
BRANCH  29  30
ATOM     30  O   UNL     1     -39.549  24.395   3.314  0.00  0.00    -0.447 OA
BRANCH  30  31
ATOM     31  C   UNL     1     -40.492  25.471   3.267  0.00  0.00    +0.209 C 
ATOM     32  C   UNL     1     -41.213  25.436   1.936  0.00  0.00    +0.051 C 
ENDBRANCH  30  31
ENDBRANCH  29  30
ENDBRANCH   9  29
BRANCH  22  33
ATOM     33  O   UNL     1     -33.269  16.583  -0.362  0.00  0.00    -0.503 OA
ATOM     34  H   UNL     1     -33.179  16.442  -1.284  0.00  0.00    +0.292 HD
ENDBRANCH  22  33
TORSDOF 6
ENDMDL
MODEL 8
REMARK VINA RESULT:      -5.9      3.301      7.360
REMARK  Name = 196839
REMARK  6 active torsions:
REMARK  status: ('A' for Active; 'I' for Inactive)
REMARK    1  A    between atoms: C_9  and  C_29
REMARK    2  A    between atoms: C_11  and  O_24
REMARK    3  A    between atoms: C_14  and  O_26
REMARK    4  A    between atoms: C_22  and  O_33
REMARK    5  A    between atoms: C_29  and  O_30
REMARK    6  A    between atoms: O_30  and  C_31
REMARK                            x       y       z     vdW  Elec       q    Type
REMARK                         _______ _______ _______ _____ _____    ______ ____
ROOT
ATOM      1  O   UNL     1     -33.942  20.778  -0.697  0.00  0.00    -0.345 OA
ATOM      2  O   UNL     1     -37.204  23.084  -1.547  0.00  0.00    -0.452 OA
ATOM      3  O   UNL     1     -38.193  22.020  -3.271  0.00  0.00    -0.250 OA
ATOM      4  O   UNL     1     -35.493  24.355   5.880  0.00  0.00    -0.288 OA
ATOM      5  C   UNL     1     -35.818  21.944   0.134  0.00  0.00    +0.070 C 
ATOM      6  C   UNL     1     -35.370  21.881   1.656  0.00  0.00    +0.036 C 
ATOM      7  C   UNL     1     -36.274  20.589  -0.419  0.00  0.00    +0.055 C 
ATOM      8  C   UNL     1     -35.983  23.021   2.555  0.00  0.00    +0.014 C 
ATOM      9  C   UNL     1     -34.951  19.838  -0.263  0.00  0.00    +0.208 C 
ATOM     10  C   UNL     1     -36.916  22.953  -0.142  0.00  0.00    +0.171 C 
ATOM     11  C   UNL     1     -35.369  20.441   2.220  0.00  0.00    +0.140 C 
ATOM     12  C   UNL     1     -35.838  24.356   1.748  0.00  0.00    +0.025 C 
ATOM     13  C   UNL     1     -34.527  22.100  -0.692  0.00  0.00    +0.146 C 
ATOM     14  C   UNL     1     -34.722  19.453   1.222  0.00  0.00    +0.172 C 
ATOM     15  C   UNL     1     -36.669  24.340   0.446  0.00  0.00    +0.048 C 
ATOM     16  C   UNL     1     -36.775  20.696  -1.871  0.00  0.00    +0.113 C 
ATOM     17  C   UNL     1     -35.132  23.168   3.838  0.00  0.00    +0.073 C 
ATOM     18  C   UNL     1     -37.443  22.758   3.008  0.00  0.00    +0.001 C 
ATOM     19  C   UNL     1     -36.027  25.626   2.587  0.00  0.00    -0.008 C 
ATOM     20  C   UNL     1     -37.489  21.970  -2.265  0.00  0.00    +0.317 C 
ATOM     21  C   UNL     1     -35.541  24.373   4.650  0.00  0.00    +0.206 C 
ATOM     22  C   UNL     1     -35.936  25.619   3.935  0.00  0.00    +0.160 C 
ATOM     23  C   UNL     1     -36.233  26.904   1.805  0.00  0.00    +0.030 C 
ENDROOT
BRANCH  11  24
ATOM     24  O   UNL     1     -36.650  19.962   2.609  0.00  0.00    -0.382 OA
ATOM     25  H   UNL     1     -36.562  19.073   2.987  0.00  0.00    +0.210 HD
ENDBRANCH  11  24
BRANCH  14  26
ATOM     26  O   UNL     1     -33.322  19.349   1.480  0.00  0.00    -0.379 OA
ATOM     27  H   UNL     1     -32.926  20.235   1.476  0.00  0.00    +0.211 HD
ENDBRANCH  14  26
BRANCH   9  29
ATOM     28  O   UNL     1     -34.244  18.586  -2.195  0.00  0.00    -0.247 OA
ATOM     29  C   UNL     1     -34.827  18.614  -1.120  0.00  0.00    +0.344 C 
BRANCH  29  30
ATOM     30  O   UNL     1     -35.456  17.567  -0.515  0.00  0.00    -0.447 OA
BRANCH  30  31
ATOM     31  C   UNL     1     -36.548  17.000  -1.245  0.00  0.00    +0.209 C 
ATOM     32  C   UNL     1     -37.720  16.804  -0.306  0.00  0.00    +0.051 C 
ENDBRANCH  30  31
ENDBRANCH  29  30
ENDBRANCH   9  29
BRANCH  22  33
ATOM     33  O   UNL     1     -36.150  26.713   4.746  0.00  0.00    -0.503 OA
ATOM     34  H   UNL     1     -36.799  27.349   4.514  0.00  0.00    +0.292 HD
ENDBRANCH  22  33
TORSDOF 6
ENDMDL
MODEL 9
REMARK VINA RESULT:      -5.9      1.635      6.625
REMARK  Name = 196839
REMARK  6 active torsions:
REMARK  status: ('A' for Active; 'I' for Inactive)
REMARK    1  A    between atoms: C_9  and  C_29
REMARK    2  A    between atoms: C_11  and  O_24
REMARK    3  A    between atoms: C_14  and  O_26
REMARK    4  A    between atoms: C_22  and  O_33
REMARK    5  A    between atoms: C_29  and  O_30
REMARK    6  A    between atoms: O_30  and  C_31
REMARK                            x       y       z     vdW  Elec       q    Type
REMARK                         _______ _______ _______ _____ _____    ______ ____
ROOT
ATOM      1  O   UNL     1     -35.413  22.410   2.423  0.00  0.00    -0.345 OA
ATOM      2  O   UNL     1     -34.813  25.261  -0.439  0.00  0.00    -0.452 OA
ATOM      3  O   UNL     1     -36.290  24.731  -2.058  0.00  0.00    -0.250 OA
ATOM      4  O   UNL     1     -32.542  28.367   6.262  0.00  0.00    -0.288 OA
ATOM      5  C   UNL     1     -35.144  24.703   1.933  0.00  0.00    +0.070 C 
ATOM      6  C   UNL     1     -34.927  25.153   3.440  0.00  0.00    +0.036 C 
ATOM      7  C   UNL     1     -36.588  24.290   1.627  0.00  0.00    +0.055 C 
ATOM      8  C   UNL     1     -34.125  26.500   3.600  0.00  0.00    +0.014 C 
ATOM      9  C   UNL     1     -36.676  23.096   2.579  0.00  0.00    +0.208 C 
ATOM     10  C   UNL     1     -34.733  25.748   0.914  0.00  0.00    +0.171 C 
ATOM     11  C   UNL     1     -36.190  24.959   4.311  0.00  0.00    +0.140 C 
ATOM     12  C   UNL     1     -32.904  26.416   2.622  0.00  0.00    +0.025 C 
ATOM     13  C   UNL     1     -34.481  23.319   1.793  0.00  0.00    +0.146 C 
ATOM     14  C   UNL     1     -36.845  23.584   4.041  0.00  0.00    +0.172 C 
ATOM     15  C   UNL     1     -33.349  26.352   1.143  0.00  0.00    +0.048 C 
ATOM     16  C   UNL     1     -36.786  23.934   0.142  0.00  0.00    +0.113 C 
ATOM     17  C   UNL     1     -33.555  26.584   5.035  0.00  0.00    +0.073 C 
ATOM     18  C   UNL     1     -34.976  27.777   3.376  0.00  0.00    +0.001 C 
ATOM     19  C   UNL     1     -31.804  27.449   2.892  0.00  0.00    -0.008 C 
ATOM     20  C   UNL     1     -35.975  24.712  -0.871  0.00  0.00    +0.317 C 
ATOM     21  C   UNL     1     -32.611  27.750   5.199  0.00  0.00    +0.206 C 
ATOM     22  C   UNL     1     -31.701  28.100   4.071  0.00  0.00    +0.160 C 
ATOM     23  C   UNL     1     -30.787  27.629   1.788  0.00  0.00    +0.030 C 
ENDROOT
BRANCH  11  24
ATOM     24  O   UNL     1     -37.161  25.988   4.175  0.00  0.00    -0.382 OA
ATOM     25  H   UNL     1     -36.785  26.829   4.480  0.00  0.00    +0.210 HD
ENDBRANCH  11  24
BRANCH  14  26
ATOM     26  O   UNL     1     -36.313  22.609   4.936  0.00  0.00    -0.379 OA
ATOM     27  H   UNL     1     -35.378  22.451   4.725  0.00  0.00    +0.211 HD
ENDBRANCH  14  26
BRANCH   9  29
ATOM     28  O   UNL     1     -37.573  21.030   1.724  0.00  0.00    -0.247 OA
ATOM     29  C   UNL     1     -37.765  22.118   2.250  0.00  0.00    +0.344 C 
BRANCH  29  30
ATOM     30  O   UNL     1     -38.970  22.634   2.625  0.00  0.00    -0.447 OA
BRANCH  30  31
ATOM     31  C   UNL     1     -39.956  22.708   1.591  0.00  0.00    +0.209 C 
ATOM     32  C   UNL     1     -40.423  24.142   1.456  0.00  0.00    +0.051 C 
ENDBRANCH  30  31
ENDBRANCH  29  30
ENDBRANCH   9  29
BRANCH  22  33
ATOM     33  O   UNL     1     -30.771  29.077   4.355  0.00  0.00    -0.503 OA
ATOM     34  H   UNL     1     -30.947  29.970   4.133  0.00  0.00    +0.292 HD
ENDBRANCH  22  33
TORSDOF 6
ENDMDL
