MODEL 1
REMARK VINA RESULT:      -6.7      0.000      0.000
REMARK  Name = 195205
REMARK  6 active torsions:
REMARK  status: ('A' for Active; 'I' for Inactive)
REMARK    1  A    between atoms: C_7  and  O_22
REMARK    2  A    between atoms: C_15  and  C_31
REMARK    3  A    between atoms: C_16  and  O_24
REMARK    4  A    between atoms: C_17  and  O_26
REMARK    5  A    between atoms: C_20  and  O_28
REMARK    6  A    between atoms: C_31  and  O_32
REMARK                            x       y       z     vdW  Elec       q    Type
REMARK                         _______ _______ _______ _____ _____    ______ ____
ROOT
ATOM      1  O   UNL     1     -31.392  27.456   6.577  0.00  0.00    -0.286 OA
ATOM      2  O   UNL     1     -32.139  30.808   2.484  0.00  0.00    -0.287 OA
ATOM      3  C   UNL     1     -32.714  28.042   4.716  0.00  0.00    +0.076 C 
ATOM      4  C   UNL     1     -34.706  26.794   4.064  0.00  0.00    +0.030 C 
ATOM      5  C   UNL     1     -32.907  28.918   3.650  0.00  0.00    +0.045 C 
ATOM      6  C   UNL     1     -34.900  27.683   2.982  0.00  0.00    +0.006 C 
ATOM      7  C   UNL     1     -33.609  26.984   4.923  0.00  0.00    +0.136 C 
ATOM      8  C   UNL     1     -33.995  28.739   2.786  0.00  0.00    +0.004 C 
ATOM      9  C   UNL     1     -35.612  25.739   4.258  0.00  0.00    -0.010 C 
ATOM     10  C   UNL     1     -30.634  29.337   5.407  0.00  0.00    +0.076 C 
ATOM     11  C   UNL     1     -30.826  30.214   4.339  0.00  0.00    +0.048 C 
ATOM     12  C   UNL     1     -31.570  28.218   5.636  0.00  0.00    +0.202 C 
ATOM     13  C   UNL     1     -31.970  30.037   3.421  0.00  0.00    +0.196 C 
ATOM     14  C   UNL     1     -35.996  27.492   2.125  0.00  0.00    +0.037 C 
ATOM     15  C   UNL     1     -36.696  25.563   3.397  0.00  0.00    +0.105 C 
ATOM     16  C   UNL     1     -36.887  26.438   2.332  0.00  0.00    +0.140 C 
ATOM     17  C   UNL     1     -29.547  29.517   6.272  0.00  0.00    +0.140 C 
ATOM     18  C   UNL     1     -29.931  31.270   4.133  0.00  0.00    +0.040 C 
ATOM     19  C   UNL     1     -35.489  24.745   5.377  0.00  0.00    +0.031 C 
ATOM     20  C   UNL     1     -28.848  31.446   4.996  0.00  0.00    +0.142 C 
ATOM     21  C   UNL     1     -28.657  30.571   6.064  0.00  0.00    +0.074 C 
ENDROOT
BRANCH   7  22
ATOM     22  O   UNL     1     -33.405  26.135   5.974  0.00  0.00    -0.505 OA
ATOM     23  H   UNL     1     -33.823  26.297   6.796  0.00  0.00    +0.292 HD
ENDBRANCH   7  22
BRANCH  16  24
ATOM     24  O   UNL     1     -37.939  26.286   1.478  0.00  0.00    -0.505 OA
ATOM     25  H   UNL     1     -38.129  25.443   1.114  0.00  0.00    +0.292 HD
ENDBRANCH  16  24
BRANCH  17  26
ATOM     26  O   UNL     1     -29.298  28.701   7.335  0.00  0.00    -0.505 OA
ATOM     27  H   UNL     1     -29.907  28.025   7.561  0.00  0.00    +0.292 HD
ENDBRANCH  17  26
BRANCH  20  28
ATOM     28  O   UNL     1     -27.979  32.474   4.796  0.00  0.00    -0.471 OA
ATOM     29  C   UNL     1     -27.254  32.942   5.932  0.00  0.00    +0.252 C 
ENDBRANCH  20  28
BRANCH  15  31
ATOM     30  O   UNL     1     -37.392  23.274   3.414  0.00  0.00    -0.245 OA
ATOM     31  C   UNL     1     -37.641  24.468   3.594  0.00  0.00    +0.341 C 
BRANCH  31  32
ATOM     32  O   UNL     1     -38.858  24.907   4.008  0.00  0.00    -0.477 OA
ATOM     33  H   UNL     1     -38.918  25.631   4.599  0.00  0.00    +0.295 HD
ENDBRANCH  31  32
ENDBRANCH  15  31
TORSDOF 6
ENDMDL
MODEL 2
REMARK VINA RESULT:      -6.7      2.279      2.983
REMARK  Name = 195205
REMARK  6 active torsions:
REMARK  status: ('A' for Active; 'I' for Inactive)
REMARK    1  A    between atoms: C_7  and  O_22
REMARK    2  A    between atoms: C_15  and  C_31
REMARK    3  A    between atoms: C_16  and  O_24
REMARK    4  A    between atoms: C_17  and  O_26
REMARK    5  A    between atoms: C_20  and  O_28
REMARK    6  A    between atoms: C_31  and  O_32
REMARK                            x       y       z     vdW  Elec       q    Type
REMARK                         _______ _______ _______ _____ _____    ______ ____
ROOT
ATOM      1  O   UNL     1     -33.193  26.465   6.371  0.00  0.00    -0.286 OA
ATOM      2  O   UNL     1     -32.851  28.613   1.491  0.00  0.00    -0.287 OA
ATOM      3  C   UNL     1     -33.656  26.234   4.072  0.00  0.00    +0.076 C 
ATOM      4  C   UNL     1     -34.782  24.283   3.139  0.00  0.00    +0.030 C 
ATOM      5  C   UNL     1     -33.566  26.797   2.800  0.00  0.00    +0.045 C 
ATOM      6  C   UNL     1     -34.689  24.854   1.849  0.00  0.00    +0.006 C 
ATOM      7  C   UNL     1     -34.261  24.982   4.241  0.00  0.00    +0.136 C 
ATOM      8  C   UNL     1     -34.080  26.110   1.693  0.00  0.00    +0.004 C 
ATOM      9  C   UNL     1     -35.392  23.027   3.291  0.00  0.00    -0.010 C 
ATOM     10  C   UNL     1     -32.482  28.267   5.057  0.00  0.00    +0.076 C 
ATOM     11  C   UNL     1     -32.391  28.831   3.784  0.00  0.00    +0.048 C 
ATOM     12  C   UNL     1     -33.118  26.948   5.248  0.00  0.00    +0.202 C 
ATOM     13  C   UNL     1     -32.930  28.117   2.608  0.00  0.00    +0.196 C 
ATOM     14  C   UNL     1     -35.211  24.153   0.748  0.00  0.00    +0.037 C 
ATOM     15  C   UNL     1     -35.905  22.344   2.188  0.00  0.00    +0.105 C 
ATOM     16  C   UNL     1     -35.813  22.906   0.918  0.00  0.00    +0.140 C 
ATOM     17  C   UNL     1     -31.970  28.955   6.164  0.00  0.00    +0.140 C 
ATOM     18  C   UNL     1     -31.786  30.082   3.615  0.00  0.00    +0.040 C 
ATOM     19  C   UNL     1     -35.537  22.340   4.619  0.00  0.00    +0.031 C 
ATOM     20  C   UNL     1     -31.275  30.764   4.721  0.00  0.00    +0.142 C 
ATOM     21  C   UNL     1     -31.367  30.202   5.992  0.00  0.00    +0.074 C 
ENDROOT
BRANCH   7  22
ATOM     22  O   UNL     1     -34.341  24.445   5.495  0.00  0.00    -0.505 OA
ATOM     23  H   UNL     1     -34.107  24.961   6.241  0.00  0.00    +0.292 HD
ENDBRANCH   7  22
BRANCH  16  24
ATOM     24  O   UNL     1     -36.307  22.258  -0.175  0.00  0.00    -0.505 OA
ATOM     25  H   UNL     1     -37.070  22.587  -0.609  0.00  0.00    +0.292 HD
ENDBRANCH  16  24
BRANCH  17  26
ATOM     26  O   UNL     1     -32.025  28.467   7.435  0.00  0.00    -0.505 OA
ATOM     27  H   UNL     1     -32.475  28.946   8.103  0.00  0.00    +0.292 HD
ENDBRANCH  17  26
BRANCH  20  28
ATOM     28  O   UNL     1     -30.687  31.981   4.556  0.00  0.00    -0.471 OA
ATOM     29  C   UNL     1     -30.875  32.627   3.297  0.00  0.00    +0.252 C 
ENDBRANCH  20  28
BRANCH  15  31
ATOM     30  O   UNL     1     -35.941  19.964   2.430  0.00  0.00    -0.245 OA
ATOM     31  C   UNL     1     -36.539  21.038   2.341  0.00  0.00    +0.341 C 
BRANCH  31  32
ATOM     32  O   UNL     1     -37.895  21.126   2.380  0.00  0.00    -0.477 OA
ATOM     33  H   UNL     1     -38.325  21.880   2.028  0.00  0.00    +0.295 HD
ENDBRANCH  31  32
ENDBRANCH  15  31
TORSDOF 6
ENDMDL
MODEL 3
REMARK VINA RESULT:      -6.7      3.221      4.691
REMARK  Name = 195205
REMARK  6 active torsions:
REMARK  status: ('A' for Active; 'I' for Inactive)
REMARK    1  A    between atoms: C_7  and  O_22
REMARK    2  A    between atoms: C_15  and  C_31
REMARK    3  A    between atoms: C_16  and  O_24
REMARK    4  A    between atoms: C_17  and  O_26
REMARK    5  A    between atoms: C_20  and  O_28
REMARK    6  A    between atoms: C_31  and  O_32
REMARK                            x       y       z     vdW  Elec       q    Type
REMARK                         _______ _______ _______ _____ _____    ______ ____
ROOT
ATOM      1  O   UNL     1     -33.129  29.027   4.088  0.00  0.00    -0.286 OA
ATOM      2  O   UNL     1     -37.235  29.181   0.674  0.00  0.00    -0.287 OA
ATOM      3  C   UNL     1     -34.919  27.861   3.095  0.00  0.00    +0.076 C 
ATOM      4  C   UNL     1     -35.434  25.535   3.615  0.00  0.00    +0.030 C 
ATOM      5  C   UNL     1     -35.990  27.904   2.204  0.00  0.00    +0.045 C 
ATOM      6  C   UNL     1     -36.519  25.579   2.711  0.00  0.00    +0.006 C 
ATOM      7  C   UNL     1     -34.642  26.682   3.798  0.00  0.00    +0.136 C 
ATOM      8  C   UNL     1     -36.787  26.768   2.012  0.00  0.00    +0.004 C 
ATOM      9  C   UNL     1     -35.169  24.345   4.312  0.00  0.00    -0.010 C 
ATOM     10  C   UNL     1     -34.374  30.290   2.560  0.00  0.00    +0.076 C 
ATOM     11  C   UNL     1     -35.446  30.333   1.667  0.00  0.00    +0.048 C 
ATOM     12  C   UNL     1     -34.071  29.053   3.307  0.00  0.00    +0.202 C 
ATOM     13  C   UNL     1     -36.294  29.142   1.456  0.00  0.00    +0.196 C 
ATOM     14  C   UNL     1     -37.309  24.431   2.530  0.00  0.00    +0.037 C 
ATOM     15  C   UNL     1     -35.963  23.214   4.121  0.00  0.00    +0.105 C 
ATOM     16  C   UNL     1     -37.032  23.258   3.231  0.00  0.00    +0.140 C 
ATOM     17  C   UNL     1     -33.579  31.427   2.753  0.00  0.00    +0.140 C 
ATOM     18  C   UNL     1     -35.722  31.512   0.965  0.00  0.00    +0.040 C 
ATOM     19  C   UNL     1     -34.039  24.200   5.292  0.00  0.00    +0.031 C 
ATOM     20  C   UNL     1     -34.927  32.643   1.159  0.00  0.00    +0.142 C 
ATOM     21  C   UNL     1     -33.858  32.599   2.051  0.00  0.00    +0.074 C 
ENDROOT
BRANCH   7  22
ATOM     22  O   UNL     1     -33.588  26.657   4.667  0.00  0.00    -0.505 OA
ATOM     23  H   UNL     1     -33.220  25.838   4.935  0.00  0.00    +0.292 HD
ENDBRANCH   7  22
BRANCH  16  24
ATOM     24  O   UNL     1     -37.822  22.166   3.027  0.00  0.00    -0.505 OA
ATOM     25  H   UNL     1     -38.564  22.224   2.456  0.00  0.00    +0.292 HD
ENDBRANCH  16  24
BRANCH  17  26
ATOM     26  O   UNL     1     -32.518  31.457   3.609  0.00  0.00    -0.505 OA
ATOM     27  H   UNL     1     -32.658  31.373   4.531  0.00  0.00    +0.292 HD
ENDBRANCH  17  26
BRANCH  20  28
ATOM     28  O   UNL     1     -35.198  33.789   0.476  0.00  0.00    -0.471 OA
ATOM     29  C   UNL     1     -34.782  35.015   1.076  0.00  0.00    +0.252 C 
ENDBRANCH  20  28
BRANCH  15  31
ATOM     30  O   UNL     1     -35.137  20.982   4.367  0.00  0.00    -0.245 OA
ATOM     31  C   UNL     1     -35.692  21.974   4.843  0.00  0.00    +0.341 C 
BRANCH  31  32
ATOM     32  O   UNL     1     -36.123  22.024   6.131  0.00  0.00    -0.477 OA
ATOM     33  H   UNL     1     -37.008  21.800   6.337  0.00  0.00    +0.295 HD
ENDBRANCH  31  32
ENDBRANCH  15  31
TORSDOF 6
ENDMDL
MODEL 4
REMARK VINA RESULT:      -6.7      2.164      3.676
REMARK  Name = 195205
REMARK  6 active torsions:
REMARK  status: ('A' for Active; 'I' for Inactive)
REMARK    1  A    between atoms: C_7  and  O_22
REMARK    2  A    between atoms: C_15  and  C_31
REMARK    3  A    between atoms: C_16  and  O_24
REMARK    4  A    between atoms: C_17  and  O_26
REMARK    5  A    between atoms: C_20  and  O_28
REMARK    6  A    between atoms: C_31  and  O_32
REMARK                            x       y       z     vdW  Elec       q    Type
REMARK                         _______ _______ _______ _____ _____    ______ ____
ROOT
ATOM      1  O   UNL     1     -32.133  27.587   1.102  0.00  0.00    -0.286 OA
ATOM      2  O   UNL     1     -32.405  28.475   6.363  0.00  0.00    -0.287 OA
ATOM      3  C   UNL     1     -32.920  26.843   3.195  0.00  0.00    +0.076 C 
ATOM      4  C   UNL     1     -34.221  24.799   3.468  0.00  0.00    +0.030 C 
ATOM      5  C   UNL     1     -32.989  27.077   4.567  0.00  0.00    +0.045 C 
ATOM      6  C   UNL     1     -34.291  25.037   4.860  0.00  0.00    +0.006 C 
ATOM      7  C   UNL     1     -33.533  25.709   2.647  0.00  0.00    +0.136 C 
ATOM      8  C   UNL     1     -33.672  26.178   5.396  0.00  0.00    +0.004 C 
ATOM      9  C   UNL     1     -34.841  23.657   2.935  0.00  0.00    -0.010 C 
ATOM     10  C   UNL     1     -31.560  28.975   2.898  0.00  0.00    +0.076 C 
ATOM     11  C   UNL     1     -31.629  29.210   4.272  0.00  0.00    +0.048 C 
ATOM     12  C   UNL     1     -32.202  27.783   2.309  0.00  0.00    +0.202 C 
ATOM     13  C   UNL     1     -32.345  28.269   5.157  0.00  0.00    +0.196 C 
ATOM     14  C   UNL     1     -34.979  24.126   5.679  0.00  0.00    +0.037 C 
ATOM     15  C   UNL     1     -35.520  22.762   3.762  0.00  0.00    +0.105 C 
ATOM     16  C   UNL     1     -35.589  22.997   5.132  0.00  0.00    +0.140 C 
ATOM     17  C   UNL     1     -30.875  29.873   2.069  0.00  0.00    +0.140 C 
ATOM     18  C   UNL     1     -31.016  30.343   4.818  0.00  0.00    +0.040 C 
ATOM     19  C   UNL     1     -34.822  23.319   1.471  0.00  0.00    +0.031 C 
ATOM     20  C   UNL     1     -30.335  31.236   3.989  0.00  0.00    +0.142 C 
ATOM     21  C   UNL     1     -30.265  31.001   2.618  0.00  0.00    +0.074 C 
ENDROOT
BRANCH   7  22
ATOM     22  O   UNL     1     -33.456  25.495   1.300  0.00  0.00    -0.505 OA
ATOM     23  H   UNL     1     -33.144  26.175   0.735  0.00  0.00    +0.292 HD
ENDBRANCH   7  22
BRANCH  16  24
ATOM     24  O   UNL     1     -36.247  22.136   5.960  0.00  0.00    -0.505 OA
ATOM     25  H   UNL     1     -35.765  21.617   6.574  0.00  0.00    +0.292 HD
ENDBRANCH  16  24
BRANCH  17  26
ATOM     26  O   UNL     1     -30.766  29.707   0.721  0.00  0.00    -0.505 OA
ATOM     27  H   UNL     1     -31.172  28.973   0.304  0.00  0.00    +0.292 HD
ENDBRANCH  17  26
BRANCH  20  28
ATOM     28  O   UNL     1     -29.738  32.338   4.522  0.00  0.00    -0.471 OA
ATOM     29  C   UNL     1     -28.357  32.227   4.861  0.00  0.00    +0.252 C 
ENDBRANCH  20  28
BRANCH  15  31
ATOM     30  O   UNL     1     -35.604  20.501   2.983  0.00  0.00    -0.245 OA
ATOM     31  C   UNL     1     -36.167  21.574   3.213  0.00  0.00    +0.341 C 
BRANCH  31  32
ATOM     32  O   UNL     1     -37.490  21.772   2.973  0.00  0.00    -0.477 OA
ATOM     33  H   UNL     1     -38.004  21.089   2.592  0.00  0.00    +0.295 HD
ENDBRANCH  31  32
ENDBRANCH  15  31
TORSDOF 6
ENDMDL
MODEL 5
REMARK VINA RESULT:      -6.6      1.242      3.157
REMARK  Name = 195205
REMARK  6 active torsions:
REMARK  status: ('A' for Active; 'I' for Inactive)
REMARK    1  A    between atoms: C_7  and  O_22
REMARK    2  A    between atoms: C_15  and  C_31
REMARK    3  A    between atoms: C_16  and  O_24
REMARK    4  A    between atoms: C_17  and  O_26
REMARK    5  A    between atoms: C_20  and  O_28
REMARK    6  A    between atoms: C_31  and  O_32
REMARK                            x       y       z     vdW  Elec       q    Type
REMARK                         _______ _______ _______ _____ _____    ______ ____
ROOT
ATOM      1  O   UNL     1     -33.822  30.251   2.475  0.00  0.00    -0.286 OA
ATOM      2  O   UNL     1     -30.937  27.795   6.242  0.00  0.00    -0.287 OA
ATOM      3  C   UNL     1     -33.586  28.367   3.870  0.00  0.00    +0.076 C 
ATOM      4  C   UNL     1     -35.167  26.511   3.865  0.00  0.00    +0.030 C 
ATOM      5  C   UNL     1     -32.831  27.728   4.852  0.00  0.00    +0.045 C 
ATOM      6  C   UNL     1     -34.401  25.864   4.862  0.00  0.00    +0.006 C 
ATOM      7  C   UNL     1     -34.749  27.761   3.378  0.00  0.00    +0.136 C 
ATOM      8  C   UNL     1     -33.237  26.482   5.346  0.00  0.00    +0.004 C 
ATOM      9  C   UNL     1     -36.331  25.890   3.382  0.00  0.00    -0.010 C 
ATOM     10  C   UNL     1     -31.940  30.310   3.866  0.00  0.00    +0.076 C 
ATOM     11  C   UNL     1     -31.184  29.671   4.850  0.00  0.00    +0.048 C 
ATOM     12  C   UNL     1     -33.168  29.682   3.340  0.00  0.00    +0.202 C 
ATOM     13  C   UNL     1     -31.601  28.356   5.379  0.00  0.00    +0.196 C 
ATOM     14  C   UNL     1     -34.821  24.614   5.347  0.00  0.00    +0.037 C 
ATOM     15  C   UNL     1     -36.734  24.648   3.875  0.00  0.00    +0.105 C 
ATOM     16  C   UNL     1     -35.980  24.012   4.856  0.00  0.00    +0.140 C 
ATOM     17  C   UNL     1     -31.533  31.555   3.370  0.00  0.00    +0.140 C 
ATOM     18  C   UNL     1     -30.022  30.277   5.341  0.00  0.00    +0.040 C 
ATOM     19  C   UNL     1     -37.209  26.499   2.326  0.00  0.00    +0.031 C 
ATOM     20  C   UNL     1     -29.619  31.518   4.846  0.00  0.00    +0.142 C 
ATOM     21  C   UNL     1     -30.374  32.155   3.862  0.00  0.00    +0.074 C 
ENDROOT
BRANCH   7  22
ATOM     22  O   UNL     1     -35.477  28.402   2.415  0.00  0.00    -0.505 OA
ATOM     23  H   UNL     1     -35.052  28.980   1.813  0.00  0.00    +0.292 HD
ENDBRANCH   7  22
BRANCH  16  24
ATOM     24  O   UNL     1     -36.354  22.798   5.352  0.00  0.00    -0.505 OA
ATOM     25  H   UNL     1     -37.131  22.724   5.872  0.00  0.00    +0.292 HD
ENDBRANCH  16  24
BRANCH  17  26
ATOM     26  O   UNL     1     -32.220  32.235   2.410  0.00  0.00    -0.505 OA
ATOM     27  H   UNL     1     -33.092  31.977   2.186  0.00  0.00    +0.292 HD
ENDBRANCH  17  26
BRANCH  20  28
ATOM     28  O   UNL     1     -28.488  32.106   5.324  0.00  0.00    -0.471 OA
ATOM     29  C   UNL     1     -27.503  31.247   5.895  0.00  0.00    +0.252 C 
ENDBRANCH  20  28
BRANCH  15  31
ATOM     30  O   UNL     1     -37.968  22.988   2.672  0.00  0.00    -0.245 OA
ATOM     31  C   UNL     1     -37.943  23.999   3.376  0.00  0.00    +0.341 C 
BRANCH  31  32
ATOM     32  O   UNL     1     -39.073  24.637   3.780  0.00  0.00    -0.477 OA
ATOM     33  H   UNL     1     -39.578  25.129   3.163  0.00  0.00    +0.295 HD
ENDBRANCH  31  32
ENDBRANCH  15  31
TORSDOF 6
ENDMDL
MODEL 6
REMARK VINA RESULT:      -6.6      2.434      5.259
REMARK  Name = 195205
REMARK  6 active torsions:
REMARK  status: ('A' for Active; 'I' for Inactive)
REMARK    1  A    between atoms: C_7  and  O_22
REMARK    2  A    between atoms: C_15  and  C_31
REMARK    3  A    between atoms: C_16  and  O_24
REMARK    4  A    between atoms: C_17  and  O_26
REMARK    5  A    between atoms: C_20  and  O_28
REMARK    6  A    between atoms: C_31  and  O_32
REMARK                            x       y       z     vdW  Elec       q    Type
REMARK                         _______ _______ _______ _____ _____    ______ ____
ROOT
ATOM      1  O   UNL     1     -36.939  28.258   1.500  0.00  0.00    -0.286 OA
ATOM      2  O   UNL     1     -32.930  26.070   4.272  0.00  0.00    -0.287 OA
ATOM      3  C   UNL     1     -35.969  26.287   2.353  0.00  0.00    +0.076 C 
ATOM      4  C   UNL     1     -36.949  24.079   2.019  0.00  0.00    +0.030 C 
ATOM      5  C   UNL     1     -34.922  25.719   3.076  0.00  0.00    +0.045 C 
ATOM      6  C   UNL     1     -35.887  23.504   2.753  0.00  0.00    +0.006 C 
ATOM      7  C   UNL     1     -36.979  25.471   1.827  0.00  0.00    +0.136 C 
ATOM      8  C   UNL     1     -34.881  24.333   3.276  0.00  0.00    +0.004 C 
ATOM      9  C   UNL     1     -37.953  23.247   1.497  0.00  0.00    -0.010 C 
ATOM     10  C   UNL     1     -34.955  28.597   2.696  0.00  0.00    +0.076 C 
ATOM     11  C   UNL     1     -33.907  28.029   3.421  0.00  0.00    +0.048 C 
ATOM     12  C   UNL     1     -36.025  27.748   2.136  0.00  0.00    +0.202 C 
ATOM     13  C   UNL     1     -33.851  26.569   3.637  0.00  0.00    +0.196 C 
ATOM     14  C   UNL     1     -35.859  22.112   2.943  0.00  0.00    +0.037 C 
ATOM     15  C   UNL     1     -37.910  21.867   1.695  0.00  0.00    +0.105 C 
ATOM     16  C   UNL     1     -36.865  21.300   2.418  0.00  0.00    +0.140 C 
ATOM     17  C   UNL     1     -34.995  29.983   2.495  0.00  0.00    +0.140 C 
ATOM     18  C   UNL     1     -32.899  28.845   3.947  0.00  0.00    +0.040 C 
ATOM     19  C   UNL     1     -39.120  23.765   0.705  0.00  0.00    +0.031 C 
ATOM     20  C   UNL     1     -32.942  30.225   3.745  0.00  0.00    +0.142 C 
ATOM     21  C   UNL     1     -33.989  30.792   3.021  0.00  0.00    +0.074 C 
ENDROOT
BRANCH   7  22
ATOM     22  O   UNL     1     -37.998  26.045   1.120  0.00  0.00    -0.505 OA
ATOM     23  H   UNL     1     -38.706  26.461   1.572  0.00  0.00    +0.292 HD
ENDBRANCH   7  22
BRANCH  16  24
ATOM     24  O   UNL     1     -36.801  19.954   2.625  0.00  0.00    -0.505 OA
ATOM     25  H   UNL     1     -35.989  19.501   2.511  0.00  0.00    +0.292 HD
ENDBRANCH  16  24
BRANCH  17  26
ATOM     26  O   UNL     1     -35.987  30.606   1.797  0.00  0.00    -0.505 OA
ATOM     27  H   UNL     1     -36.115  30.412   0.890  0.00  0.00    +0.292 HD
ENDBRANCH  17  26
BRANCH  20  28
ATOM     28  O   UNL     1     -31.960  31.018   4.257  0.00  0.00    -0.471 OA
ATOM     29  C   UNL     1     -31.542  30.750   5.594  0.00  0.00    +0.252 C 
ENDBRANCH  20  28
BRANCH  15  31
ATOM     30  O   UNL     1     -38.854  20.327   0.126  0.00  0.00    -0.245 OA
ATOM     31  C   UNL     1     -38.952  20.998   1.155  0.00  0.00    +0.341 C 
BRANCH  31  32
ATOM     32  O   UNL     1     -40.073  21.000   1.923  0.00  0.00    -0.477 OA
ATOM     33  H   UNL     1     -40.185  21.652   2.586  0.00  0.00    +0.295 HD
ENDBRANCH  31  32
ENDBRANCH  15  31
TORSDOF 6
ENDMDL
MODEL 7
REMARK VINA RESULT:      -6.5      7.785     11.224
REMARK  Name = 195205
REMARK  6 active torsions:
REMARK  status: ('A' for Active; 'I' for Inactive)
REMARK    1  A    between atoms: C_7  and  O_22
REMARK    2  A    between atoms: C_15  and  C_31
REMARK    3  A    between atoms: C_16  and  O_24
REMARK    4  A    between atoms: C_17  and  O_26
REMARK    5  A    between atoms: C_20  and  O_28
REMARK    6  A    between atoms: C_31  and  O_32
REMARK                            x       y       z     vdW  Elec       q    Type
REMARK                         _______ _______ _______ _____ _____    ______ ____
ROOT
ATOM      1  O   UNL     1     -38.775  19.993   0.031  0.00  0.00    -0.286 OA
ATOM      2  O   UNL     1     -35.284  22.557   3.160  0.00  0.00    -0.287 OA
ATOM      3  C   UNL     1     -36.586  20.073   0.901  0.00  0.00    +0.076 C 
ATOM      4  C   UNL     1     -34.881  18.420   0.345  0.00  0.00    +0.030 C 
ATOM      5  C   UNL     1     -35.678  20.744   1.717  0.00  0.00    +0.045 C 
ATOM      6  C   UNL     1     -33.961  19.101   1.175  0.00  0.00    +0.006 C 
ATOM      7  C   UNL     1     -36.190  18.916   0.217  0.00  0.00    +0.136 C 
ATOM      8  C   UNL     1     -34.370  20.260   1.854  0.00  0.00    +0.004 C 
ATOM      9  C   UNL     1     -34.469  17.262  -0.333  0.00  0.00    -0.010 C 
ATOM     10  C   UNL     1     -38.374  21.794   1.472  0.00  0.00    +0.076 C 
ATOM     11  C   UNL     1     -37.465  22.466   2.291  0.00  0.00    +0.048 C 
ATOM     12  C   UNL     1     -37.969  20.574   0.747  0.00  0.00    +0.202 C 
ATOM     13  C   UNL     1     -36.083  21.966   2.443  0.00  0.00    +0.196 C 
ATOM     14  C   UNL     1     -32.653  18.604   1.301  0.00  0.00    +0.037 C 
ATOM     15  C   UNL     1     -33.166  16.781  -0.196  0.00  0.00    +0.105 C 
ATOM     16  C   UNL     1     -32.260  17.451   0.620  0.00  0.00    +0.140 C 
ATOM     17  C   UNL     1     -39.680  22.280   1.334  0.00  0.00    +0.140 C 
ATOM     18  C   UNL     1     -37.861  23.622   2.973  0.00  0.00    +0.040 C 
ATOM     19  C   UNL     1     -35.374  16.471  -1.234  0.00  0.00    +0.031 C 
ATOM     20  C   UNL     1     -39.164  24.102   2.834  0.00  0.00    +0.142 C 
ATOM     21  C   UNL     1     -40.071  23.432   2.016  0.00  0.00    +0.074 C 
ENDROOT
BRANCH   7  22
ATOM     22  O   UNL     1     -37.094  18.271  -0.579  0.00  0.00    -0.505 OA
ATOM     23  H   UNL     1     -36.998  17.355  -0.751  0.00  0.00    +0.292 HD
ENDBRANCH   7  22
BRANCH  16  24
ATOM     24  O   UNL     1     -30.982  17.001   0.769  0.00  0.00    -0.505 OA
ATOM     25  H   UNL     1     -30.339  17.190   0.113  0.00  0.00    +0.292 HD
ENDBRANCH  16  24
BRANCH  17  26
ATOM     26  O   UNL     1     -40.620  21.677   0.552  0.00  0.00    -0.505 OA
ATOM     27  H   UNL     1     -41.064  20.911   0.859  0.00  0.00    +0.292 HD
ENDBRANCH  17  26
BRANCH  20  28
ATOM     28  O   UNL     1     -39.548  25.227   3.497  0.00  0.00    -0.471 OA
ATOM     29  C   UNL     1     -40.694  25.915   2.998  0.00  0.00    +0.252 C 
ENDBRANCH  20  28
BRANCH  15  31
ATOM     30  O   UNL     1     -32.530  15.497  -2.112  0.00  0.00    -0.245 OA
ATOM     31  C   UNL     1     -32.732  15.577  -0.899  0.00  0.00    +0.341 C 
BRANCH  31  32
ATOM     32  O   UNL     1     -32.567  14.522  -0.058  0.00  0.00    -0.477 OA
ATOM     33  H   UNL     1     -31.705  14.235   0.168  0.00  0.00    +0.295 HD
ENDBRANCH  31  32
ENDBRANCH  15  31
TORSDOF 6
ENDMDL
MODEL 8
REMARK VINA RESULT:      -6.4      5.608     11.431
REMARK  Name = 195205
REMARK  6 active torsions:
REMARK  status: ('A' for Active; 'I' for Inactive)
REMARK    1  A    between atoms: C_7  and  O_22
REMARK    2  A    between atoms: C_15  and  C_31
REMARK    3  A    between atoms: C_16  and  O_24
REMARK    4  A    between atoms: C_17  and  O_26
REMARK    5  A    between atoms: C_20  and  O_28
REMARK    6  A    between atoms: C_31  and  O_32
REMARK                            x       y       z     vdW  Elec       q    Type
REMARK                         _______ _______ _______ _____ _____    ______ ____
ROOT
ATOM      1  O   UNL     1     -35.081  19.350   1.286  0.00  0.00    -0.286 OA
ATOM      2  O   UNL     1     -40.028  20.355  -0.465  0.00  0.00    -0.287 OA
ATOM      3  C   UNL     1     -36.918  20.827   1.287  0.00  0.00    +0.076 C 
ATOM      4  C   UNL     1     -36.923  22.930   2.522  0.00  0.00    +0.030 C 
ATOM      5  C   UNL     1     -38.208  21.087   0.829  0.00  0.00    +0.045 C 
ATOM      6  C   UNL     1     -38.232  23.192   2.057  0.00  0.00    +0.006 C 
ATOM      7  C   UNL     1     -36.278  21.744   2.131  0.00  0.00    +0.136 C 
ATOM      8  C   UNL     1     -38.863  22.264   1.212  0.00  0.00    +0.004 C 
ATOM      9  C   UNL     1     -36.295  23.860   3.366  0.00  0.00    -0.010 C 
ATOM     10  C   UNL     1     -36.901  18.629   0.001  0.00  0.00    +0.076 C 
ATOM     11  C   UNL     1     -38.193  18.888  -0.457  0.00  0.00    +0.048 C 
ATOM     12  C   UNL     1     -36.216  19.588   0.891  0.00  0.00    +0.202 C 
ATOM     13  C   UNL     1     -38.894  20.127  -0.061  0.00  0.00    +0.196 C 
ATOM     14  C   UNL     1     -38.875  24.378   2.449  0.00  0.00    +0.037 C 
ATOM     15  C   UNL     1     -36.948  25.033   3.747  0.00  0.00    +0.105 C 
ATOM     16  C   UNL     1     -38.237  25.291   3.289  0.00  0.00    +0.140 C 
ATOM     17  C   UNL     1     -36.245  17.453  -0.383  0.00  0.00    +0.140 C 
ATOM     18  C   UNL     1     -38.832  17.971  -1.300  0.00  0.00    +0.040 C 
ATOM     19  C   UNL     1     -34.908  23.669   3.911  0.00  0.00    +0.031 C 
ATOM     20  C   UNL     1     -38.177  16.800  -1.681  0.00  0.00    +0.142 C 
ATOM     21  C   UNL     1     -36.886  16.541  -1.223  0.00  0.00    +0.074 C 
ENDROOT
BRANCH   7  22
ATOM     22  O   UNL     1     -35.013  21.473   2.571  0.00  0.00    -0.505 OA
ATOM     23  H   UNL     1     -34.507  22.144   2.985  0.00  0.00    +0.292 HD
ENDBRANCH   7  22
BRANCH  16  24
ATOM     24  O   UNL     1     -38.894  26.430   3.647  0.00  0.00    -0.505 OA
ATOM     25  H   UNL     1     -38.599  26.930   4.383  0.00  0.00    +0.292 HD
ENDBRANCH  16  24
BRANCH  17  26
ATOM     26  O   UNL     1     -34.985  17.135   0.025  0.00  0.00    -0.505 OA
ATOM     27  H   UNL     1     -34.243  17.502  -0.415  0.00  0.00    +0.292 HD
ENDBRANCH  17  26
BRANCH  20  28
ATOM     28  O   UNL     1     -38.799  15.909  -2.501  0.00  0.00    -0.471 OA
ATOM     29  C   UNL     1     -39.341  14.737  -1.893  0.00  0.00    +0.252 C 
ENDBRANCH  20  28
BRANCH  15  31
ATOM     30  O   UNL     1     -36.127  25.859   5.837  0.00  0.00    -0.245 OA
ATOM     31  C   UNL     1     -36.300  26.002   4.625  0.00  0.00    +0.341 C 
BRANCH  31  32
ATOM     32  O   UNL     1     -35.890  27.111   3.954  0.00  0.00    -0.477 OA
ATOM     33  H   UNL     1     -35.004  27.177   3.656  0.00  0.00    +0.295 HD
ENDBRANCH  31  32
ENDBRANCH  15  31
TORSDOF 6
ENDMDL
MODEL 9
REMARK VINA RESULT:      -6.3     11.550     15.206
REMARK  Name = 195205
REMARK  6 active torsions:
REMARK  status: ('A' for Active; 'I' for Inactive)
REMARK    1  A    between atoms: C_7  and  O_22
REMARK    2  A    between atoms: C_15  and  C_31
REMARK    3  A    between atoms: C_16  and  O_24
REMARK    4  A    between atoms: C_17  and  O_26
REMARK    5  A    between atoms: C_20  and  O_28
REMARK    6  A    between atoms: C_31  and  O_32
REMARK                            x       y       z     vdW  Elec       q    Type
REMARK                         _______ _______ _______ _____ _____    ______ ____
ROOT
ATOM      1  O   UNL     1     -48.003  24.353   5.906  0.00  0.00    -0.286 OA
ATOM      2  O   UNL     1     -44.922  25.499   1.694  0.00  0.00    -0.287 OA
ATOM      3  C   UNL     1     -46.412  25.810   4.957  0.00  0.00    +0.076 C 
ATOM      4  C   UNL     1     -45.554  27.771   6.125  0.00  0.00    +0.030 C 
ATOM      5  C   UNL     1     -45.609  26.106   3.858  0.00  0.00    +0.045 C 
ATOM      6  C   UNL     1     -44.740  28.072   5.008  0.00  0.00    +0.006 C 
ATOM      7  C   UNL     1     -46.385  26.639   6.086  0.00  0.00    +0.136 C 
ATOM      8  C   UNL     1     -44.777  27.233   3.883  0.00  0.00    +0.004 C 
ATOM      9  C   UNL     1     -45.516  28.612   7.249  0.00  0.00    -0.010 C 
ATOM     10  C   UNL     1     -47.314  23.758   3.748  0.00  0.00    +0.076 C 
ATOM     11  C   UNL     1     -46.511  24.055   2.646  0.00  0.00    +0.048 C 
ATOM     12  C   UNL     1     -47.295  24.624   4.944  0.00  0.00    +0.202 C 
ATOM     13  C   UNL     1     -45.628  25.240   2.661  0.00  0.00    +0.196 C 
ATOM     14  C   UNL     1     -43.910  29.205   5.049  0.00  0.00    +0.037 C 
ATOM     15  C   UNL     1     -44.685  29.734   7.273  0.00  0.00    +0.105 C 
ATOM     16  C   UNL     1     -43.884  30.029   6.174  0.00  0.00    +0.140 C 
ATOM     17  C   UNL     1     -48.145  22.631   3.724  0.00  0.00    +0.140 C 
ATOM     18  C   UNL     1     -46.538  23.227   1.519  0.00  0.00    +0.040 C 
ATOM     19  C   UNL     1     -46.343  28.376   8.481  0.00  0.00    +0.031 C 
ATOM     20  C   UNL     1     -47.368  22.105   1.497  0.00  0.00    +0.142 C 
ATOM     21  C   UNL     1     -48.169  21.808   2.598  0.00  0.00    +0.074 C 
ENDROOT
BRANCH   7  22
ATOM     22  O   UNL     1     -47.179  26.333   7.156  0.00  0.00    -0.505 OA
ATOM     23  H   UNL     1     -46.919  25.662   7.756  0.00  0.00    +0.292 HD
ENDBRANCH   7  22
BRANCH  16  24
ATOM     24  O   UNL     1     -43.065  31.119   6.174  0.00  0.00    -0.505 OA
ATOM     25  H   UNL     1     -43.361  31.926   6.548  0.00  0.00    +0.292 HD
ENDBRANCH  16  24
BRANCH  17  26
ATOM     26  O   UNL     1     -48.954  22.279   4.763  0.00  0.00    -0.505 OA
ATOM     27  H   UNL     1     -49.825  21.976   4.597  0.00  0.00    +0.292 HD
ENDBRANCH  17  26
BRANCH  20  28
ATOM     28  O   UNL     1     -47.393  21.299   0.400  0.00  0.00    -0.471 OA
ATOM     29  C   UNL     1     -46.381  20.298   0.308  0.00  0.00    +0.252 C 
ENDBRANCH  20  28
BRANCH  15  31
ATOM     30  O   UNL     1     -45.615  31.185   8.933  0.00  0.00    -0.245 OA
ATOM     31  C   UNL     1     -44.642  30.611   8.439  0.00  0.00    +0.341 C 
BRANCH  31  32
ATOM     32  O   UNL     1     -43.386  30.734   8.943  0.00  0.00    -0.477 OA
ATOM     33  H   UNL     1     -42.779  31.327   8.546  0.00  0.00    +0.295 HD
ENDBRANCH  31  32
ENDBRANCH  15  31
TORSDOF 6
ENDMDL
