MODEL 1
REMARK VINA RESULT:      -5.8      0.000      0.000
REMARK  Name = 195215
REMARK  5 active torsions:
REMARK  status: ('A' for Active; 'I' for Inactive)
REMARK    1  A    between atoms: CA_6  and  C_23
REMARK    2  A    between atoms: CA_7  and  N_12
REMARK    3  A    between atoms: C_13  and  C_15
REMARK    4  A    between atoms: C_15  and  N_16
REMARK    5  A    between atoms: C_23  and  O_24
REMARK                            x       y       z     vdW  Elec       q    Type
REMARK                         _______ _______ _______ _____ _____    ______ ____
ROOT
ATOM      1  S   UNL     1     -34.838  23.194   1.821  0.00  0.00    -0.118 S 
ATOM      2  O   UNL     1     -37.668  25.137   4.550  0.00  0.00    -0.273 OA
ATOM      3  N   UNL     1     -37.246  23.919   2.574  0.00  0.00    -0.260 N 
ATOM      4  C   UNL     1     -36.196  24.419   1.684  0.00  0.00    +0.151 C 
ATOM      5  C   UNL     1     -35.791  22.053   2.941  0.00  0.00    +0.068 C 
ATOM      6  CA  UNL     1     -37.267  22.510   2.893  0.00  0.00    +0.184 C 
ATOM      7  CA  UNL     1     -36.093  25.645   2.607  0.00  0.00    +0.178 C 
ATOM      8  C   UNL     1     -37.168  24.949   3.465  0.00  0.00    +0.247 C 
ATOM      9  C   UNL     1     -35.576  20.607   2.484  0.00  0.00    +0.013 C 
ATOM     10  C   UNL     1     -35.218  22.219   4.359  0.00  0.00    +0.013 C 
ENDROOT
BRANCH   7  12
ATOM     11  O   UNL     1     -34.954  28.176   3.427  0.00  0.00    -0.277 OA
ATOM     12  N   UNL     1     -34.820  25.863   3.306  0.00  0.00    -0.298 N 
ATOM     13  C   UNL     1     -34.353  27.132   3.661  0.00  0.00    +0.202 C 
ATOM     14  H   UNL     1     -34.270  25.079   3.535  0.00  0.00    +0.150 HD
BRANCH  13  15
ATOM     15  C   UNL     1     -33.019  27.064   4.376  0.00  0.00    +0.010 C 
BRANCH  15  16
ATOM     16  N   UNL     1     -32.850  28.257   5.192  0.00  0.00    +0.393 N 
ATOM     17  C   UNL     1     -32.075  29.294   4.512  0.00  0.00    -0.077 C 
ATOM     18  C   UNL     1     -32.120  27.988   6.430  0.00  0.00    -0.077 C 
ATOM     19  C   UNL     1     -31.701  30.238   5.644  0.00  0.00    -0.025 C 
ATOM     20  C   UNL     1     -31.727  29.379   6.904  0.00  0.00    -0.025 C 
ATOM     21  H   UNL     1     -33.804  28.566   5.380  0.00  0.00    -0.079 HD
ENDBRANCH  15  16
ENDBRANCH  13  15
ENDBRANCH   7  12
BRANCH   6  23
ATOM     22  OXT UNL     1     -37.989  22.174   0.611  0.00  0.00    -0.248 OA
ATOM     23  C   UNL     1     -38.094  21.906   1.798  0.00  0.00    +0.333 C 
BRANCH  23  24
ATOM     24  O   UNL     1     -38.985  21.021   2.306  0.00  0.00    -0.479 OA
ATOM     25  H   UNL     1     -39.899  21.227   2.314  0.00  0.00    +0.295 HD
ENDBRANCH  23  24
ENDBRANCH   6  23
TORSDOF 5
ENDMDL
MODEL 2
REMARK VINA RESULT:      -5.8      3.132      4.128
REMARK  Name = 195215
REMARK  5 active torsions:
REMARK  status: ('A' for Active; 'I' for Inactive)
REMARK    1  A    between atoms: CA_6  and  C_23
REMARK    2  A    between atoms: CA_7  and  N_12
REMARK    3  A    between atoms: C_13  and  C_15
REMARK    4  A    between atoms: C_15  and  N_16
REMARK    5  A    between atoms: C_23  and  O_24
REMARK                            x       y       z     vdW  Elec       q    Type
REMARK                         _______ _______ _______ _____ _____    ______ ____
ROOT
ATOM      1  S   UNL     1     -37.337  24.861   3.721  0.00  0.00    -0.118 S 
ATOM      2  O   UNL     1     -32.993  25.382   4.011  0.00  0.00    -0.273 OA
ATOM      3  N   UNL     1     -34.989  24.405   4.801  0.00  0.00    -0.260 N 
ATOM      4  C   UNL     1     -36.130  25.292   5.032  0.00  0.00    +0.151 C 
ATOM      5  C   UNL     1     -36.310  23.467   3.039  0.00  0.00    +0.068 C 
ATOM      6  CA  UNL     1     -35.209  23.170   4.082  0.00  0.00    +0.184 C 
ATOM      7  CA  UNL     1     -35.190  26.469   4.722  0.00  0.00    +0.178 C 
ATOM      8  C   UNL     1     -34.116  25.395   4.460  0.00  0.00    +0.247 C 
ATOM      9  C   UNL     1     -37.221  22.271   2.744  0.00  0.00    +0.013 C 
ATOM     10  C   UNL     1     -35.690  23.958   1.719  0.00  0.00    +0.013 C 
ENDROOT
BRANCH   7  12
ATOM     11  O   UNL     1     -33.757  28.806   3.794  0.00  0.00    -0.277 OA
ATOM     12  N   UNL     1     -35.504  27.298   3.551  0.00  0.00    -0.298 N 
ATOM     13  C   UNL     1     -34.747  28.414   3.182  0.00  0.00    +0.202 C 
ATOM     14  H   UNL     1     -36.283  27.056   3.000  0.00  0.00    +0.150 HD
BRANCH  13  15
ATOM     15  C   UNL     1     -35.289  29.078   1.934  0.00  0.00    +0.010 C 
BRANCH  15  16
ATOM     16  N   UNL     1     -35.288  30.522   2.118  0.00  0.00    +0.393 N 
ATOM     17  C   UNL     1     -36.495  31.153   1.585  0.00  0.00    -0.077 C 
ATOM     18  C   UNL     1     -34.180  31.172   1.420  0.00  0.00    -0.077 C 
ATOM     19  C   UNL     1     -36.112  32.624   1.528  0.00  0.00    -0.025 C 
ATOM     20  C   UNL     1     -34.591  32.637   1.416  0.00  0.00    -0.025 C 
ATOM     21  H   UNL     1     -35.217  30.642   3.128  0.00  0.00    -0.079 HD
ENDBRANCH  15  16
ENDBRANCH  13  15
ENDBRANCH   7  12
BRANCH   6  23
ATOM     22  OXT UNL     1     -36.097  22.484   6.222  0.00  0.00    -0.248 OA
ATOM     23  C   UNL     1     -35.582  22.192   5.154  0.00  0.00    +0.333 C 
BRANCH  23  24
ATOM     24  O   UNL     1     -35.264  20.929   4.778  0.00  0.00    -0.479 OA
ATOM     25  H   UNL     1     -35.325  20.226   5.396  0.00  0.00    +0.295 HD
ENDBRANCH  23  24
ENDBRANCH   6  23
TORSDOF 5
ENDMDL
MODEL 3
REMARK VINA RESULT:      -5.8      1.663      2.048
REMARK  Name = 195215
REMARK  5 active torsions:
REMARK  status: ('A' for Active; 'I' for Inactive)
REMARK    1  A    between atoms: CA_6  and  C_23
REMARK    2  A    between atoms: CA_7  and  N_12
REMARK    3  A    between atoms: C_13  and  C_15
REMARK    4  A    between atoms: C_15  and  N_16
REMARK    5  A    between atoms: C_23  and  O_24
REMARK                            x       y       z     vdW  Elec       q    Type
REMARK                         _______ _______ _______ _____ _____    ______ ____
ROOT
ATOM      1  S   UNL     1     -36.778  25.473   1.870  0.00  0.00    -0.118 S 
ATOM      2  O   UNL     1     -35.106  23.112   5.165  0.00  0.00    -0.273 OA
ATOM      3  N   UNL     1     -36.921  23.657   3.759  0.00  0.00    -0.260 N 
ATOM      4  C   UNL     1     -37.247  25.075   3.596  0.00  0.00    +0.151 C 
ATOM      5  C   UNL     1     -36.300  23.724   1.447  0.00  0.00    +0.068 C 
ATOM      6  CA  UNL     1     -36.849  22.825   2.579  0.00  0.00    +0.184 C 
ATOM      7  CA  UNL     1     -36.186  25.371   4.669  0.00  0.00    +0.178 C 
ATOM      8  C   UNL     1     -35.927  23.852   4.672  0.00  0.00    +0.247 C 
ATOM      9  C   UNL     1     -36.847  23.375   0.059  0.00  0.00    +0.013 C 
ATOM     10  C   UNL     1     -34.763  23.667   1.406  0.00  0.00    +0.013 C 
ENDROOT
BRANCH   7  12
ATOM     11  O   UNL     1     -34.033  26.306   6.362  0.00  0.00    -0.277 OA
ATOM     12  N   UNL     1     -35.023  26.174   4.268  0.00  0.00    -0.298 N 
ATOM     13  C   UNL     1     -34.030  26.579   5.166  0.00  0.00    +0.202 C 
ATOM     14  H   UNL     1     -34.938  26.439   3.324  0.00  0.00    +0.150 HD
BRANCH  13  15
ATOM     15  C   UNL     1     -32.947  27.389   4.484  0.00  0.00    +0.010 C 
BRANCH  15  16
ATOM     16  N   UNL     1     -32.764  28.644   5.197  0.00  0.00    +0.393 N 
ATOM     17  C   UNL     1     -32.290  29.717   4.325  0.00  0.00    -0.077 C 
ATOM     18  C   UNL     1     -31.759  28.543   6.255  0.00  0.00    -0.077 C 
ATOM     19  C   UNL     1     -31.808  30.770   5.311  0.00  0.00    -0.025 C 
ATOM     20  C   UNL     1     -31.457  29.998   6.579  0.00  0.00    -0.025 C 
ATOM     21  H   UNL     1     -33.688  28.850   5.577  0.00  0.00    -0.079 HD
ENDBRANCH  15  16
ENDBRANCH  13  15
ENDBRANCH   7  12
BRANCH   6  23
ATOM     22  OXT UNL     1     -39.244  23.058   2.359  0.00  0.00    -0.248 OA
ATOM     23  C   UNL     1     -38.255  22.342   2.394  0.00  0.00    +0.333 C 
BRANCH  23  24
ATOM     24  O   UNL     1     -38.285  20.992   2.275  0.00  0.00    -0.479 OA
ATOM     25  H   UNL     1     -38.877  20.488   2.797  0.00  0.00    +0.295 HD
ENDBRANCH  23  24
ENDBRANCH   6  23
TORSDOF 5
ENDMDL
MODEL 4
REMARK VINA RESULT:      -5.6      2.883      4.547
REMARK  Name = 195215
REMARK  5 active torsions:
REMARK  status: ('A' for Active; 'I' for Inactive)
REMARK    1  A    between atoms: CA_6  and  C_23
REMARK    2  A    between atoms: CA_7  and  N_12
REMARK    3  A    between atoms: C_13  and  C_15
REMARK    4  A    between atoms: C_15  and  N_16
REMARK    5  A    between atoms: C_23  and  O_24
REMARK                            x       y       z     vdW  Elec       q    Type
REMARK                         _______ _______ _______ _____ _____    ______ ____
ROOT
ATOM      1  S   UNL     1     -37.335  24.886   3.803  0.00  0.00    -0.118 S 
ATOM      2  O   UNL     1     -32.977  25.340   3.977  0.00  0.00    -0.273 OA
ATOM      3  N   UNL     1     -34.961  24.356   4.790  0.00  0.00    -0.260 N 
ATOM      4  C   UNL     1     -36.083  25.248   5.092  0.00  0.00    +0.151 C 
ATOM      5  C   UNL     1     -36.349  23.507   3.033  0.00  0.00    +0.068 C 
ATOM      6  CA  UNL     1     -35.220  23.155   4.029  0.00  0.00    +0.184 C 
ATOM      7  CA  UNL     1     -35.136  26.424   4.800  0.00  0.00    +0.178 C 
ATOM      8  C   UNL     1     -34.085  25.349   4.462  0.00  0.00    +0.247 C 
ATOM      9  C   UNL     1     -37.285  22.336   2.719  0.00  0.00    +0.013 C 
ATOM     10  C   UNL     1     -35.763  24.044   1.716  0.00  0.00    +0.013 C 
ENDROOT
BRANCH   7  12
ATOM     11  O   UNL     1     -33.635  28.708   3.847  0.00  0.00    -0.277 OA
ATOM     12  N   UNL     1     -35.474  27.304   3.674  0.00  0.00    -0.298 N 
ATOM     13  C   UNL     1     -34.681  28.389   3.289  0.00  0.00    +0.202 C 
ATOM     14  H   UNL     1     -36.298  27.121   3.166  0.00  0.00    +0.150 HD
BRANCH  13  15
ATOM     15  C   UNL     1     -35.260  29.118   2.095  0.00  0.00    +0.010 C 
BRANCH  15  16
ATOM     16  N   UNL     1     -35.573  28.156   1.049  0.00  0.00    +0.393 N 
ATOM     17  C   UNL     1     -34.388  27.741   0.300  0.00  0.00    -0.077 C 
ATOM     18  C   UNL     1     -36.486  28.702   0.044  0.00  0.00    -0.077 C 
ATOM     19  C   UNL     1     -34.981  27.080  -0.935  0.00  0.00    -0.025 C 
ATOM     20  C   UNL     1     -36.358  27.713  -1.105  0.00  0.00    -0.025 C 
ATOM     21  H   UNL     1     -35.993  27.373   1.550  0.00  0.00    -0.079 HD
ENDBRANCH  15  16
ENDBRANCH  13  15
ENDBRANCH   7  12
BRANCH   6  23
ATOM     22  OXT UNL     1     -36.068  22.392   6.159  0.00  0.00    -0.248 OA
ATOM     23  C   UNL     1     -35.574  22.138   5.071  0.00  0.00    +0.333 C 
BRANCH  23  24
ATOM     24  O   UNL     1     -35.264  20.890   4.645  0.00  0.00    -0.479 OA
ATOM     25  H   UNL     1     -35.059  20.739   3.742  0.00  0.00    +0.295 HD
ENDBRANCH  23  24
ENDBRANCH   6  23
TORSDOF 5
ENDMDL
MODEL 5
REMARK VINA RESULT:      -5.6      2.032      2.653
REMARK  Name = 195215
REMARK  5 active torsions:
REMARK  status: ('A' for Active; 'I' for Inactive)
REMARK    1  A    between atoms: CA_6  and  C_23
REMARK    2  A    between atoms: CA_7  and  N_12
REMARK    3  A    between atoms: C_13  and  C_15
REMARK    4  A    between atoms: C_15  and  N_16
REMARK    5  A    between atoms: C_23  and  O_24
REMARK                            x       y       z     vdW  Elec       q    Type
REMARK                         _______ _______ _______ _____ _____    ______ ____
ROOT
ATOM      1  S   UNL     1     -33.839  25.365   4.053  0.00  0.00    -0.118 S 
ATOM      2  O   UNL     1     -37.418  27.045   2.157  0.00  0.00    -0.273 OA
ATOM      3  N   UNL     1     -35.926  25.244   2.467  0.00  0.00    -0.260 N 
ATOM      4  C   UNL     1     -34.494  25.526   2.349  0.00  0.00    +0.151 C 
ATOM      5  C   UNL     1     -35.466  24.823   4.778  0.00  0.00    +0.068 C 
ATOM      6  CA  UNL     1     -36.385  24.459   3.590  0.00  0.00    +0.184 C 
ATOM      7  CA  UNL     1     -34.880  26.947   1.906  0.00  0.00    +0.178 C 
ATOM      8  C   UNL     1     -36.337  26.502   2.137  0.00  0.00    +0.247 C 
ATOM      9  C   UNL     1     -35.221  23.663   5.749  0.00  0.00    +0.013 C 
ATOM     10  C   UNL     1     -36.038  26.016   5.562  0.00  0.00    +0.013 C 
ENDROOT
BRANCH   7  12
ATOM     11  O   UNL     1     -32.652  28.741   1.465  0.00  0.00    -0.277 OA
ATOM     12  N   UNL     1     -34.453  28.063   2.761  0.00  0.00    -0.298 N 
ATOM     13  C   UNL     1     -33.357  28.877   2.461  0.00  0.00    +0.202 C 
ATOM     14  H   UNL     1     -34.963  28.246   3.583  0.00  0.00    +0.150 HD
BRANCH  13  15
ATOM     15  C   UNL     1     -33.147  29.951   3.507  0.00  0.00    +0.010 C 
BRANCH  15  16
ATOM     16  N   UNL     1     -32.620  29.345   4.720  0.00  0.00    +0.393 N 
ATOM     17  C   UNL     1     -32.265  30.339   5.733  0.00  0.00    -0.077 C 
ATOM     18  C   UNL     1     -31.388  28.593   4.479  0.00  0.00    -0.077 C 
ATOM     19  C   UNL     1     -31.406  29.544   6.704  0.00  0.00    -0.025 C 
ATOM     20  C   UNL     1     -30.827  28.399   5.879  0.00  0.00    -0.025 C 
ATOM     21  H   UNL     1     -33.373  28.737   5.041  0.00  0.00    -0.079 HD
ENDBRANCH  15  16
ENDBRANCH  13  15
ENDBRANCH   7  12
BRANCH   6  23
ATOM     22  OXT UNL     1     -35.321  22.570   2.523  0.00  0.00    -0.248 OA
ATOM     23  C   UNL     1     -36.284  23.045   3.105  0.00  0.00    +0.333 C 
BRANCH  23  24
ATOM     24  O   UNL     1     -37.415  22.358   3.397  0.00  0.00    -0.479 OA
ATOM     25  H   UNL     1     -37.657  22.211   4.291  0.00  0.00    +0.295 HD
ENDBRANCH  23  24
ENDBRANCH   6  23
TORSDOF 5
ENDMDL
MODEL 6
REMARK VINA RESULT:      -5.4      2.385      3.274
REMARK  Name = 195215
REMARK  5 active torsions:
REMARK  status: ('A' for Active; 'I' for Inactive)
REMARK    1  A    between atoms: CA_6  and  C_23
REMARK    2  A    between atoms: CA_7  and  N_12
REMARK    3  A    between atoms: C_13  and  C_15
REMARK    4  A    between atoms: C_15  and  N_16
REMARK    5  A    between atoms: C_23  and  O_24
REMARK                            x       y       z     vdW  Elec       q    Type
REMARK                         _______ _______ _______ _____ _____    ______ ____
ROOT
ATOM      1  S   UNL     1     -38.309  25.160   1.367  0.00  0.00    -0.118 S 
ATOM      2  O   UNL     1     -35.555  22.548   3.563  0.00  0.00    -0.273 OA
ATOM      3  N   UNL     1     -37.741  23.065   2.842  0.00  0.00    -0.260 N 
ATOM      4  C   UNL     1     -38.214  24.435   3.048  0.00  0.00    +0.151 C 
ATOM      5  C   UNL     1     -37.839  23.578   0.506  0.00  0.00    +0.068 C 
ATOM      6  CA  UNL     1     -37.955  22.447   1.553  0.00  0.00    +0.184 C 
ATOM      7  CA  UNL     1     -36.911  24.695   3.822  0.00  0.00    +0.178 C 
ATOM      8  C   UNL     1     -36.541  23.242   3.466  0.00  0.00    +0.247 C 
ATOM      9  C   UNL     1     -38.741  23.385  -0.717  0.00  0.00    +0.013 C 
ATOM     10  C   UNL     1     -36.383  23.731   0.032  0.00  0.00    +0.013 C 
ENDROOT
BRANCH   7  12
ATOM     11  O   UNL     1     -35.372  26.651   5.300  0.00  0.00    -0.277 OA
ATOM     12  N   UNL     1     -35.987  25.698   3.275  0.00  0.00    -0.298 N 
ATOM     13  C   UNL     1     -35.286  26.604   4.076  0.00  0.00    +0.202 C 
ATOM     14  H   UNL     1     -35.855  25.733   2.301  0.00  0.00    +0.150 HD
BRANCH  13  15
ATOM     15  C   UNL     1     -34.400  27.518   3.254  0.00  0.00    +0.010 C 
BRANCH  15  16
ATOM     16  N   UNL     1     -34.990  28.848   3.211  0.00  0.00    +0.393 N 
ATOM     17  C   UNL     1     -35.732  29.089   1.974  0.00  0.00    -0.077 C 
ATOM     18  C   UNL     1     -33.982  29.907   3.262  0.00  0.00    -0.077 C 
ATOM     19  C   UNL     1     -35.909  30.600   1.973  0.00  0.00    -0.025 C 
ATOM     20  C   UNL     1     -34.758  31.137   2.817  0.00  0.00    -0.025 C 
ATOM     21  H   UNL     1     -35.602  28.874   4.026  0.00  0.00    -0.079 HD
ENDBRANCH  15  16
ENDBRANCH  13  15
ENDBRANCH   7  12
BRANCH   6  23
ATOM     22  OXT UNL     1     -40.285  22.348   2.187  0.00  0.00    -0.248 OA
ATOM     23  C   UNL     1     -39.309  21.819   1.676  0.00  0.00    +0.333 C 
BRANCH  23  24
ATOM     24  O   UNL     1     -39.307  20.572   1.144  0.00  0.00    -0.479 OA
ATOM     25  H   UNL     1     -40.117  20.129   0.982  0.00  0.00    +0.295 HD
ENDBRANCH  23  24
ENDBRANCH   6  23
TORSDOF 5
ENDMDL
MODEL 7
REMARK VINA RESULT:      -5.3      2.712      7.205
REMARK  Name = 195215
REMARK  5 active torsions:
REMARK  status: ('A' for Active; 'I' for Inactive)
REMARK    1  A    between atoms: CA_6  and  C_23
REMARK    2  A    between atoms: CA_7  and  N_12
REMARK    3  A    between atoms: C_13  and  C_15
REMARK    4  A    between atoms: C_15  and  N_16
REMARK    5  A    between atoms: C_23  and  O_24
REMARK                            x       y       z     vdW  Elec       q    Type
REMARK                         _______ _______ _______ _____ _____    ______ ____
ROOT
ATOM      1  S   UNL     1     -34.112  24.567   1.944  0.00  0.00    -0.118 S 
ATOM      2  O   UNL     1     -37.997  24.627   3.976  0.00  0.00    -0.273 OA
ATOM      3  N   UNL     1     -35.790  25.434   3.765  0.00  0.00    -0.260 N 
ATOM      4  C   UNL     1     -34.715  24.445   3.671  0.00  0.00    +0.151 C 
ATOM      5  C   UNL     1     -35.230  25.988   1.505  0.00  0.00    +0.068 C 
ATOM      6  CA  UNL     1     -35.796  26.539   2.833  0.00  0.00    +0.184 C 
ATOM      7  CA  UNL     1     -35.777  23.366   3.939  0.00  0.00    +0.178 C 
ATOM      8  C   UNL     1     -36.791  24.527   3.950  0.00  0.00    +0.247 C 
ATOM      9  C   UNL     1     -34.436  27.019   0.696  0.00  0.00    +0.013 C 
ATOM     10  C   UNL     1     -36.360  25.427   0.624  0.00  0.00    +0.013 C 
ENDROOT
BRANCH   7  12
ATOM     11  O   UNL     1     -35.151  20.541   4.014  0.00  0.00    -0.277 OA
ATOM     12  N   UNL     1     -36.018  22.373   2.883  0.00  0.00    -0.298 N 
ATOM     13  C   UNL     1     -35.677  21.024   3.015  0.00  0.00    +0.202 C 
ATOM     14  H   UNL     1     -36.438  22.672   2.045  0.00  0.00    +0.150 HD
BRANCH  13  15
ATOM     15  C   UNL     1     -36.042  20.225   1.781  0.00  0.00    +0.010 C 
BRANCH  15  16
ATOM     16  N   UNL     1     -34.893  19.437   1.361  0.00  0.00    +0.393 N 
ATOM     17  C   UNL     1     -33.765  20.271   0.947  0.00  0.00    -0.077 C 
ATOM     18  C   UNL     1     -35.187  18.595   0.202  0.00  0.00    -0.077 C 
ATOM     19  C   UNL     1     -32.869  19.289   0.207  0.00  0.00    -0.025 C 
ATOM     20  C   UNL     1     -33.804  18.189  -0.285  0.00  0.00    -0.025 C 
ATOM     21  H   UNL     1     -34.663  18.877   2.182  0.00  0.00    -0.079 HD
ENDBRANCH  15  16
ENDBRANCH  13  15
ENDBRANCH   7  12
BRANCH   6  23
ATOM     22  OXT UNL     1     -33.981  27.355   4.205  0.00  0.00    -0.248 OA
ATOM     23  C   UNL     1     -34.958  27.582   3.508  0.00  0.00    +0.333 C 
BRANCH  23  24
ATOM     24  O   UNL     1     -35.436  28.823   3.244  0.00  0.00    -0.479 OA
ATOM     25  H   UNL     1     -34.851  29.554   3.213  0.00  0.00    +0.295 HD
ENDBRANCH  23  24
ENDBRANCH   6  23
TORSDOF 5
ENDMDL
MODEL 8
REMARK VINA RESULT:      -5.3      2.541      4.108
REMARK  Name = 195215
REMARK  5 active torsions:
REMARK  status: ('A' for Active; 'I' for Inactive)
REMARK    1  A    between atoms: CA_6  and  C_23
REMARK    2  A    between atoms: CA_7  and  N_12
REMARK    3  A    between atoms: C_13  and  C_15
REMARK    4  A    between atoms: C_15  and  N_16
REMARK    5  A    between atoms: C_23  and  O_24
REMARK                            x       y       z     vdW  Elec       q    Type
REMARK                         _______ _______ _______ _____ _____    ______ ____
ROOT
ATOM      1  S   UNL     1     -36.677  22.210  -0.083  0.00  0.00    -0.118 S 
ATOM      2  O   UNL     1     -35.247  20.788   3.811  0.00  0.00    -0.273 OA
ATOM      3  N   UNL     1     -36.380  20.387   1.781  0.00  0.00    -0.260 N 
ATOM      4  C   UNL     1     -37.397  21.357   1.371  0.00  0.00    +0.151 C 
ATOM      5  C   UNL     1     -35.147  21.152  -0.123  0.00  0.00    +0.068 C 
ATOM      6  CA  UNL     1     -35.415  19.942   0.801  0.00  0.00    +0.184 C 
ATOM      7  CA  UNL     1     -37.187  22.046   2.730  0.00  0.00    +0.178 C 
ATOM      8  C   UNL     1     -36.103  20.980   2.977  0.00  0.00    +0.247 C 
ATOM      9  C   UNL     1     -34.841  20.767  -1.574  0.00  0.00    +0.013 C 
ATOM     10  C   UNL     1     -33.986  22.003   0.422  0.00  0.00    +0.013 C 
ENDROOT
BRANCH   7  12
ATOM     11  O   UNL     1     -38.514  24.413   3.738  0.00  0.00    -0.277 OA
ATOM     12  N   UNL     1     -36.678  23.425   2.719  0.00  0.00    -0.298 N 
ATOM     13  C   UNL     1     -37.399  24.507   3.233  0.00  0.00    +0.202 C 
ATOM     14  H   UNL     1     -35.789  23.594   2.333  0.00  0.00    +0.150 HD
BRANCH  13  15
ATOM     15  C   UNL     1     -36.637  25.809   3.099  0.00  0.00    +0.010 C 
BRANCH  15  16
ATOM     16  N   UNL     1     -35.408  25.728   3.875  0.00  0.00    +0.393 N 
ATOM     17  C   UNL     1     -35.655  25.762   5.316  0.00  0.00    -0.077 C 
ATOM     18  C   UNL     1     -34.511  26.854   3.617  0.00  0.00    -0.077 C 
ATOM     19  C   UNL     1     -34.278  26.058   5.891  0.00  0.00    -0.025 C 
ATOM     20  C   UNL     1     -33.527  26.778   4.775  0.00  0.00    -0.025 C 
ATOM     21  H   UNL     1     -34.991  24.843   3.588  0.00  0.00    -0.079 HD
ENDBRANCH  15  16
ENDBRANCH  13  15
ENDBRANCH   7  12
BRANCH   6  23
ATOM     22  OXT UNL     1     -37.206  18.774  -0.326  0.00  0.00    -0.248 OA
ATOM     23  C   UNL     1     -36.080  18.768   0.149  0.00  0.00    +0.333 C 
BRANCH  23  24
ATOM     24  O   UNL     1     -35.262  17.688   0.162  0.00  0.00    -0.479 OA
ATOM     25  H   UNL     1     -34.709  17.510  -0.574  0.00  0.00    +0.295 HD
ENDBRANCH  23  24
ENDBRANCH   6  23
TORSDOF 5
ENDMDL
MODEL 9
REMARK VINA RESULT:      -5.1      4.503      6.880
REMARK  Name = 195215
REMARK  5 active torsions:
REMARK  status: ('A' for Active; 'I' for Inactive)
REMARK    1  A    between atoms: CA_6  and  C_23
REMARK    2  A    between atoms: CA_7  and  N_12
REMARK    3  A    between atoms: C_13  and  C_15
REMARK    4  A    between atoms: C_15  and  N_16
REMARK    5  A    between atoms: C_23  and  O_24
REMARK                            x       y       z     vdW  Elec       q    Type
REMARK                         _______ _______ _______ _____ _____    ______ ____
ROOT
ATOM      1  S   UNL     1     -36.123  24.269   0.928  0.00  0.00    -0.118 S 
ATOM      2  O   UNL     1     -39.839  22.230   2.049  0.00  0.00    -0.273 OA
ATOM      3  N   UNL     1     -38.458  24.142   2.119  0.00  0.00    -0.260 N 
ATOM      4  C   UNL     1     -37.052  23.946   2.475  0.00  0.00    +0.151 C 
ATOM      5  C   UNL     1     -37.634  24.756  -0.044  0.00  0.00    +0.068 C 
ATOM      6  CA  UNL     1     -38.772  24.973   0.979  0.00  0.00    +0.184 C 
ATOM      7  CA  UNL     1     -37.399  22.475   2.757  0.00  0.00    +0.178 C 
ATOM      8  C   UNL     1     -38.823  22.839   2.295  0.00  0.00    +0.247 C 
ATOM      9  C   UNL     1     -37.313  25.995  -0.885  0.00  0.00    +0.013 C 
ATOM     10  C   UNL     1     -37.968  23.587  -0.986  0.00  0.00    +0.013 C 
ENDROOT
BRANCH   7  12
ATOM     11  O   UNL     1     -35.313  20.637   3.561  0.00  0.00    -0.277 OA
ATOM     12  N   UNL     1     -36.746  21.452   1.928  0.00  0.00    -0.298 N 
ATOM     13  C   UNL     1     -35.742  20.608   2.411  0.00  0.00    +0.202 C 
ATOM     14  H   UNL     1     -37.029  21.357   0.990  0.00  0.00    +0.150 HD
BRANCH  13  15
ATOM     15  C   UNL     1     -35.251  19.648   1.348  0.00  0.00    +0.010 C 
BRANCH  15  16
ATOM     16  N   UNL     1     -33.797  19.605   1.372  0.00  0.00    +0.393 N 
ATOM     17  C   UNL     1     -33.197  20.403   0.303  0.00  0.00    -0.077 C 
ATOM     18  C   UNL     1     -33.274  18.253   1.175  0.00  0.00    -0.077 C 
ATOM     19  C   UNL     1     -31.758  19.912   0.278  0.00  0.00    -0.025 C 
ATOM     20  C   UNL     1     -31.809  18.498   0.849  0.00  0.00    -0.025 C 
ATOM     21  H   UNL     1     -33.554  19.970   2.293  0.00  0.00    -0.079 HD
ENDBRANCH  15  16
ENDBRANCH  13  15
ENDBRANCH   7  12
BRANCH   6  23
ATOM     22  OXT UNL     1     -37.956  26.940   2.123  0.00  0.00    -0.248 OA
ATOM     23  C   UNL     1     -38.865  26.353   1.557  0.00  0.00    +0.333 C 
BRANCH  23  24
ATOM     24  O   UNL     1     -40.106  26.866   1.370  0.00  0.00    -0.479 OA
ATOM     25  H   UNL     1     -40.267  27.776   1.530  0.00  0.00    +0.295 HD
ENDBRANCH  23  24
ENDBRANCH   6  23
TORSDOF 5
ENDMDL
