MODEL 1
REMARK VINA RESULT:      -5.7      0.000      0.000
REMARK  Name = 50987523
REMARK  10 active torsions:
REMARK  status: ('A' for Active; 'I' for Inactive)
REMARK    1  A    between atoms: N_1  and  N_3
REMARK    2  A    between atoms: C_2  and  C_11
REMARK    3  A    between atoms: C_2  and  C_19
REMARK    4  A    between atoms: N_3  and  C_6
REMARK    5  A    between atoms: C_6  and  N_7
REMARK    6  A    between atoms: N_10  and  C_11
REMARK    7  A    between atoms: N_10  and  N_12
REMARK    8  A    between atoms: N_12  and  C_15
REMARK    9  A    between atoms: C_15  and  N_16
REMARK   10  A    between atoms: C_19  and  N_23
REMARK                            x       y       z     vdW  Elec       q    Type
REMARK                         _______ _______ _______ _____ _____    ______ ____
ROOT
ATOM      1  N   UNL     1     -34.593  24.364   2.309  0.00  0.00    -0.186 NA
ATOM      2  C   UNL     1     -35.356  23.316   2.260  0.00  0.00    +0.092 C 
ENDROOT
BRANCH   1   3
ATOM      3  N   UNL     1     -34.033  24.787   1.152  0.00  0.00    -0.219 N 
ATOM      4  H   UNL     1     -34.409  24.489   0.292  0.00  0.00    +0.176 HD
BRANCH   3   6
ATOM      5  S   UNL     1     -33.046  27.170   1.804  0.00  0.00    -0.017 S 
ATOM      6  C   UNL     1     -32.949  25.629   1.163  0.00  0.00    +0.147 C 
BRANCH   6   7
ATOM      7  N   UNL     1     -31.785  25.148   0.626  0.00  0.00    -0.339 N 
ATOM      8  H   UNL     1     -31.742  24.223   0.293  0.00  0.00    +0.144 HD
ATOM      9  H   UNL     1     -30.991  25.727   0.574  0.00  0.00    +0.144 HD
ENDBRANCH   6   7
ENDBRANCH   3   6
ENDBRANCH   1   3
BRANCH   2  10
ATOM     10  C   UNL     1     -35.601  22.583   0.958  0.00  0.00    +0.122 C 
ATOM     11  C   UNL     1     -36.995  21.980   0.895  0.00  0.00    +0.028 C 
BRANCH  10  14
ATOM     12  O   UNL     1     -35.523  19.881   2.223  0.00  0.00    -0.269 OA
ATOM     13  O   UNL     1     -33.032  22.630  -0.554  0.00  0.00    -0.269 OA
ATOM     14  N   UNL     1     -34.585  21.569   0.867  0.00  0.00    -0.219 N 
ATOM     15  C   UNL     1     -33.422  19.635   1.156  0.00  0.00    +0.058 C 
ATOM     16  C   UNL     1     -32.676  20.457   0.324  0.00  0.00    +0.058 C 
ATOM     17  C   UNL     1     -34.654  20.343   1.507  0.00  0.00    +0.255 C 
ATOM     18  C   UNL     1     -33.419  21.701   0.131  0.00  0.00    +0.255 C 
ATOM     19  C   UNL     1     -32.985  18.380   1.526  0.00  0.00    +0.005 C 
ATOM     20  C   UNL     1     -31.453  20.068  -0.180  0.00  0.00    +0.005 C 
ATOM     21  C   UNL     1     -30.989  18.800   0.181  0.00  0.00    +0.000 C 
ATOM     22  C   UNL     1     -31.747  17.964   1.026  0.00  0.00    +0.000 C 
ENDBRANCH  10  14
ENDBRANCH   2  10
BRANCH   2  23
ATOM     23  C   UNL     1     -36.036  22.743   3.461  0.00  0.00    +0.156 C 
BRANCH  23  24
ATOM     24  N   UNL     1     -36.736  23.536   4.193  0.00  0.00    -0.126 NA
BRANCH  24  25
ATOM     25  N   UNL     1     -36.055  24.026   5.256  0.00  0.00    -0.244 N 
ATOM     26  H   UNL     1     -35.762  23.414   5.969  0.00  0.00    +0.170 HD
BRANCH  25  28
ATOM     27  S   UNL     1     -34.213  25.903   5.664  0.00  0.00    -0.018 S 
ATOM     28  C   UNL     1     -35.765  25.365   5.354  0.00  0.00    +0.143 C 
BRANCH  28  29
ATOM     29  N   UNL     1     -36.806  26.238   5.185  0.00  0.00    -0.340 N 
ATOM     30  H   UNL     1     -37.037  26.873   5.902  0.00  0.00    +0.144 HD
ATOM     31  H   UNL     1     -37.324  26.231   4.348  0.00  0.00    +0.144 HD
ENDBRANCH  28  29
ENDBRANCH  25  28
ENDBRANCH  24  25
ENDBRANCH  23  24
ENDBRANCH   2  23
TORSDOF 10
ENDMDL
MODEL 2
REMARK VINA RESULT:      -5.7      0.070      1.762
REMARK  Name = 50987523
REMARK  10 active torsions:
REMARK  status: ('A' for Active; 'I' for Inactive)
REMARK    1  A    between atoms: N_1  and  N_3
REMARK    2  A    between atoms: C_2  and  C_11
REMARK    3  A    between atoms: C_2  and  C_19
REMARK    4  A    between atoms: N_3  and  C_6
REMARK    5  A    between atoms: C_6  and  N_7
REMARK    6  A    between atoms: N_10  and  C_11
REMARK    7  A    between atoms: N_10  and  N_12
REMARK    8  A    between atoms: N_12  and  C_15
REMARK    9  A    between atoms: C_15  and  N_16
REMARK   10  A    between atoms: C_19  and  N_23
REMARK                            x       y       z     vdW  Elec       q    Type
REMARK                         _______ _______ _______ _____ _____    ______ ____
ROOT
ATOM      1  N   UNL     1     -34.623  24.408   2.340  0.00  0.00    -0.186 NA
ATOM      2  C   UNL     1     -35.364  23.345   2.294  0.00  0.00    +0.092 C 
ENDROOT
BRANCH   1   3
ATOM      3  N   UNL     1     -34.085  24.849   1.179  0.00  0.00    -0.219 N 
ATOM      4  H   UNL     1     -34.463  24.546   0.322  0.00  0.00    +0.176 HD
BRANCH   3   6
ATOM      5  S   UNL     1     -33.172  27.285   1.737  0.00  0.00    -0.017 S 
ATOM      6  C   UNL     1     -33.020  25.715   1.182  0.00  0.00    +0.147 C 
BRANCH   6   7
ATOM      7  N   UNL     1     -31.828  25.234   0.710  0.00  0.00    -0.339 N 
ATOM      8  H   UNL     1     -30.984  25.667   0.975  0.00  0.00    +0.144 HD
ATOM      9  H   UNL     1     -31.815  24.457   0.107  0.00  0.00    +0.144 HD
ENDBRANCH   6   7
ENDBRANCH   3   6
ENDBRANCH   1   3
BRANCH   2  10
ATOM     10  C   UNL     1     -35.609  22.615   0.991  0.00  0.00    +0.122 C 
ATOM     11  C   UNL     1     -37.003  22.010   0.928  0.00  0.00    +0.028 C 
BRANCH  10  14
ATOM     12  O   UNL     1     -33.020  22.678  -0.491  0.00  0.00    -0.269 OA
ATOM     13  O   UNL     1     -35.537  19.909   2.241  0.00  0.00    -0.269 OA
ATOM     14  N   UNL     1     -34.593  21.601   0.898  0.00  0.00    -0.219 N 
ATOM     15  C   UNL     1     -32.692  20.484   0.339  0.00  0.00    +0.058 C 
ATOM     16  C   UNL     1     -33.444  19.655   1.157  0.00  0.00    +0.058 C 
ATOM     17  C   UNL     1     -33.423  21.740   0.170  0.00  0.00    +0.255 C 
ATOM     18  C   UNL     1     -34.667  20.368   1.524  0.00  0.00    +0.255 C 
ATOM     19  C   UNL     1     -31.472  20.094  -0.174  0.00  0.00    +0.005 C 
ATOM     20  C   UNL     1     -33.017  18.390   1.505  0.00  0.00    +0.005 C 
ATOM     21  C   UNL     1     -31.784  17.972   0.996  0.00  0.00    +0.000 C 
ATOM     22  C   UNL     1     -31.019  18.815   0.166  0.00  0.00    +0.000 C 
ENDBRANCH  10  14
ENDBRANCH   2  10
BRANCH   2  23
ATOM     23  C   UNL     1     -36.019  22.752   3.500  0.00  0.00    +0.156 C 
BRANCH  23  24
ATOM     24  N   UNL     1     -36.734  23.525   4.238  0.00  0.00    -0.126 NA
BRANCH  24  25
ATOM     25  N   UNL     1     -36.055  24.042   5.289  0.00  0.00    -0.244 N 
ATOM     26  H   UNL     1     -35.748  23.446   6.010  0.00  0.00    +0.170 HD
BRANCH  25  28
ATOM     27  S   UNL     1     -34.260  25.954   5.738  0.00  0.00    -0.018 S 
ATOM     28  C   UNL     1     -35.788  25.386   5.365  0.00  0.00    +0.143 C 
BRANCH  28  29
ATOM     29  N   UNL     1     -36.830  26.241   5.122  0.00  0.00    -0.340 N 
ATOM     30  H   UNL     1     -37.157  26.833   5.837  0.00  0.00    +0.144 HD
ATOM     31  H   UNL     1     -37.251  26.262   4.232  0.00  0.00    +0.144 HD
ENDBRANCH  28  29
ENDBRANCH  25  28
ENDBRANCH  24  25
ENDBRANCH  23  24
ENDBRANCH   2  23
TORSDOF 10
ENDMDL
MODEL 3
REMARK VINA RESULT:      -5.7      1.885      2.817
REMARK  Name = 50987523
REMARK  10 active torsions:
REMARK  status: ('A' for Active; 'I' for Inactive)
REMARK    1  A    between atoms: N_1  and  N_3
REMARK    2  A    between atoms: C_2  and  C_11
REMARK    3  A    between atoms: C_2  and  C_19
REMARK    4  A    between atoms: N_3  and  C_6
REMARK    5  A    between atoms: C_6  and  N_7
REMARK    6  A    between atoms: N_10  and  C_11
REMARK    7  A    between atoms: N_10  and  N_12
REMARK    8  A    between atoms: N_12  and  C_15
REMARK    9  A    between atoms: C_15  and  N_16
REMARK   10  A    between atoms: C_19  and  N_23
REMARK                            x       y       z     vdW  Elec       q    Type
REMARK                         _______ _______ _______ _____ _____    ______ ____
ROOT
ATOM      1  N   UNL     1     -36.528  24.890   2.650  0.00  0.00    -0.186 NA
ATOM      2  C   UNL     1     -36.575  23.605   2.817  0.00  0.00    +0.092 C 
ENDROOT
BRANCH   1   3
ATOM      3  N   UNL     1     -36.833  25.375   1.424  0.00  0.00    -0.219 N 
ATOM      4  H   UNL     1     -36.790  24.780   0.641  0.00  0.00    +0.176 HD
BRANCH   3   6
ATOM      5  S   UNL     1     -38.349  27.135   0.127  0.00  0.00    -0.017 S 
ATOM      6  C   UNL     1     -37.204  26.687   1.260  0.00  0.00    +0.147 C 
BRANCH   6   7
ATOM      7  N   UNL     1     -36.593  27.610   2.066  0.00  0.00    -0.339 N 
ATOM      8  H   UNL     1     -35.636  27.519   2.280  0.00  0.00    +0.144 HD
ATOM      9  H   UNL     1     -37.110  28.363   2.432  0.00  0.00    +0.144 HD
ENDBRANCH   6   7
ENDBRANCH   3   6
ENDBRANCH   1   3
BRANCH   2  10
ATOM     10  C   UNL     1     -36.945  22.678   1.678  0.00  0.00    +0.122 C 
ATOM     11  C   UNL     1     -38.108  21.767   2.037  0.00  0.00    +0.028 C 
BRANCH  10  14
ATOM     12  O   UNL     1     -34.573  23.474   0.052  0.00  0.00    -0.269 OA
ATOM     13  O   UNL     1     -36.218  19.911   2.514  0.00  0.00    -0.269 OA
ATOM     14  N   UNL     1     -35.761  21.921   1.371  0.00  0.00    -0.219 N 
ATOM     15  C   UNL     1     -33.738  21.310   0.530  0.00  0.00    +0.058 C 
ATOM     16  C   UNL     1     -34.229  20.243   1.268  0.00  0.00    +0.058 C 
ATOM     17  C   UNL     1     -34.716  22.395   0.595  0.00  0.00    +0.255 C 
ATOM     18  C   UNL     1     -35.528  20.630   1.815  0.00  0.00    +0.255 C 
ATOM     19  C   UNL     1     -32.519  21.254  -0.114  0.00  0.00    +0.005 C 
ATOM     20  C   UNL     1     -33.528  19.062   1.399  0.00  0.00    +0.005 C 
ATOM     21  C   UNL     1     -32.290  18.981   0.754  0.00  0.00    +0.000 C 
ATOM     22  C   UNL     1     -31.791  20.066   0.006  0.00  0.00    +0.000 C 
ENDBRANCH  10  14
ENDBRANCH   2  10
BRANCH   2  23
ATOM     23  C   UNL     1     -36.263  22.937   4.117  0.00  0.00    +0.156 C 
BRANCH  23  24
ATOM     24  N   UNL     1     -36.353  23.639   5.191  0.00  0.00    -0.126 NA
BRANCH  24  25
ATOM     25  N   UNL     1     -35.201  24.274   5.515  0.00  0.00    -0.244 N 
ATOM     26  H   UNL     1     -34.393  23.745   5.705  0.00  0.00    +0.170 HD
BRANCH  25  28
ATOM     27  S   UNL     1     -33.696  26.448   5.809  0.00  0.00    -0.018 S 
ATOM     28  C   UNL     1     -35.144  25.643   5.582  0.00  0.00    +0.143 C 
BRANCH  28  29
ATOM     29  N   UNL     1     -36.327  26.321   5.455  0.00  0.00    -0.340 N 
ATOM     30  H   UNL     1     -36.590  26.984   6.133  0.00  0.00    +0.144 HD
ATOM     31  H   UNL     1     -36.916  26.143   4.685  0.00  0.00    +0.144 HD
ENDBRANCH  28  29
ENDBRANCH  25  28
ENDBRANCH  24  25
ENDBRANCH  23  24
ENDBRANCH   2  23
TORSDOF 10
ENDMDL
MODEL 4
REMARK VINA RESULT:      -5.7      1.665      1.790
REMARK  Name = 50987523
REMARK  10 active torsions:
REMARK  status: ('A' for Active; 'I' for Inactive)
REMARK    1  A    between atoms: N_1  and  N_3
REMARK    2  A    between atoms: C_2  and  C_11
REMARK    3  A    between atoms: C_2  and  C_19
REMARK    4  A    between atoms: N_3  and  C_6
REMARK    5  A    between atoms: C_6  and  N_7
REMARK    6  A    between atoms: N_10  and  C_11
REMARK    7  A    between atoms: N_10  and  N_12
REMARK    8  A    between atoms: N_12  and  C_15
REMARK    9  A    between atoms: C_15  and  N_16
REMARK   10  A    between atoms: C_19  and  N_23
REMARK                            x       y       z     vdW  Elec       q    Type
REMARK                         _______ _______ _______ _____ _____    ______ ____
ROOT
ATOM      1  N   UNL     1     -36.553  24.891   2.498  0.00  0.00    -0.186 NA
ATOM      2  C   UNL     1     -36.619  23.612   2.704  0.00  0.00    +0.092 C 
ENDROOT
BRANCH   1   3
ATOM      3  N   UNL     1     -36.833  25.341   1.254  0.00  0.00    -0.219 N 
ATOM      4  H   UNL     1     -37.507  24.876   0.708  0.00  0.00    +0.176 HD
BRANCH   3   6
ATOM      5  S   UNL     1     -36.091  27.872   1.602  0.00  0.00    -0.017 S 
ATOM      6  C   UNL     1     -36.191  26.441   0.743  0.00  0.00    +0.147 C 
BRANCH   6   7
ATOM      7  N   UNL     1     -35.634  26.313  -0.501  0.00  0.00    -0.339 N 
ATOM      8  H   UNL     1     -34.887  25.688  -0.644  0.00  0.00    +0.144 HD
ATOM      9  H   UNL     1     -35.981  26.846  -1.253  0.00  0.00    +0.144 HD
ENDBRANCH   6   7
ENDBRANCH   3   6
ENDBRANCH   1   3
BRANCH   2  10
ATOM     10  C   UNL     1     -36.983  22.655   1.589  0.00  0.00    +0.122 C 
ATOM     11  C   UNL     1     -38.142  21.749   1.970  0.00  0.00    +0.028 C 
BRANCH  10  14
ATOM     12  O   UNL     1     -36.250  19.902   2.479  0.00  0.00    -0.269 OA
ATOM     13  O   UNL     1     -34.619  23.420  -0.058  0.00  0.00    -0.269 OA
ATOM     14  N   UNL     1     -35.795  21.896   1.303  0.00  0.00    -0.219 N 
ATOM     15  C   UNL     1     -34.244  20.232   1.262  0.00  0.00    +0.058 C 
ATOM     16  C   UNL     1     -33.755  21.284   0.502  0.00  0.00    +0.058 C 
ATOM     17  C   UNL     1     -35.558  20.617   1.778  0.00  0.00    +0.255 C 
ATOM     18  C   UNL     1     -34.749  22.356   0.521  0.00  0.00    +0.255 C 
ATOM     19  C   UNL     1     -33.532  19.063   1.436  0.00  0.00    +0.005 C 
ATOM     20  C   UNL     1     -32.528  21.223  -0.123  0.00  0.00    +0.005 C 
ATOM     21  C   UNL     1     -31.787  20.049   0.039  0.00  0.00    +0.000 C 
ATOM     22  C   UNL     1     -32.284  18.980   0.810  0.00  0.00    +0.000 C 
ENDBRANCH  10  14
ENDBRANCH   2  10
BRANCH   2  23
ATOM     23  C   UNL     1     -36.334  22.981   4.029  0.00  0.00    +0.156 C 
BRANCH  23  24
ATOM     24  N   UNL     1     -36.393  23.727   5.076  0.00  0.00    -0.126 NA
BRANCH  24  25
ATOM     25  N   UNL     1     -35.217  24.329   5.372  0.00  0.00    -0.244 N 
ATOM     26  H   UNL     1     -34.403  23.783   5.470  0.00  0.00    +0.170 HD
BRANCH  25  28
ATOM     27  S   UNL     1     -33.715  26.438   5.984  0.00  0.00    -0.018 S 
ATOM     28  C   UNL     1     -35.142  25.689   5.539  0.00  0.00    +0.143 C 
BRANCH  28  29
ATOM     29  N   UNL     1     -36.289  26.405   5.323  0.00  0.00    -0.340 N 
ATOM     30  H   UNL     1     -36.607  26.561   4.405  0.00  0.00    +0.144 HD
ATOM     31  H   UNL     1     -36.796  26.764   6.087  0.00  0.00    +0.144 HD
ENDBRANCH  28  29
ENDBRANCH  25  28
ENDBRANCH  24  25
ENDBRANCH  23  24
ENDBRANCH   2  23
TORSDOF 10
ENDMDL
MODEL 5
REMARK VINA RESULT:      -5.7      3.745      5.312
REMARK  Name = 50987523
REMARK  10 active torsions:
REMARK  status: ('A' for Active; 'I' for Inactive)
REMARK    1  A    between atoms: N_1  and  N_3
REMARK    2  A    between atoms: C_2  and  C_11
REMARK    3  A    between atoms: C_2  and  C_19
REMARK    4  A    between atoms: N_3  and  C_6
REMARK    5  A    between atoms: C_6  and  N_7
REMARK    6  A    between atoms: N_10  and  C_11
REMARK    7  A    between atoms: N_10  and  N_12
REMARK    8  A    between atoms: N_12  and  C_15
REMARK    9  A    between atoms: C_15  and  N_16
REMARK   10  A    between atoms: C_19  and  N_23
REMARK                            x       y       z     vdW  Elec       q    Type
REMARK                         _______ _______ _______ _____ _____    ______ ____
ROOT
ATOM      1  N   UNL     1     -34.787  28.756   2.999  0.00  0.00    -0.186 NA
ATOM      2  C   UNL     1     -34.799  27.697   2.251  0.00  0.00    +0.092 C 
ENDROOT
BRANCH   1   3
ATOM      3  N   UNL     1     -33.697  28.965   3.774  0.00  0.00    -0.219 N 
ATOM      4  H   UNL     1     -33.244  28.198   4.193  0.00  0.00    +0.176 HD
BRANCH   3   6
ATOM      5  S   UNL     1     -33.404  31.437   2.836  0.00  0.00    -0.017 S 
ATOM      6  C   UNL     1     -33.215  30.233   3.980  0.00  0.00    +0.147 C 
BRANCH   6   7
ATOM      7  N   UNL     1     -32.572  30.467   5.166  0.00  0.00    -0.339 N 
ATOM      8  H   UNL     1     -31.755  29.966   5.390  0.00  0.00    +0.144 HD
ATOM      9  H   UNL     1     -32.927  31.136   5.795  0.00  0.00    +0.144 HD
ENDBRANCH   6   7
ENDBRANCH   3   6
ENDBRANCH   1   3
BRANCH   2  10
ATOM     10  C   UNL     1     -33.642  26.720   2.255  0.00  0.00    +0.122 C 
ATOM     11  C   UNL     1     -33.180  26.375   0.848  0.00  0.00    +0.028 C 
BRANCH  10  14
ATOM     12  O   UNL     1     -33.805  26.237   5.195  0.00  0.00    -0.269 OA
ATOM     13  O   UNL     1     -34.690  24.157   1.150  0.00  0.00    -0.269 OA
ATOM     14  N   UNL     1     -34.101  25.551   2.957  0.00  0.00    -0.219 N 
ATOM     15  C   UNL     1     -34.648  24.099   4.620  0.00  0.00    +0.058 C 
ATOM     16  C   UNL     1     -34.914  23.476   3.410  0.00  0.00    +0.058 C 
ATOM     17  C   UNL     1     -34.128  25.437   4.337  0.00  0.00    +0.255 C 
ATOM     18  C   UNL     1     -34.568  24.405   2.336  0.00  0.00    +0.255 C 
ATOM     19  C   UNL     1     -34.874  23.474   5.829  0.00  0.00    +0.005 C 
ATOM     20  C   UNL     1     -35.419  22.194   3.345  0.00  0.00    +0.005 C 
ATOM     21  C   UNL     1     -35.656  21.540   4.557  0.00  0.00    +0.000 C 
ATOM     22  C   UNL     1     -35.387  22.173   5.787  0.00  0.00    +0.000 C 
ENDBRANCH  10  14
ENDBRANCH   2  10
BRANCH   2  23
ATOM     23  C   UNL     1     -35.937  27.346   1.348  0.00  0.00    +0.156 C 
BRANCH  23  24
ATOM     24  N   UNL     1     -37.129  27.433   1.821  0.00  0.00    -0.126 NA
BRANCH  24  25
ATOM     25  N   UNL     1     -37.317  26.694   2.941  0.00  0.00    -0.244 N 
ATOM     26  H   UNL     1     -36.820  26.920   3.760  0.00  0.00    +0.170 HD
BRANCH  25  28
ATOM     27  S   UNL     1     -39.234  25.351   1.676  0.00  0.00    -0.018 S 
ATOM     28  C   UNL     1     -38.191  25.636   2.951  0.00  0.00    +0.143 C 
BRANCH  28  29
ATOM     29  N   UNL     1     -38.169  24.823   4.053  0.00  0.00    -0.340 N 
ATOM     30  H   UNL     1     -37.511  24.093   4.113  0.00  0.00    +0.144 HD
ATOM     31  H   UNL     1     -38.812  24.969   4.785  0.00  0.00    +0.144 HD
ENDBRANCH  28  29
ENDBRANCH  25  28
ENDBRANCH  24  25
ENDBRANCH  23  24
ENDBRANCH   2  23
TORSDOF 10
ENDMDL
MODEL 6
REMARK VINA RESULT:      -5.7      3.798      5.443
REMARK  Name = 50987523
REMARK  10 active torsions:
REMARK  status: ('A' for Active; 'I' for Inactive)
REMARK    1  A    between atoms: N_1  and  N_3
REMARK    2  A    between atoms: C_2  and  C_11
REMARK    3  A    between atoms: C_2  and  C_19
REMARK    4  A    between atoms: N_3  and  C_6
REMARK    5  A    between atoms: C_6  and  N_7
REMARK    6  A    between atoms: N_10  and  C_11
REMARK    7  A    between atoms: N_10  and  N_12
REMARK    8  A    between atoms: N_12  and  C_15
REMARK    9  A    between atoms: C_15  and  N_16
REMARK   10  A    between atoms: C_19  and  N_23
REMARK                            x       y       z     vdW  Elec       q    Type
REMARK                         _______ _______ _______ _____ _____    ______ ____
ROOT
ATOM      1  N   UNL     1     -34.916  28.827   2.948  0.00  0.00    -0.186 NA
ATOM      2  C   UNL     1     -34.885  27.744   2.234  0.00  0.00    +0.092 C 
ENDROOT
BRANCH   1   3
ATOM      3  N   UNL     1     -33.844  29.093   3.731  0.00  0.00    -0.219 N 
ATOM      4  H   UNL     1     -33.398  28.359   4.211  0.00  0.00    +0.176 HD
BRANCH   3   6
ATOM      5  S   UNL     1     -33.644  31.530   2.684  0.00  0.00    -0.017 S 
ATOM      6  C   UNL     1     -33.371  30.375   3.861  0.00  0.00    +0.147 C 
BRANCH   6   7
ATOM      7  N   UNL     1     -32.665  30.663   4.998  0.00  0.00    -0.339 N 
ATOM      8  H   UNL     1     -31.947  31.336   4.974  0.00  0.00    +0.144 HD
ATOM      9  H   UNL     1     -32.875  30.196   5.839  0.00  0.00    +0.144 HD
ENDBRANCH   6   7
ENDBRANCH   3   6
ENDBRANCH   1   3
BRANCH   2  10
ATOM     10  C   UNL     1     -33.699  26.804   2.284  0.00  0.00    +0.122 C 
ATOM     11  C   UNL     1     -33.197  26.443   0.895  0.00  0.00    +0.028 C 
BRANCH  10  14
ATOM     12  O   UNL     1     -34.570  24.154   1.222  0.00  0.00    -0.269 OA
ATOM     13  O   UNL     1     -33.959  26.405   5.226  0.00  0.00    -0.269 OA
ATOM     14  N   UNL     1     -34.137  25.638   3.004  0.00  0.00    -0.219 N 
ATOM     15  C   UNL     1     -34.899  23.551   3.489  0.00  0.00    +0.058 C 
ATOM     16  C   UNL     1     -34.716  24.223   4.688  0.00  0.00    +0.058 C 
ATOM     17  C   UNL     1     -34.525  24.454   2.401  0.00  0.00    +0.255 C 
ATOM     18  C   UNL     1     -34.222  25.566   4.384  0.00  0.00    +0.255 C 
ATOM     19  C   UNL     1     -35.358  22.251   3.443  0.00  0.00    +0.005 C 
ATOM     20  C   UNL     1     -34.984  23.632   5.905  0.00  0.00    +0.005 C 
ATOM     21  C   UNL     1     -35.451  22.315   5.884  0.00  0.00    +0.000 C 
ATOM     22  C   UNL     1     -35.637  21.631   4.666  0.00  0.00    +0.000 C 
ENDBRANCH  10  14
ENDBRANCH   2  10
BRANCH   2  23
ATOM     23  C   UNL     1     -35.999  27.331   1.327  0.00  0.00    +0.156 C 
BRANCH  23  24
ATOM     24  N   UNL     1     -37.200  27.390   1.784  0.00  0.00    -0.126 NA
BRANCH  24  25
ATOM     25  N   UNL     1     -37.381  26.660   2.911  0.00  0.00    -0.244 N 
ATOM     26  H   UNL     1     -36.805  26.822   3.692  0.00  0.00    +0.170 HD
BRANCH  25  28
ATOM     27  S   UNL     1     -39.629  25.663   1.894  0.00  0.00    -0.018 S 
ATOM     28  C   UNL     1     -38.358  25.698   2.980  0.00  0.00    +0.143 C 
BRANCH  28  29
ATOM     29  N   UNL     1     -38.243  24.768   3.978  0.00  0.00    -0.340 N 
ATOM     30  H   UNL     1     -37.854  23.885   3.786  0.00  0.00    +0.144 HD
ATOM     31  H   UNL     1     -38.552  24.983   4.888  0.00  0.00    +0.144 HD
ENDBRANCH  28  29
ENDBRANCH  25  28
ENDBRANCH  24  25
ENDBRANCH  23  24
ENDBRANCH   2  23
TORSDOF 10
ENDMDL
MODEL 7
REMARK VINA RESULT:      -5.7      3.379      4.805
REMARK  Name = 50987523
REMARK  10 active torsions:
REMARK  status: ('A' for Active; 'I' for Inactive)
REMARK    1  A    between atoms: N_1  and  N_3
REMARK    2  A    between atoms: C_2  and  C_11
REMARK    3  A    between atoms: C_2  and  C_19
REMARK    4  A    between atoms: N_3  and  C_6
REMARK    5  A    between atoms: C_6  and  N_7
REMARK    6  A    between atoms: N_10  and  C_11
REMARK    7  A    between atoms: N_10  and  N_12
REMARK    8  A    between atoms: N_12  and  C_15
REMARK    9  A    between atoms: C_15  and  N_16
REMARK   10  A    between atoms: C_19  and  N_23
REMARK                            x       y       z     vdW  Elec       q    Type
REMARK                         _______ _______ _______ _____ _____    ______ ____
ROOT
ATOM      1  N   UNL     1     -34.369  27.863   3.483  0.00  0.00    -0.186 NA
ATOM      2  C   UNL     1     -34.556  26.813   4.222  0.00  0.00    +0.092 C 
ENDROOT
BRANCH   1   3
ATOM      3  N   UNL     1     -35.408  28.295   2.733  0.00  0.00    -0.219 N 
ATOM      4  H   UNL     1     -36.114  27.662   2.468  0.00  0.00    +0.176 HD
BRANCH   3   6
ATOM      5  S   UNL     1     -35.636  30.025   0.724  0.00  0.00    -0.017 S 
ATOM      6  C   UNL     1     -35.491  29.607   2.336  0.00  0.00    +0.147 C 
BRANCH   6   7
ATOM      7  N   UNL     1     -35.450  30.556   3.322  0.00  0.00    -0.339 N 
ATOM      8  H   UNL     1     -35.125  31.463   3.118  0.00  0.00    +0.144 HD
ATOM      9  H   UNL     1     -35.744  30.332   4.234  0.00  0.00    +0.144 HD
ENDBRANCH   6   7
ENDBRANCH   3   6
ENDBRANCH   1   3
BRANCH   2  10
ATOM     10  C   UNL     1     -35.885  26.088   4.233  0.00  0.00    +0.122 C 
ATOM     11  C   UNL     1     -36.441  25.935   5.640  0.00  0.00    +0.028 C 
BRANCH  10  14
ATOM     12  O   UNL     1     -36.071  23.362   5.435  0.00  0.00    -0.269 OA
ATOM     13  O   UNL     1     -35.108  25.470   1.423  0.00  0.00    -0.269 OA
ATOM     14  N   UNL     1     -35.654  24.808   3.618  0.00  0.00    -0.219 N 
ATOM     15  C   UNL     1     -35.437  22.567   3.296  0.00  0.00    +0.058 C 
ATOM     16  C   UNL     1     -35.149  23.197   2.094  0.00  0.00    +0.058 C 
ATOM     17  C   UNL     1     -35.766  23.597   4.281  0.00  0.00    +0.255 C 
ATOM     18  C   UNL     1     -35.290  24.638   2.293  0.00  0.00    +0.255 C 
ATOM     19  C   UNL     1     -35.393  21.194   3.430  0.00  0.00    +0.005 C 
ATOM     20  C   UNL     1     -34.800  22.487   0.964  0.00  0.00    +0.005 C 
ATOM     21  C   UNL     1     -34.749  21.095   1.076  0.00  0.00    +0.000 C 
ATOM     22  C   UNL     1     -35.042  20.455   2.297  0.00  0.00    +0.000 C 
ENDBRANCH  10  14
ENDBRANCH   2  10
BRANCH   2  23
ATOM     23  C   UNL     1     -33.495  26.230   5.098  0.00  0.00    +0.156 C 
BRANCH  23  24
ATOM     24  N   UNL     1     -33.084  26.931   6.094  0.00  0.00    -0.126 NA
BRANCH  24  25
ATOM     25  N   UNL     1     -32.558  28.125   5.729  0.00  0.00    -0.244 N 
ATOM     26  H   UNL     1     -32.974  28.635   4.996  0.00  0.00    +0.170 HD
BRANCH  25  28
ATOM     27  S   UNL     1     -29.934  28.562   5.672  0.00  0.00    -0.018 S 
ATOM     28  C   UNL     1     -31.454  28.635   6.365  0.00  0.00    +0.143 C 
BRANCH  28  29
ATOM     29  N   UNL     1     -31.654  29.205   7.593  0.00  0.00    -0.340 N 
ATOM     30  H   UNL     1     -30.947  29.161   8.277  0.00  0.00    +0.144 HD
ATOM     31  H   UNL     1     -32.505  29.659   7.793  0.00  0.00    +0.144 HD
ENDBRANCH  28  29
ENDBRANCH  25  28
ENDBRANCH  24  25
ENDBRANCH  23  24
ENDBRANCH   2  23
TORSDOF 10
ENDMDL
MODEL 8
REMARK VINA RESULT:      -5.6      1.005      1.005
REMARK  Name = 50987523
REMARK  10 active torsions:
REMARK  status: ('A' for Active; 'I' for Inactive)
REMARK    1  A    between atoms: N_1  and  N_3
REMARK    2  A    between atoms: C_2  and  C_11
REMARK    3  A    between atoms: C_2  and  C_19
REMARK    4  A    between atoms: N_3  and  C_6
REMARK    5  A    between atoms: C_6  and  N_7
REMARK    6  A    between atoms: N_10  and  C_11
REMARK    7  A    between atoms: N_10  and  N_12
REMARK    8  A    between atoms: N_12  and  C_15
REMARK    9  A    between atoms: C_15  and  N_16
REMARK   10  A    between atoms: C_19  and  N_23
REMARK                            x       y       z     vdW  Elec       q    Type
REMARK                         _______ _______ _______ _____ _____    ______ ____
ROOT
ATOM      1  N   UNL     1     -34.443  24.241   2.339  0.00  0.00    -0.186 NA
ATOM      2  C   UNL     1     -35.174  23.176   2.223  0.00  0.00    +0.092 C 
ENDROOT
BRANCH   1   3
ATOM      3  N   UNL     1     -33.866  24.731   1.217  0.00  0.00    -0.219 N 
ATOM      4  H   UNL     1     -34.278  24.555   0.341  0.00  0.00    +0.176 HD
BRANCH   3   6
ATOM      5  S   UNL     1     -32.553  26.742   2.361  0.00  0.00    -0.017 S 
ATOM      6  C   UNL     1     -32.712  25.471   1.287  0.00  0.00    +0.147 C 
BRANCH   6   7
ATOM      7  N   UNL     1     -31.697  25.120   0.437  0.00  0.00    -0.339 N 
ATOM      8  H   UNL     1     -30.929  24.604   0.774  0.00  0.00    +0.144 HD
ATOM      9  H   UNL     1     -31.735  25.384  -0.511  0.00  0.00    +0.144 HD
ENDBRANCH   6   7
ENDBRANCH   3   6
ENDBRANCH   1   3
BRANCH   2  10
ATOM     10  C   UNL     1     -35.364  22.495   0.884  0.00  0.00    +0.122 C 
ATOM     11  C   UNL     1     -36.759  21.911   0.732  0.00  0.00    +0.028 C 
BRANCH  10  14
ATOM     12  O   UNL     1     -35.340  19.774   2.109  0.00  0.00    -0.269 OA
ATOM     13  O   UNL     1     -32.758  22.542  -0.563  0.00  0.00    -0.269 OA
ATOM     14  N   UNL     1     -34.355  21.473   0.803  0.00  0.00    -0.219 N 
ATOM     15  C   UNL     1     -33.216  19.525   1.091  0.00  0.00    +0.058 C 
ATOM     16  C   UNL     1     -32.442  20.353   0.291  0.00  0.00    +0.058 C 
ATOM     17  C   UNL     1     -34.450  20.238   1.422  0.00  0.00    +0.255 C 
ATOM     18  C   UNL     1     -33.170  21.606   0.098  0.00  0.00    +0.255 C 
ATOM     19  C   UNL     1     -32.799  18.261   1.453  0.00  0.00    +0.005 C 
ATOM     20  C   UNL     1     -31.210  19.960  -0.189  0.00  0.00    +0.005 C 
ATOM     21  C   UNL     1     -30.766  18.683   0.165  0.00  0.00    +0.000 C 
ATOM     22  C   UNL     1     -31.552  17.842   0.977  0.00  0.00    +0.000 C 
ENDBRANCH  10  14
ENDBRANCH   2  10
BRANCH   2  23
ATOM     23  C   UNL     1     -35.869  22.532   3.379  0.00  0.00    +0.156 C 
BRANCH  23  24
ATOM     24  N   UNL     1     -36.895  23.129   3.874  0.00  0.00    -0.126 NA
BRANCH  24  25
ATOM     25  N   UNL     1     -36.572  24.148   4.706  0.00  0.00    -0.244 N 
ATOM     26  H   UNL     1     -36.078  23.959   5.537  0.00  0.00    +0.170 HD
BRANCH  25  28
ATOM     27  S   UNL     1     -37.862  25.808   3.075  0.00  0.00    -0.018 S 
ATOM     28  C   UNL     1     -36.923  25.441   4.409  0.00  0.00    +0.143 C 
BRANCH  28  29
ATOM     29  N   UNL     1     -36.469  26.417   5.255  0.00  0.00    -0.340 N 
ATOM     30  H   UNL     1     -37.011  27.223   5.413  0.00  0.00    +0.144 HD
ATOM     31  H   UNL     1     -35.598  26.313   5.704  0.00  0.00    +0.144 HD
ENDBRANCH  28  29
ENDBRANCH  25  28
ENDBRANCH  24  25
ENDBRANCH  23  24
ENDBRANCH   2  23
TORSDOF 10
ENDMDL
MODEL 9
REMARK VINA RESULT:      -5.5      3.282      4.938
REMARK  Name = 50987523
REMARK  10 active torsions:
REMARK  status: ('A' for Active; 'I' for Inactive)
REMARK    1  A    between atoms: N_1  and  N_3
REMARK    2  A    between atoms: C_2  and  C_11
REMARK    3  A    between atoms: C_2  and  C_19
REMARK    4  A    between atoms: N_3  and  C_6
REMARK    5  A    between atoms: C_6  and  N_7
REMARK    6  A    between atoms: N_10  and  C_11
REMARK    7  A    between atoms: N_10  and  N_12
REMARK    8  A    between atoms: N_12  and  C_15
REMARK    9  A    between atoms: C_15  and  N_16
REMARK   10  A    between atoms: C_19  and  N_23
REMARK                            x       y       z     vdW  Elec       q    Type
REMARK                         _______ _______ _______ _____ _____    ______ ____
ROOT
ATOM      1  N   UNL     1     -34.542  27.845   3.472  0.00  0.00    -0.186 NA
ATOM      2  C   UNL     1     -34.644  26.776   4.199  0.00  0.00    +0.092 C 
ENDROOT
BRANCH   1   3
ATOM      3  N   UNL     1     -35.635  28.239   2.779  0.00  0.00    -0.219 N 
ATOM      4  H   UNL     1     -36.528  27.943   3.070  0.00  0.00    +0.176 HD
BRANCH   3   6
ATOM      5  S   UNL     1     -35.712  30.704   1.783  0.00  0.00    -0.017 S 
ATOM      6  C   UNL     1     -35.515  29.047   1.677  0.00  0.00    +0.147 C 
BRANCH   6   7
ATOM      7  N   UNL     1     -35.225  28.435   0.487  0.00  0.00    -0.339 N 
ATOM      8  H   UNL     1     -34.887  28.966  -0.270  0.00  0.00    +0.144 HD
ATOM      9  H   UNL     1     -35.356  27.464   0.388  0.00  0.00    +0.144 HD
ENDBRANCH   6   7
ENDBRANCH   3   6
ENDBRANCH   1   3
BRANCH   2  10
ATOM     10  C   UNL     1     -35.935  25.988   4.261  0.00  0.00    +0.122 C 
ATOM     11  C   UNL     1     -36.421  25.799   5.689  0.00  0.00    +0.028 C 
BRANCH  10  14
ATOM     12  O   UNL     1     -35.109  25.437   1.447  0.00  0.00    -0.269 OA
ATOM     13  O   UNL     1     -36.055  23.243   5.417  0.00  0.00    -0.269 OA
ATOM     14  N   UNL     1     -35.670  24.725   3.625  0.00  0.00    -0.219 N 
ATOM     15  C   UNL     1     -35.142  23.151   2.070  0.00  0.00    +0.058 C 
ATOM     16  C   UNL     1     -35.425  22.494   3.258  0.00  0.00    +0.058 C 
ATOM     17  C   UNL     1     -35.294  24.588   2.299  0.00  0.00    +0.255 C 
ATOM     18  C   UNL     1     -35.761  23.500   4.264  0.00  0.00    +0.255 C 
ATOM     19  C   UNL     1     -34.785  22.470   0.925  0.00  0.00    +0.005 C 
ATOM     20  C   UNL     1     -35.366  21.120   3.363  0.00  0.00    +0.005 C 
ATOM     21  C   UNL     1     -35.007  20.408   2.216  0.00  0.00    +0.000 C 
ATOM     22  C   UNL     1     -34.719  21.076   1.008  0.00  0.00    +0.000 C 
ENDBRANCH  10  14
ENDBRANCH   2  10
BRANCH   2  23
ATOM     23  C   UNL     1     -33.515  26.230   5.013  0.00  0.00    +0.156 C 
BRANCH  23  24
ATOM     24  N   UNL     1     -33.092  26.934   6.003  0.00  0.00    -0.126 NA
BRANCH  24  25
ATOM     25  N   UNL     1     -32.625  28.151   5.636  0.00  0.00    -0.244 N 
ATOM     26  H   UNL     1     -33.112  28.673   4.958  0.00  0.00    +0.170 HD
BRANCH  25  28
ATOM     27  S   UNL     1     -30.001  28.539   5.433  0.00  0.00    -0.018 S 
ATOM     28  C   UNL     1     -31.484  28.668   6.195  0.00  0.00    +0.143 C 
BRANCH  28  29
ATOM     29  N   UNL     1     -31.615  29.294   7.406  0.00  0.00    -0.340 N 
ATOM     30  H   UNL     1     -32.279  28.973   8.057  0.00  0.00    +0.144 HD
ATOM     31  H   UNL     1     -31.045  30.067   7.624  0.00  0.00    +0.144 HD
ENDBRANCH  28  29
ENDBRANCH  25  28
ENDBRANCH  24  25
ENDBRANCH  23  24
ENDBRANCH   2  23
TORSDOF 10
ENDMDL
