MODEL 1
REMARK VINA RESULT:      -5.9      0.000      0.000
REMARK  Name = 5316820
REMARK  9 active torsions:
REMARK  status: ('A' for Active; 'I' for Inactive)
REMARK    1  A    between atoms: C_2  and  C_4
REMARK    2  A    between atoms: C_2  and  O_15
REMARK    3  A    between atoms: C_3  and  C_5
REMARK    4  A    between atoms: C_8  and  O_11
REMARK    5  A    between atoms: C_9  and  O_13
REMARK    6  A    between atoms: O_15  and  C_17
REMARK    7  A    between atoms: C_16  and  C_18
REMARK    8  A    between atoms: C_21  and  O_24
REMARK    9  A    between atoms: C_22  and  O_26
REMARK                            x       y       z     vdW  Elec       q    Type
REMARK                         _______ _______ _______ _____ _____    ______ ____
ROOT
ATOM      1  O   UNL     1     -33.841  19.235   1.828  0.00  0.00    -0.244 OA
ATOM      2  C   UNL     1     -34.816  19.950   1.651  0.00  0.00    +0.346 C 
ENDROOT
BRANCH   2   4
ATOM      3  C   UNL     1     -35.637  21.569   3.310  0.00  0.00    +0.007 C 
ATOM      4  C   UNL     1     -34.960  21.334   2.163  0.00  0.00    +0.082 C 
BRANCH   3   5
ATOM      5  C   UNL     1     -35.852  22.879   3.905  0.00  0.00    +0.003 C 
ATOM      6  C   UNL     1     -36.915  23.674   3.476  0.00  0.00    +0.040 C 
ATOM      7  C   UNL     1     -34.995  23.341   4.904  0.00  0.00    +0.003 C 
ATOM      8  C   UNL     1     -37.121  24.929   4.047  0.00  0.00    +0.167 C 
ATOM      9  C   UNL     1     -36.265  25.391   5.047  0.00  0.00    +0.167 C 
ATOM     10  C   UNL     1     -35.201  24.596   5.475  0.00  0.00    +0.040 C 
BRANCH   8  11
ATOM     11  O   UNL     1     -38.163  25.696   3.620  0.00  0.00    -0.503 OA
ATOM     12  H   UNL     1     -38.296  25.837   2.703  0.00  0.00    +0.292 HD
ENDBRANCH   8  11
BRANCH   9  13
ATOM     13  O   UNL     1     -36.455  26.616   5.612  0.00  0.00    -0.503 OA
ATOM     14  H   UNL     1     -36.091  27.380   5.208  0.00  0.00    +0.292 HD
ENDBRANCH   9  13
ENDBRANCH   3   5
ENDBRANCH   2   4
BRANCH   2  15
ATOM     15  O   UNL     1     -35.958  19.659   0.958  0.00  0.00    -0.418 OA
BRANCH  15  17
ATOM     16  C   UNL     1     -36.781  21.025  -0.816  0.00  0.00    +0.041 C 
ATOM     17  C   UNL     1     -35.943  20.090  -0.355  0.00  0.00    +0.183 C 
BRANCH  16  18
ATOM     18  C   UNL     1     -37.811  21.713  -0.022  0.00  0.00    +0.009 C 
ATOM     19  C   UNL     1     -37.902  23.095  -0.078  0.00  0.00    +0.037 C 
ATOM     20  C   UNL     1     -38.670  20.967   0.770  0.00  0.00    +0.037 C 
ATOM     21  C   UNL     1     -39.646  21.620   1.524  0.00  0.00    +0.137 C 
ATOM     22  C   UNL     1     -38.876  23.748   0.676  0.00  0.00    +0.137 C 
ATOM     23  C   UNL     1     -39.749  23.010   1.477  0.00  0.00    +0.073 C 
BRANCH  21  24
ATOM     24  O   UNL     1     -40.497  20.900   2.305  0.00  0.00    -0.505 OA
ATOM     25  H   UNL     1     -41.154  20.361   1.910  0.00  0.00    +0.292 HD
ENDBRANCH  21  24
BRANCH  22  26
ATOM     26  O   UNL     1     -38.978  25.105   0.631  0.00  0.00    -0.505 OA
ATOM     27  H   UNL     1     -38.471  25.631   1.217  0.00  0.00    +0.292 HD
ENDBRANCH  22  26
ENDBRANCH  16  18
ENDBRANCH  15  17
ENDBRANCH   2  15
TORSDOF 9
ENDMDL
MODEL 2
REMARK VINA RESULT:      -5.9      4.646      8.651
REMARK  Name = 5316820
REMARK  9 active torsions:
REMARK  status: ('A' for Active; 'I' for Inactive)
REMARK    1  A    between atoms: C_2  and  C_4
REMARK    2  A    between atoms: C_2  and  O_15
REMARK    3  A    between atoms: C_3  and  C_5
REMARK    4  A    between atoms: C_8  and  O_11
REMARK    5  A    between atoms: C_9  and  O_13
REMARK    6  A    between atoms: O_15  and  C_17
REMARK    7  A    between atoms: C_16  and  C_18
REMARK    8  A    between atoms: C_21  and  O_24
REMARK    9  A    between atoms: C_22  and  O_26
REMARK                            x       y       z     vdW  Elec       q    Type
REMARK                         _______ _______ _______ _____ _____    ______ ____
ROOT
ATOM      1  O   UNL     1     -35.100  27.907   1.654  0.00  0.00    -0.244 OA
ATOM      2  C   UNL     1     -34.848  27.874   2.849  0.00  0.00    +0.346 C 
ENDROOT
BRANCH   2   4
ATOM      3  C   UNL     1     -35.292  25.480   3.192  0.00  0.00    +0.007 C 
ATOM      4  C   UNL     1     -34.800  26.643   3.674  0.00  0.00    +0.082 C 
BRANCH   3   5
ATOM      5  C   UNL     1     -35.309  24.214   3.907  0.00  0.00    +0.003 C 
ATOM      6  C   UNL     1     -35.556  23.026   3.217  0.00  0.00    +0.040 C 
ATOM      7  C   UNL     1     -35.080  24.186   5.282  0.00  0.00    +0.003 C 
ATOM      8  C   UNL     1     -35.572  21.812   3.903  0.00  0.00    +0.167 C 
ATOM      9  C   UNL     1     -35.343  21.784   5.279  0.00  0.00    +0.167 C 
ATOM     10  C   UNL     1     -35.097  22.972   5.969  0.00  0.00    +0.040 C 
BRANCH   8  11
ATOM     11  O   UNL     1     -35.814  20.659   3.218  0.00  0.00    -0.503 OA
ATOM     12  H   UNL     1     -35.253  20.407   2.512  0.00  0.00    +0.292 HD
ENDBRANCH   8  11
BRANCH   9  13
ATOM     13  O   UNL     1     -35.358  20.605   5.960  0.00  0.00    -0.503 OA
ATOM     14  H   UNL     1     -34.557  20.243   6.288  0.00  0.00    +0.292 HD
ENDBRANCH   9  13
ENDBRANCH   3   5
ENDBRANCH   2   4
BRANCH   2  15
ATOM     15  O   UNL     1     -34.551  28.922   3.676  0.00  0.00    -0.418 OA
BRANCH  15  17
ATOM     16  C   UNL     1     -32.663  30.343   3.350  0.00  0.00    +0.041 C 
ATOM     17  C   UNL     1     -33.912  29.971   3.044  0.00  0.00    +0.183 C 
BRANCH  16  18
ATOM     18  C   UNL     1     -31.811  29.711   4.370  0.00  0.00    +0.009 C 
ATOM     19  C   UNL     1     -32.074  29.941   5.712  0.00  0.00    +0.037 C 
ATOM     20  C   UNL     1     -30.761  28.900   3.971  0.00  0.00    +0.037 C 
ATOM     21  C   UNL     1     -29.953  28.301   4.939  0.00  0.00    +0.137 C 
ATOM     22  C   UNL     1     -31.267  29.344   6.679  0.00  0.00    +0.137 C 
ATOM     23  C   UNL     1     -30.205  28.524   6.292  0.00  0.00    +0.073 C 
BRANCH  21  24
ATOM     24  O   UNL     1     -28.918  27.502   4.562  0.00  0.00    -0.505 OA
ATOM     25  H   UNL     1     -28.863  26.623   4.883  0.00  0.00    +0.292 HD
ENDBRANCH  21  24
BRANCH  22  26
ATOM     26  O   UNL     1     -31.512  29.560   8.000  0.00  0.00    -0.505 OA
ATOM     27  H   UNL     1     -30.836  29.414   8.632  0.00  0.00    +0.292 HD
ENDBRANCH  22  26
ENDBRANCH  16  18
ENDBRANCH  15  17
ENDBRANCH   2  15
TORSDOF 9
ENDMDL
MODEL 3
REMARK VINA RESULT:      -5.9      2.759      4.805
REMARK  Name = 5316820
REMARK  9 active torsions:
REMARK  status: ('A' for Active; 'I' for Inactive)
REMARK    1  A    between atoms: C_2  and  C_4
REMARK    2  A    between atoms: C_2  and  O_15
REMARK    3  A    between atoms: C_3  and  C_5
REMARK    4  A    between atoms: C_8  and  O_11
REMARK    5  A    between atoms: C_9  and  O_13
REMARK    6  A    between atoms: O_15  and  C_17
REMARK    7  A    between atoms: C_16  and  C_18
REMARK    8  A    between atoms: C_21  and  O_24
REMARK    9  A    between atoms: C_22  and  O_26
REMARK                            x       y       z     vdW  Elec       q    Type
REMARK                         _______ _______ _______ _____ _____    ______ ____
ROOT
ATOM      1  O   UNL     1     -33.872  27.606   0.872  0.00  0.00    -0.244 OA
ATOM      2  C   UNL     1     -34.702  27.106   1.616  0.00  0.00    +0.346 C 
ENDROOT
BRANCH   2   4
ATOM      3  C   UNL     1     -35.399  25.419   3.263  0.00  0.00    +0.007 C 
ATOM      4  C   UNL     1     -34.587  25.765   2.240  0.00  0.00    +0.082 C 
BRANCH   3   5
ATOM      5  C   UNL     1     -35.376  24.142   3.959  0.00  0.00    +0.003 C 
ATOM      6  C   UNL     1     -35.599  22.959   3.254  0.00  0.00    +0.040 C 
ATOM      7  C   UNL     1     -35.132  24.099   5.332  0.00  0.00    +0.003 C 
ATOM      8  C   UNL     1     -35.576  21.735   3.921  0.00  0.00    +0.167 C 
ATOM      9  C   UNL     1     -35.332  21.692   5.295  0.00  0.00    +0.167 C 
ATOM     10  C   UNL     1     -35.110  22.876   6.000  0.00  0.00    +0.040 C 
BRANCH   8  11
ATOM     11  O   UNL     1     -35.795  20.587   3.222  0.00  0.00    -0.503 OA
ATOM     12  H   UNL     1     -35.536  19.762   3.582  0.00  0.00    +0.292 HD
ENDBRANCH   8  11
BRANCH   9  13
ATOM     13  O   UNL     1     -35.309  20.503   5.958  0.00  0.00    -0.503 OA
ATOM     14  H   UNL     1     -36.108  20.039   6.116  0.00  0.00    +0.292 HD
ENDBRANCH   9  13
ENDBRANCH   3   5
ENDBRANCH   2   4
BRANCH   2  15
ATOM     15  O   UNL     1     -35.883  27.646   2.043  0.00  0.00    -0.418 OA
BRANCH  15  17
ATOM     16  C   UNL     1     -37.788  27.379   0.632  0.00  0.00    +0.041 C 
ATOM     17  C   UNL     1     -36.709  28.069   1.020  0.00  0.00    +0.183 C 
BRANCH  16  18
ATOM     18  C   UNL     1     -38.241  26.106   1.217  0.00  0.00    +0.009 C 
ATOM     19  C   UNL     1     -38.930  26.120   2.420  0.00  0.00    +0.037 C 
ATOM     20  C   UNL     1     -37.970  24.919   0.556  0.00  0.00    +0.037 C 
ATOM     21  C   UNL     1     -38.400  23.713   1.112  0.00  0.00    +0.137 C 
ATOM     22  C   UNL     1     -39.358  24.915   2.976  0.00  0.00    +0.137 C 
ATOM     23  C   UNL     1     -39.093  23.711   2.322  0.00  0.00    +0.073 C 
BRANCH  21  24
ATOM     24  O   UNL     1     -38.141  22.539   0.473  0.00  0.00    -0.505 OA
ATOM     25  H   UNL     1     -37.303  22.394   0.079  0.00  0.00    +0.292 HD
ENDBRANCH  21  24
BRANCH  22  26
ATOM     26  O   UNL     1     -40.035  24.912   4.157  0.00  0.00    -0.505 OA
ATOM     27  H   UNL     1     -40.779  25.469   4.272  0.00  0.00    +0.292 HD
ENDBRANCH  22  26
ENDBRANCH  16  18
ENDBRANCH  15  17
ENDBRANCH   2  15
TORSDOF 9
ENDMDL
MODEL 4
REMARK VINA RESULT:      -5.9      2.246      4.656
REMARK  Name = 5316820
REMARK  9 active torsions:
REMARK  status: ('A' for Active; 'I' for Inactive)
REMARK    1  A    between atoms: C_2  and  C_4
REMARK    2  A    between atoms: C_2  and  O_15
REMARK    3  A    between atoms: C_3  and  C_5
REMARK    4  A    between atoms: C_8  and  O_11
REMARK    5  A    between atoms: C_9  and  O_13
REMARK    6  A    between atoms: O_15  and  C_17
REMARK    7  A    between atoms: C_16  and  C_18
REMARK    8  A    between atoms: C_21  and  O_24
REMARK    9  A    between atoms: C_22  and  O_26
REMARK                            x       y       z     vdW  Elec       q    Type
REMARK                         _______ _______ _______ _____ _____    ______ ____
ROOT
ATOM      1  O   UNL     1     -37.361  27.772   1.612  0.00  0.00    -0.244 OA
ATOM      2  C   UNL     1     -37.884  26.675   1.491  0.00  0.00    +0.346 C 
ENDROOT
BRANCH   2   4
ATOM      3  C   UNL     1     -36.892  25.388   3.336  0.00  0.00    +0.007 C 
ATOM      4  C   UNL     1     -37.359  25.414   2.067  0.00  0.00    +0.082 C 
BRANCH   3   5
ATOM      5  C   UNL     1     -36.346  24.218   4.007  0.00  0.00    +0.003 C 
ATOM      6  C   UNL     1     -36.352  22.980   3.364  0.00  0.00    +0.040 C 
ATOM      7  C   UNL     1     -35.818  24.334   5.292  0.00  0.00    +0.003 C 
ATOM      8  C   UNL     1     -35.828  21.859   4.007  0.00  0.00    +0.167 C 
ATOM      9  C   UNL     1     -35.299  21.975   5.293  0.00  0.00    +0.167 C 
ATOM     10  C   UNL     1     -35.294  23.213   5.936  0.00  0.00    +0.040 C 
BRANCH   8  11
ATOM     11  O   UNL     1     -35.839  20.655   3.370  0.00  0.00    -0.503 OA
ATOM     12  H   UNL     1     -36.145  20.595   2.486  0.00  0.00    +0.292 HD
ENDBRANCH   8  11
BRANCH   9  13
ATOM     13  O   UNL     1     -34.785  20.887   5.932  0.00  0.00    -0.503 OA
ATOM     14  H   UNL     1     -34.613  20.100   5.452  0.00  0.00    +0.292 HD
ENDBRANCH   9  13
ENDBRANCH   3   5
ENDBRANCH   2   4
BRANCH   2  15
ATOM     15  O   UNL     1     -39.040  26.362   0.830  0.00  0.00    -0.418 OA
BRANCH  15  17
ATOM     16  C   UNL     1     -40.872  25.248   1.874  0.00  0.00    +0.041 C 
ATOM     17  C   UNL     1     -40.163  26.357   1.634  0.00  0.00    +0.183 C 
BRANCH  16  18
ATOM     18  C   UNL     1     -40.573  23.911   1.336  0.00  0.00    +0.009 C 
ATOM     19  C   UNL     1     -41.034  23.568   0.075  0.00  0.00    +0.037 C 
ATOM     20  C   UNL     1     -39.837  23.020   2.101  0.00  0.00    +0.037 C 
ATOM     21  C   UNL     1     -39.554  21.753   1.590  0.00  0.00    +0.137 C 
ATOM     22  C   UNL     1     -40.753  22.301  -0.435  0.00  0.00    +0.137 C 
ATOM     23  C   UNL     1     -40.012  21.393   0.323  0.00  0.00    +0.073 C 
BRANCH  21  24
ATOM     24  O   UNL     1     -38.832  20.867   2.330  0.00  0.00    -0.505 OA
ATOM     25  H   UNL     1     -38.765  19.973   2.056  0.00  0.00    +0.292 HD
ENDBRANCH  21  24
BRANCH  22  26
ATOM     26  O   UNL     1     -41.199  21.950  -1.672  0.00  0.00    -0.505 OA
ATOM     27  H   UNL     1     -41.939  22.387  -2.044  0.00  0.00    +0.292 HD
ENDBRANCH  22  26
ENDBRANCH  16  18
ENDBRANCH  15  17
ENDBRANCH   2  15
TORSDOF 9
ENDMDL
MODEL 5
REMARK VINA RESULT:      -5.9      2.941      7.278
REMARK  Name = 5316820
REMARK  9 active torsions:
REMARK  status: ('A' for Active; 'I' for Inactive)
REMARK    1  A    between atoms: C_2  and  C_4
REMARK    2  A    between atoms: C_2  and  O_15
REMARK    3  A    between atoms: C_3  and  C_5
REMARK    4  A    between atoms: C_8  and  O_11
REMARK    5  A    between atoms: C_9  and  O_13
REMARK    6  A    between atoms: O_15  and  C_17
REMARK    7  A    between atoms: C_16  and  C_18
REMARK    8  A    between atoms: C_21  and  O_24
REMARK    9  A    between atoms: C_22  and  O_26
REMARK                            x       y       z     vdW  Elec       q    Type
REMARK                         _______ _______ _______ _____ _____    ______ ____
ROOT
ATOM      1  O   UNL     1     -36.666  19.912   2.012  0.00  0.00    -0.244 OA
ATOM      2  C   UNL     1     -35.721  20.660   2.210  0.00  0.00    +0.346 C 
ENDROOT
BRANCH   2   4
ATOM      3  C   UNL     1     -33.740  19.377   1.521  0.00  0.00    +0.007 C 
ATOM      4  C   UNL     1     -34.400  20.556   1.544  0.00  0.00    +0.082 C 
BRANCH   3   5
ATOM      5  C   UNL     1     -32.439  19.153   0.909  0.00  0.00    +0.003 C 
ATOM      6  C   UNL     1     -31.763  17.952   1.126  0.00  0.00    +0.040 C 
ATOM      7  C   UNL     1     -31.868  20.139   0.105  0.00  0.00    +0.003 C 
ATOM      8  C   UNL     1     -30.517  17.738   0.539  0.00  0.00    +0.167 C 
ATOM      9  C   UNL     1     -29.945  18.724  -0.265  0.00  0.00    +0.167 C 
ATOM     10  C   UNL     1     -30.621  19.925  -0.482  0.00  0.00    +0.040 C 
BRANCH   8  11
ATOM     11  O   UNL     1     -29.866  16.561   0.759  0.00  0.00    -0.503 OA
ATOM     12  H   UNL     1     -29.071  16.372   0.301  0.00  0.00    +0.292 HD
ENDBRANCH   8  11
BRANCH   9  13
ATOM     13  O   UNL     1     -28.728  18.527  -0.844  0.00  0.00    -0.503 OA
ATOM     14  H   UNL     1     -28.445  17.659  -1.056  0.00  0.00    +0.292 HD
ENDBRANCH   9  13
ENDBRANCH   3   5
ENDBRANCH   2   4
BRANCH   2  15
ATOM     15  O   UNL     1     -35.659  21.734   3.054  0.00  0.00    -0.418 OA
BRANCH  15  17
ATOM     16  C   UNL     1     -35.302  22.316   5.339  0.00  0.00    +0.041 C 
ATOM     17  C   UNL     1     -35.433  21.399   4.375  0.00  0.00    +0.183 C 
BRANCH  16  18
ATOM     18  C   UNL     1     -35.378  23.774   5.145  0.00  0.00    +0.009 C 
ATOM     19  C   UNL     1     -36.526  24.327   4.601  0.00  0.00    +0.037 C 
ATOM     20  C   UNL     1     -34.299  24.565   5.509  0.00  0.00    +0.037 C 
ATOM     21  C   UNL     1     -34.371  25.946   5.324  0.00  0.00    +0.137 C 
ATOM     22  C   UNL     1     -36.597  25.707   4.415  0.00  0.00    +0.137 C 
ATOM     23  C   UNL     1     -35.520  26.517   4.776  0.00  0.00    +0.073 C 
BRANCH  21  24
ATOM     24  O   UNL     1     -33.320  26.735   5.677  0.00  0.00    -0.505 OA
ATOM     25  H   UNL     1     -32.577  26.361   6.107  0.00  0.00    +0.292 HD
ENDBRANCH  21  24
BRANCH  22  26
ATOM     26  O   UNL     1     -37.718  26.266   3.881  0.00  0.00    -0.505 OA
ATOM     27  H   UNL     1     -37.983  27.125   4.142  0.00  0.00    +0.292 HD
ENDBRANCH  22  26
ENDBRANCH  16  18
ENDBRANCH  15  17
ENDBRANCH   2  15
TORSDOF 9
ENDMDL
MODEL 6
REMARK VINA RESULT:      -5.9      4.627      8.610
REMARK  Name = 5316820
REMARK  9 active torsions:
REMARK  status: ('A' for Active; 'I' for Inactive)
REMARK    1  A    between atoms: C_2  and  C_4
REMARK    2  A    between atoms: C_2  and  O_15
REMARK    3  A    between atoms: C_3  and  C_5
REMARK    4  A    between atoms: C_8  and  O_11
REMARK    5  A    between atoms: C_9  and  O_13
REMARK    6  A    between atoms: O_15  and  C_17
REMARK    7  A    between atoms: C_16  and  C_18
REMARK    8  A    between atoms: C_21  and  O_24
REMARK    9  A    between atoms: C_22  and  O_26
REMARK                            x       y       z     vdW  Elec       q    Type
REMARK                         _______ _______ _______ _____ _____    ______ ____
ROOT
ATOM      1  O   UNL     1     -34.812  27.917   1.499  0.00  0.00    -0.244 OA
ATOM      2  C   UNL     1     -34.673  27.803   2.707  0.00  0.00    +0.346 C 
ENDROOT
BRANCH   2   4
ATOM      3  C   UNL     1     -35.479  25.575   3.366  0.00  0.00    +0.007 C 
ATOM      4  C   UNL     1     -34.510  26.516   3.426  0.00  0.00    +0.082 C 
BRANCH   3   5
ATOM      5  C   UNL     1     -35.439  24.283   4.033  0.00  0.00    +0.003 C 
ATOM      6  C   UNL     1     -35.632  23.113   3.299  0.00  0.00    +0.040 C 
ATOM      7  C   UNL     1     -35.208  24.214   5.406  0.00  0.00    +0.003 C 
ATOM      8  C   UNL     1     -35.593  21.874   3.937  0.00  0.00    +0.167 C 
ATOM      9  C   UNL     1     -35.361  21.805   5.312  0.00  0.00    +0.167 C 
ATOM     10  C   UNL     1     -35.169  22.975   6.047  0.00  0.00    +0.040 C 
BRANCH   8  11
ATOM     11  O   UNL     1     -35.782  20.738   3.210  0.00  0.00    -0.503 OA
ATOM     12  H   UNL     1     -36.634  20.528   2.883  0.00  0.00    +0.292 HD
ENDBRANCH   8  11
BRANCH   9  13
ATOM     13  O   UNL     1     -35.322  20.601   5.948  0.00  0.00    -0.503 OA
ATOM     14  H   UNL     1     -35.330  20.565   6.885  0.00  0.00    +0.292 HD
ENDBRANCH   9  13
ENDBRANCH   3   5
ENDBRANCH   2   4
BRANCH   2  15
ATOM     15  O   UNL     1     -34.626  28.794   3.647  0.00  0.00    -0.418 OA
BRANCH  15  17
ATOM     16  C   UNL     1     -32.918  30.456   3.540  0.00  0.00    +0.041 C 
ATOM     17  C   UNL     1     -34.118  29.990   3.177  0.00  0.00    +0.183 C 
BRANCH  16  18
ATOM     18  C   UNL     1     -31.988  29.787   4.465  0.00  0.00    +0.009 C 
ATOM     19  C   UNL     1     -30.996  28.965   3.954  0.00  0.00    +0.037 C 
ATOM     20  C   UNL     1     -32.124  29.989   5.829  0.00  0.00    +0.037 C 
ATOM     21  C   UNL     1     -31.243  29.354   6.705  0.00  0.00    +0.137 C 
ATOM     22  C   UNL     1     -30.116  28.330   4.829  0.00  0.00    +0.137 C 
ATOM     23  C   UNL     1     -30.240  28.524   6.206  0.00  0.00    +0.073 C 
BRANCH  21  24
ATOM     24  O   UNL     1     -31.364  29.544   8.048  0.00  0.00    -0.505 OA
ATOM     25  H   UNL     1     -30.695  30.002   8.518  0.00  0.00    +0.292 HD
ENDBRANCH  21  24
BRANCH  22  26
ATOM     26  O   UNL     1     -29.136  27.520   4.342  0.00  0.00    -0.505 OA
ATOM     27  H   UNL     1     -28.289  27.520   4.740  0.00  0.00    +0.292 HD
ENDBRANCH  22  26
ENDBRANCH  16  18
ENDBRANCH  15  17
ENDBRANCH   2  15
TORSDOF 9
ENDMDL
MODEL 7
REMARK VINA RESULT:      -5.8      5.578      9.662
REMARK  Name = 5316820
REMARK  9 active torsions:
REMARK  status: ('A' for Active; 'I' for Inactive)
REMARK    1  A    between atoms: C_2  and  C_4
REMARK    2  A    between atoms: C_2  and  O_15
REMARK    3  A    between atoms: C_3  and  C_5
REMARK    4  A    between atoms: C_8  and  O_11
REMARK    5  A    between atoms: C_9  and  O_13
REMARK    6  A    between atoms: O_15  and  C_17
REMARK    7  A    between atoms: C_16  and  C_18
REMARK    8  A    between atoms: C_21  and  O_24
REMARK    9  A    between atoms: C_22  and  O_26
REMARK                            x       y       z     vdW  Elec       q    Type
REMARK                         _______ _______ _______ _____ _____    ______ ____
ROOT
ATOM      1  O   UNL     1     -33.686  28.561   3.924  0.00  0.00    -0.244 OA
ATOM      2  C   UNL     1     -33.103  27.546   4.273  0.00  0.00    +0.346 C 
ENDROOT
BRANCH   2   4
ATOM      3  C   UNL     1     -34.387  25.462   4.507  0.00  0.00    +0.007 C 
ATOM      4  C   UNL     1     -33.451  26.172   3.838  0.00  0.00    +0.082 C 
BRANCH   3   5
ATOM      5  C   UNL     1     -34.807  24.108   4.183  0.00  0.00    +0.003 C 
ATOM      6  C   UNL     1     -34.925  23.153   5.193  0.00  0.00    +0.040 C 
ATOM      7  C   UNL     1     -35.090  23.763   2.861  0.00  0.00    +0.003 C 
ATOM      8  C   UNL     1     -35.327  21.855   4.882  0.00  0.00    +0.167 C 
ATOM      9  C   UNL     1     -35.611  21.510   3.560  0.00  0.00    +0.167 C 
ATOM     10  C   UNL     1     -35.492  22.465   2.549  0.00  0.00    +0.040 C 
BRANCH   8  11
ATOM     11  O   UNL     1     -35.440  20.932   5.877  0.00  0.00    -0.503 OA
ATOM     12  H   UNL     1     -36.278  20.572   6.091  0.00  0.00    +0.292 HD
ENDBRANCH   8  11
BRANCH   9  13
ATOM     13  O   UNL     1     -36.005  20.245   3.243  0.00  0.00    -0.503 OA
ATOM     14  H   UNL     1     -36.280  19.657   3.919  0.00  0.00    +0.292 HD
ENDBRANCH   9  13
ENDBRANCH   3   5
ENDBRANCH   2   4
BRANCH   2  15
ATOM     15  O   UNL     1     -32.025  27.439   5.108  0.00  0.00    -0.418 OA
BRANCH  15  17
ATOM     16  C   UNL     1     -31.756  29.057   6.840  0.00  0.00    +0.041 C 
ATOM     17  C   UNL     1     -32.259  27.903   6.388  0.00  0.00    +0.183 C 
BRANCH  16  18
ATOM     18  C   UNL     1     -30.906  29.977   6.067  0.00  0.00    +0.009 C 
ATOM     19  C   UNL     1     -31.500  30.942   5.269  0.00  0.00    +0.037 C 
ATOM     20  C   UNL     1     -29.527  29.859   6.148  0.00  0.00    +0.037 C 
ATOM     21  C   UNL     1     -28.722  30.731   5.414  0.00  0.00    +0.137 C 
ATOM     22  C   UNL     1     -30.695  31.813   4.535  0.00  0.00    +0.137 C 
ATOM     23  C   UNL     1     -29.305  31.707   4.607  0.00  0.00    +0.073 C 
BRANCH  21  24
ATOM     24  O   UNL     1     -27.366  30.627   5.485  0.00  0.00    -0.505 OA
ATOM     25  H   UNL     1     -26.833  31.395   5.410  0.00  0.00    +0.292 HD
ENDBRANCH  21  24
BRANCH  22  26
ATOM     26  O   UNL     1     -31.264  32.766   3.747  0.00  0.00    -0.505 OA
ATOM     27  H   UNL     1     -31.595  33.554   4.131  0.00  0.00    +0.292 HD
ENDBRANCH  22  26
ENDBRANCH  16  18
ENDBRANCH  15  17
ENDBRANCH   2  15
TORSDOF 9
ENDMDL
MODEL 8
REMARK VINA RESULT:      -5.8      4.091      7.831
REMARK  Name = 5316820
REMARK  9 active torsions:
REMARK  status: ('A' for Active; 'I' for Inactive)
REMARK    1  A    between atoms: C_2  and  C_4
REMARK    2  A    between atoms: C_2  and  O_15
REMARK    3  A    between atoms: C_3  and  C_5
REMARK    4  A    between atoms: C_8  and  O_11
REMARK    5  A    between atoms: C_9  and  O_13
REMARK    6  A    between atoms: O_15  and  C_17
REMARK    7  A    between atoms: C_16  and  C_18
REMARK    8  A    between atoms: C_21  and  O_24
REMARK    9  A    between atoms: C_22  and  O_26
REMARK                            x       y       z     vdW  Elec       q    Type
REMARK                         _______ _______ _______ _____ _____    ______ ____
ROOT
ATOM      1  O   UNL     1     -37.048  27.997   1.597  0.00  0.00    -0.244 OA
ATOM      2  C   UNL     1     -35.998  27.621   2.095  0.00  0.00    +0.346 C 
ENDROOT
BRANCH   2   4
ATOM      3  C   UNL     1     -36.105  25.769   3.709  0.00  0.00    +0.007 C 
ATOM      4  C   UNL     1     -35.701  26.226   2.502  0.00  0.00    +0.082 C 
BRANCH   3   5
ATOM      5  C   UNL     1     -35.867  24.429   4.222  0.00  0.00    +0.003 C 
ATOM      6  C   UNL     1     -36.102  23.318   3.411  0.00  0.00    +0.040 C 
ATOM      7  C   UNL     1     -35.405  24.253   5.526  0.00  0.00    +0.003 C 
ATOM      8  C   UNL     1     -35.874  22.034   3.903  0.00  0.00    +0.167 C 
ATOM      9  C   UNL     1     -35.411  21.858   5.208  0.00  0.00    +0.167 C 
ATOM     10  C   UNL     1     -35.177  22.969   6.020  0.00  0.00    +0.040 C 
BRANCH   8  11
ATOM     11  O   UNL     1     -36.106  20.958   3.101  0.00  0.00    -0.503 OA
ATOM     12  H   UNL     1     -35.406  20.585   2.603  0.00  0.00    +0.292 HD
ENDBRANCH   8  11
BRANCH   9  13
ATOM     13  O   UNL     1     -35.185  20.609   5.701  0.00  0.00    -0.503 OA
ATOM     14  H   UNL     1     -35.264  19.862   5.139  0.00  0.00    +0.292 HD
ENDBRANCH   9  13
ENDBRANCH   3   5
ENDBRANCH   2   4
BRANCH   2  15
ATOM     15  O   UNL     1     -34.885  28.364   2.375  0.00  0.00    -0.418 OA
BRANCH  15  17
ATOM     16  C   UNL     1     -32.541  27.921   2.390  0.00  0.00    +0.041 C 
ATOM     17  C   UNL     1     -33.731  27.893   1.779  0.00  0.00    +0.183 C 
BRANCH  16  18
ATOM     18  C   UNL     1     -32.290  28.441   3.744  0.00  0.00    +0.009 C 
ATOM     19  C   UNL     1     -31.863  29.750   3.901  0.00  0.00    +0.037 C 
ATOM     20  C   UNL     1     -32.484  27.611   4.837  0.00  0.00    +0.037 C 
ATOM     21  C   UNL     1     -32.245  28.104   6.120  0.00  0.00    +0.137 C 
ATOM     22  C   UNL     1     -31.624  30.243   5.183  0.00  0.00    +0.137 C 
ATOM     23  C   UNL     1     -31.814  29.419   6.294  0.00  0.00    +0.073 C 
BRANCH  21  24
ATOM     24  O   UNL     1     -32.431  27.300   7.204  0.00  0.00    -0.505 OA
ATOM     25  H   UNL     1     -33.171  26.726   7.240  0.00  0.00    +0.292 HD
ENDBRANCH  21  24
BRANCH  22  26
ATOM     26  O   UNL     1     -31.204  31.526   5.353  0.00  0.00    -0.505 OA
ATOM     27  H   UNL     1     -31.698  32.232   4.986  0.00  0.00    +0.292 HD
ENDBRANCH  22  26
ENDBRANCH  16  18
ENDBRANCH  15  17
ENDBRANCH   2  15
TORSDOF 9
ENDMDL
MODEL 9
REMARK VINA RESULT:      -5.7      3.010      5.858
REMARK  Name = 5316820
REMARK  9 active torsions:
REMARK  status: ('A' for Active; 'I' for Inactive)
REMARK    1  A    between atoms: C_2  and  C_4
REMARK    2  A    between atoms: C_2  and  O_15
REMARK    3  A    between atoms: C_3  and  C_5
REMARK    4  A    between atoms: C_8  and  O_11
REMARK    5  A    between atoms: C_9  and  O_13
REMARK    6  A    between atoms: O_15  and  C_17
REMARK    7  A    between atoms: C_16  and  C_18
REMARK    8  A    between atoms: C_21  and  O_24
REMARK    9  A    between atoms: C_22  and  O_26
REMARK                            x       y       z     vdW  Elec       q    Type
REMARK                         _______ _______ _______ _____ _____    ______ ____
ROOT
ATOM      1  O   UNL     1     -32.499  26.259  -0.281  0.00  0.00    -0.244 OA
ATOM      2  C   UNL     1     -32.930  25.693   0.712  0.00  0.00    +0.346 C 
ENDROOT
BRANCH   2   4
ATOM      3  C   UNL     1     -34.373  23.855   1.477  0.00  0.00    +0.007 C 
ATOM      4  C   UNL     1     -34.248  25.018   0.801  0.00  0.00    +0.082 C 
BRANCH   3   5
ATOM      5  C   UNL     1     -35.605  23.097   1.627  0.00  0.00    +0.003 C 
ATOM      6  C   UNL     1     -35.563  21.779   2.082  0.00  0.00    +0.040 C 
ATOM      7  C   UNL     1     -36.829  23.688   1.315  0.00  0.00    +0.003 C 
ATOM      8  C   UNL     1     -36.745  21.053   2.225  0.00  0.00    +0.167 C 
ATOM      9  C   UNL     1     -37.970  21.644   1.913  0.00  0.00    +0.167 C 
ATOM     10  C   UNL     1     -38.012  22.962   1.458  0.00  0.00    +0.040 C 
BRANCH   8  11
ATOM     11  O   UNL     1     -36.691  19.767   2.670  0.00  0.00    -0.503 OA
ATOM     12  H   UNL     1     -36.892  19.571   3.564  0.00  0.00    +0.292 HD
ENDBRANCH   8  11
BRANCH   9  13
ATOM     13  O   UNL     1     -39.131  20.945   2.049  0.00  0.00    -0.503 OA
ATOM     14  H   UNL     1     -39.690  21.103   2.785  0.00  0.00    +0.292 HD
ENDBRANCH   9  13
ENDBRANCH   3   5
ENDBRANCH   2   4
BRANCH   2  15
ATOM     15  O   UNL     1     -32.321  25.543   1.927  0.00  0.00    -0.418 OA
BRANCH  15  17
ATOM     16  C   UNL     1     -33.061  27.029   3.640  0.00  0.00    +0.041 C 
ATOM     17  C   UNL     1     -32.217  26.715   2.651  0.00  0.00    +0.183 C 
BRANCH  16  18
ATOM     18  C   UNL     1     -34.191  26.200   4.091  0.00  0.00    +0.009 C 
ATOM     19  C   UNL     1     -35.486  26.594   3.790  0.00  0.00    +0.037 C 
ATOM     20  C   UNL     1     -33.940  25.041   4.810  0.00  0.00    +0.037 C 
ATOM     21  C   UNL     1     -35.011  24.257   5.238  0.00  0.00    +0.137 C 
ATOM     22  C   UNL     1     -36.556  25.810   4.219  0.00  0.00    +0.137 C 
ATOM     23  C   UNL     1     -36.319  24.641   4.944  0.00  0.00    +0.073 C 
BRANCH  21  24
ATOM     24  O   UNL     1     -34.779  23.116   5.945  0.00  0.00    -0.505 OA
ATOM     25  H   UNL     1     -34.056  22.564   5.720  0.00  0.00    +0.292 HD
ENDBRANCH  21  24
BRANCH  22  26
ATOM     26  O   UNL     1     -37.833  26.184   3.932  0.00  0.00    -0.505 OA
ATOM     27  H   UNL     1     -38.518  26.024   4.550  0.00  0.00    +0.292 HD
ENDBRANCH  22  26
ENDBRANCH  16  18
ENDBRANCH  15  17
ENDBRANCH   2  15
TORSDOF 9
ENDMDL
