MODEL 1
REMARK VINA RESULT:      -5.7      0.000      0.000
REMARK  Name = 193283
REMARK  6 active torsions:
REMARK  status: ('A' for Active; 'I' for Inactive)
REMARK    1  A    between atoms: C_1  and  C_14
REMARK    2  A    between atoms: C_3  and  O_9
REMARK    3  A    between atoms: C_5  and  O_7
REMARK    4  A    between atoms: O_9  and  S_10
REMARK    5  A    between atoms: C_14  and  C_16
REMARK    6  A    between atoms: C_16  and  O_17
REMARK                            x       y       z     vdW  Elec       q    Type
REMARK                         _______ _______ _______ _____ _____    ______ ____
ROOT
ATOM      1  C   UNL     1     -35.270  24.004   4.462  0.00  0.00    -0.008 C 
ATOM      2  C   UNL     1     -34.193  24.347   3.644  0.00  0.00    +0.036 C 
ATOM      3  C   UNL     1     -34.142  26.549   4.637  0.00  0.00    +0.209 C 
ATOM      4  C   UNL     1     -35.782  24.932   5.368  0.00  0.00    -0.000 C 
ATOM      5  C   UNL     1     -33.629  25.620   3.731  0.00  0.00    +0.170 C 
ATOM      6  C   UNL     1     -35.218  26.206   5.455  0.00  0.00    +0.043 C 
ENDROOT
BRANCH   5   7
ATOM      7  O   UNL     1     -32.580  25.945   2.926  0.00  0.00    -0.503 OA
ATOM      8  H   UNL     1     -31.965  25.286   2.670  0.00  0.00    +0.292 HD
ENDBRANCH   5   7
BRANCH   3   9
ATOM      9  O   UNL     1     -33.601  27.795   4.731  0.00  0.00    -0.319 OA
BRANCH   9  10
ATOM     10  S   UNL     1     -32.285  28.020   5.691  0.00  0.00    +0.282 S 
ATOM     11  O   UNL     1     -31.022  27.765   4.690  0.00  0.00    -0.012 OA
ATOM     12  O   UNL     1     -32.243  29.407   6.118  0.00  0.00    -0.105 OA
ATOM     13  O   UNL     1     -32.277  26.958   6.680  0.00  0.00    -0.105 OA
ENDBRANCH   9  10
ENDBRANCH   3   9
BRANCH   1  14
ATOM     14  C   UNL     1     -35.871  22.642   4.369  0.00  0.00    +0.136 C 
BRANCH  14  16
ATOM     15  O   UNL     1     -35.934  22.091   6.740  0.00  0.00    -0.250 OA
ATOM     16  C   UNL     1     -35.624  21.787   5.597  0.00  0.00    +0.318 C 
BRANCH  16  17
ATOM     17  O   UNL     1     -35.006  20.618   5.284  0.00  0.00    -0.480 OA
ATOM     18  H   UNL     1     -35.325  20.095   4.576  0.00  0.00    +0.295 HD
ENDBRANCH  16  17
ENDBRANCH  14  16
ENDBRANCH   1  14
TORSDOF 6
ENDMDL
MODEL 2
REMARK VINA RESULT:      -5.7      2.524      3.483
REMARK  Name = 193283
REMARK  6 active torsions:
REMARK  status: ('A' for Active; 'I' for Inactive)
REMARK    1  A    between atoms: C_1  and  C_14
REMARK    2  A    between atoms: C_3  and  O_9
REMARK    3  A    between atoms: C_5  and  O_7
REMARK    4  A    between atoms: O_9  and  S_10
REMARK    5  A    between atoms: C_14  and  C_16
REMARK    6  A    between atoms: C_16  and  O_17
REMARK                            x       y       z     vdW  Elec       q    Type
REMARK                         _______ _______ _______ _____ _____    ______ ____
ROOT
ATOM      1  C   UNL     1     -36.994  22.761   3.164  0.00  0.00    -0.008 C 
ATOM      2  C   UNL     1     -37.449  24.079   3.213  0.00  0.00    +0.036 C 
ATOM      3  C   UNL     1     -35.836  24.570   4.944  0.00  0.00    +0.209 C 
ATOM      4  C   UNL     1     -35.961  22.347   4.004  0.00  0.00    -0.000 C 
ATOM      5  C   UNL     1     -36.870  24.984   4.103  0.00  0.00    +0.170 C 
ATOM      6  C   UNL     1     -35.382  23.252   4.894  0.00  0.00    +0.043 C 
ENDROOT
BRANCH   5   7
ATOM      7  O   UNL     1     -37.323  26.267   4.144  0.00  0.00    -0.503 OA
ATOM      8  H   UNL     1     -38.136  26.490   3.734  0.00  0.00    +0.292 HD
ENDBRANCH   5   7
BRANCH   3   9
ATOM      9  O   UNL     1     -35.263  25.443   5.817  0.00  0.00    -0.319 OA
BRANCH   9  10
ATOM     10  S   UNL     1     -33.954  26.310   5.332  0.00  0.00    +0.282 S 
ATOM     11  O   UNL     1     -34.590  27.501   4.416  0.00  0.00    -0.012 OA
ATOM     12  O   UNL     1     -33.335  26.922   6.493  0.00  0.00    -0.105 OA
ATOM     13  O   UNL     1     -33.167  25.462   4.455  0.00  0.00    -0.105 OA
ENDBRANCH   9  10
ENDBRANCH   3   9
BRANCH   1  14
ATOM     14  C   UNL     1     -37.613  21.795   2.211  0.00  0.00    +0.136 C 
BRANCH  14  16
ATOM     15  O   UNL     1     -35.812  20.802   0.907  0.00  0.00    -0.250 OA
ATOM     16  C   UNL     1     -36.670  20.692   1.771  0.00  0.00    +0.318 C 
BRANCH  16  17
ATOM     17  O   UNL     1     -36.885  19.539   2.458  0.00  0.00    -0.480 OA
ATOM     18  H   UNL     1     -37.691  19.410   2.916  0.00  0.00    +0.295 HD
ENDBRANCH  16  17
ENDBRANCH  14  16
ENDBRANCH   1  14
TORSDOF 6
ENDMDL
MODEL 3
REMARK VINA RESULT:      -5.6      3.424      4.281
REMARK  Name = 193283
REMARK  6 active torsions:
REMARK  status: ('A' for Active; 'I' for Inactive)
REMARK    1  A    between atoms: C_1  and  C_14
REMARK    2  A    between atoms: C_3  and  O_9
REMARK    3  A    between atoms: C_5  and  O_7
REMARK    4  A    between atoms: O_9  and  S_10
REMARK    5  A    between atoms: C_14  and  C_16
REMARK    6  A    between atoms: C_16  and  O_17
REMARK                            x       y       z     vdW  Elec       q    Type
REMARK                         _______ _______ _______ _____ _____    ______ ____
ROOT
ATOM      1  C   UNL     1     -37.491  22.808   2.634  0.00  0.00    -0.008 C 
ATOM      2  C   UNL     1     -37.926  24.109   2.894  0.00  0.00    +0.036 C 
ATOM      3  C   UNL     1     -36.207  24.347   4.575  0.00  0.00    +0.209 C 
ATOM      4  C   UNL     1     -36.414  22.278   3.344  0.00  0.00    -0.000 C 
ATOM      5  C   UNL     1     -37.284  24.878   3.865  0.00  0.00    +0.170 C 
ATOM      6  C   UNL     1     -35.772  23.047   4.315  0.00  0.00    +0.043 C 
ENDROOT
BRANCH   5   7
ATOM      7  O   UNL     1     -37.718  26.145   4.111  0.00  0.00    -0.503 OA
ATOM      8  H   UNL     1     -37.749  26.773   3.416  0.00  0.00    +0.292 HD
ENDBRANCH   5   7
BRANCH   3   9
ATOM      9  O   UNL     1     -35.571  25.087   5.525  0.00  0.00    -0.319 OA
BRANCH   9  10
ATOM     10  S   UNL     1     -34.320  26.053   5.075  0.00  0.00    +0.282 S 
ATOM     11  O   UNL     1     -33.701  26.577   6.491  0.00  0.00    -0.012 OA
ATOM     12  O   UNL     1     -33.310  25.243   4.419  0.00  0.00    -0.105 OA
ATOM     13  O   UNL     1     -34.878  27.206   4.393  0.00  0.00    -0.105 OA
ENDBRANCH   9  10
ENDBRANCH   3   9
BRANCH   1  14
ATOM     14  C   UNL     1     -38.178  21.987   1.596  0.00  0.00    +0.136 C 
BRANCH  14  16
ATOM     15  O   UNL     1     -40.461  22.759   1.248  0.00  0.00    -0.250 OA
ATOM     16  C   UNL     1     -39.686  21.957   1.750  0.00  0.00    +0.318 C 
BRANCH  16  17
ATOM     17  O   UNL     1     -40.096  20.917   2.523  0.00  0.00    -0.480 OA
ATOM     18  H   UNL     1     -39.789  20.840   3.404  0.00  0.00    +0.295 HD
ENDBRANCH  16  17
ENDBRANCH  14  16
ENDBRANCH   1  14
TORSDOF 6
ENDMDL
MODEL 4
REMARK VINA RESULT:      -5.4      3.132      6.238
REMARK  Name = 193283
REMARK  6 active torsions:
REMARK  status: ('A' for Active; 'I' for Inactive)
REMARK    1  A    between atoms: C_1  and  C_14
REMARK    2  A    between atoms: C_3  and  O_9
REMARK    3  A    between atoms: C_5  and  O_7
REMARK    4  A    between atoms: O_9  and  S_10
REMARK    5  A    between atoms: C_14  and  C_16
REMARK    6  A    between atoms: C_16  and  O_17
REMARK                            x       y       z     vdW  Elec       q    Type
REMARK                         _______ _______ _______ _____ _____    ______ ____
ROOT
ATOM      1  C   UNL     1     -35.599  24.606   4.918  0.00  0.00    -0.008 C 
ATOM      2  C   UNL     1     -35.302  23.336   5.413  0.00  0.00    +0.036 C 
ATOM      3  C   UNL     1     -36.211  22.342   3.407  0.00  0.00    +0.209 C 
ATOM      4  C   UNL     1     -36.201  24.745   3.668  0.00  0.00    -0.000 C 
ATOM      5  C   UNL     1     -35.608  22.204   4.658  0.00  0.00    +0.170 C 
ATOM      6  C   UNL     1     -36.508  23.612   2.912  0.00  0.00    +0.043 C 
ENDROOT
BRANCH   5   7
ATOM      7  O   UNL     1     -35.315  20.969   5.152  0.00  0.00    -0.503 OA
ATOM      8  H   UNL     1     -34.807  20.886   5.935  0.00  0.00    +0.292 HD
ENDBRANCH   5   7
BRANCH   3   9
ATOM      9  O   UNL     1     -36.515  21.245   2.660  0.00  0.00    -0.319 OA
BRANCH   9  10
ATOM     10  S   UNL     1     -35.355  20.592   1.696  0.00  0.00    +0.282 S 
ATOM     11  O   UNL     1     -36.182  19.590   0.711  0.00  0.00    -0.012 OA
ATOM     12  O   UNL     1     -34.774  21.642   0.879  0.00  0.00    -0.105 OA
ATOM     13  O   UNL     1     -34.500  19.770   2.533  0.00  0.00    -0.105 OA
ENDBRANCH   9  10
ENDBRANCH   3   9
BRANCH   1  14
ATOM     14  C   UNL     1     -35.270  25.816   5.726  0.00  0.00    +0.136 C 
BRANCH  14  16
ATOM     15  O   UNL     1     -33.142  26.121   4.581  0.00  0.00    -0.250 OA
ATOM     16  C   UNL     1     -33.829  26.264   5.583  0.00  0.00    +0.318 C 
BRANCH  16  17
ATOM     17  O   UNL     1     -33.369  26.859   6.716  0.00  0.00    -0.480 OA
ATOM     18  H   UNL     1     -32.993  27.715   6.676  0.00  0.00    +0.295 HD
ENDBRANCH  16  17
ENDBRANCH  14  16
ENDBRANCH   1  14
TORSDOF 6
ENDMDL
MODEL 5
REMARK VINA RESULT:      -5.2      1.617      2.194
REMARK  Name = 193283
REMARK  6 active torsions:
REMARK  status: ('A' for Active; 'I' for Inactive)
REMARK    1  A    between atoms: C_1  and  C_14
REMARK    2  A    between atoms: C_3  and  O_9
REMARK    3  A    between atoms: C_5  and  O_7
REMARK    4  A    between atoms: O_9  and  S_10
REMARK    5  A    between atoms: C_14  and  C_16
REMARK    6  A    between atoms: C_16  and  O_17
REMARK                            x       y       z     vdW  Elec       q    Type
REMARK                         _______ _______ _______ _____ _____    ______ ____
ROOT
ATOM      1  C   UNL     1     -35.846  23.972   4.023  0.00  0.00    -0.008 C 
ATOM      2  C   UNL     1     -36.098  25.288   3.633  0.00  0.00    +0.036 C 
ATOM      3  C   UNL     1     -34.418  26.067   5.186  0.00  0.00    +0.209 C 
ATOM      4  C   UNL     1     -34.881  23.703   4.992  0.00  0.00    -0.000 C 
ATOM      5  C   UNL     1     -35.384  26.336   4.216  0.00  0.00    +0.170 C 
ATOM      6  C   UNL     1     -34.167  24.751   5.574  0.00  0.00    +0.043 C 
ENDROOT
BRANCH   5   7
ATOM      7  O   UNL     1     -35.639  27.616   3.829  0.00  0.00    -0.503 OA
ATOM      8  H   UNL     1     -36.304  27.790   3.193  0.00  0.00    +0.292 HD
ENDBRANCH   5   7
BRANCH   3   9
ATOM      9  O   UNL     1     -33.714  27.081   5.762  0.00  0.00    -0.319 OA
BRANCH   9  10
ATOM     10  S   UNL     1     -32.530  27.820   4.895  0.00  0.00    +0.282 S 
ATOM     11  O   UNL     1     -32.230  26.779   3.675  0.00  0.00    -0.012 OA
ATOM     12  O   UNL     1     -33.059  29.042   4.318  0.00  0.00    -0.105 OA
ATOM     13  O   UNL     1     -31.341  27.867   5.726  0.00  0.00    -0.105 OA
ENDBRANCH   9  10
ENDBRANCH   3   9
BRANCH   1  14
ATOM     14  C   UNL     1     -36.609  22.852   3.399  0.00  0.00    +0.136 C 
BRANCH  14  16
ATOM     15  O   UNL     1     -35.004  21.791   1.907  0.00  0.00    -0.250 OA
ATOM     16  C   UNL     1     -35.726  21.729   2.891  0.00  0.00    +0.318 C 
BRANCH  16  17
ATOM     17  O   UNL     1     -35.826  20.617   3.667  0.00  0.00    -0.480 OA
ATOM     18  H   UNL     1     -35.051  20.184   3.966  0.00  0.00    +0.295 HD
ENDBRANCH  16  17
ENDBRANCH  14  16
ENDBRANCH   1  14
TORSDOF 6
ENDMDL
MODEL 6
REMARK VINA RESULT:      -5.2      3.262      3.963
REMARK  Name = 193283
REMARK  6 active torsions:
REMARK  status: ('A' for Active; 'I' for Inactive)
REMARK    1  A    between atoms: C_1  and  C_14
REMARK    2  A    between atoms: C_3  and  O_9
REMARK    3  A    between atoms: C_5  and  O_7
REMARK    4  A    between atoms: O_9  and  S_10
REMARK    5  A    between atoms: C_14  and  C_16
REMARK    6  A    between atoms: C_16  and  O_17
REMARK                            x       y       z     vdW  Elec       q    Type
REMARK                         _______ _______ _______ _____ _____    ______ ____
ROOT
ATOM      1  C   UNL     1     -37.556  23.185   2.672  0.00  0.00    -0.008 C 
ATOM      2  C   UNL     1     -36.567  22.572   3.442  0.00  0.00    +0.036 C 
ATOM      3  C   UNL     1     -36.251  24.627   4.673  0.00  0.00    +0.209 C 
ATOM      4  C   UNL     1     -37.893  24.519   2.903  0.00  0.00    -0.000 C 
ATOM      5  C   UNL     1     -35.914  23.293   4.442  0.00  0.00    +0.170 C 
ATOM      6  C   UNL     1     -37.240  25.240   3.904  0.00  0.00    +0.043 C 
ENDROOT
BRANCH   5   7
ATOM      7  O   UNL     1     -34.950  22.684   5.186  0.00  0.00    -0.503 OA
ATOM      8  H   UNL     1     -34.578  23.125   5.924  0.00  0.00    +0.292 HD
ENDBRANCH   5   7
BRANCH   3   9
ATOM      9  O   UNL     1     -35.621  25.341   5.646  0.00  0.00    -0.319 OA
BRANCH   9  10
ATOM     10  S   UNL     1     -34.279  26.205   5.257  0.00  0.00    +0.282 S 
ATOM     11  O   UNL     1     -33.314  25.117   4.518  0.00  0.00    -0.012 OA
ATOM     12  O   UNL     1     -34.635  27.220   4.282  0.00  0.00    -0.105 OA
ATOM     13  O   UNL     1     -33.629  26.589   6.497  0.00  0.00    -0.105 OA
ENDBRANCH   9  10
ENDBRANCH   3   9
BRANCH   1  14
ATOM     14  C   UNL     1     -38.254  22.414   1.604  0.00  0.00    +0.136 C 
BRANCH  14  16
ATOM     15  O   UNL     1     -40.568  23.168   1.695  0.00  0.00    -0.250 OA
ATOM     16  C   UNL     1     -39.746  22.274   1.836  0.00  0.00    +0.318 C 
BRANCH  16  17
ATOM     17  O   UNL     1     -40.081  21.016   2.229  0.00  0.00    -0.480 OA
ATOM     18  H   UNL     1     -39.928  20.291   1.657  0.00  0.00    +0.295 HD
ENDBRANCH  16  17
ENDBRANCH  14  16
ENDBRANCH   1  14
TORSDOF 6
ENDMDL
MODEL 7
REMARK VINA RESULT:      -5.2      3.388      6.029
REMARK  Name = 193283
REMARK  6 active torsions:
REMARK  status: ('A' for Active; 'I' for Inactive)
REMARK    1  A    between atoms: C_1  and  C_14
REMARK    2  A    between atoms: C_3  and  O_9
REMARK    3  A    between atoms: C_5  and  O_7
REMARK    4  A    between atoms: O_9  and  S_10
REMARK    5  A    between atoms: C_14  and  C_16
REMARK    6  A    between atoms: C_16  and  O_17
REMARK                            x       y       z     vdW  Elec       q    Type
REMARK                         _______ _______ _______ _____ _____    ______ ____
ROOT
ATOM      1  C   UNL     1     -34.422  25.728   5.596  0.00  0.00    -0.008 C 
ATOM      2  C   UNL     1     -35.634  26.244   5.134  0.00  0.00    +0.036 C 
ATOM      3  C   UNL     1     -36.332  24.022   4.489  0.00  0.00    +0.209 C 
ATOM      4  C   UNL     1     -34.166  24.360   5.505  0.00  0.00    -0.000 C 
ATOM      5  C   UNL     1     -36.589  25.390   4.580  0.00  0.00    +0.170 C 
ATOM      6  C   UNL     1     -35.121  23.507   4.951  0.00  0.00    +0.043 C 
ENDROOT
BRANCH   5   7
ATOM      7  O   UNL     1     -37.767  25.905   4.131  0.00  0.00    -0.503 OA
ATOM      8  H   UNL     1     -37.771  26.692   3.622  0.00  0.00    +0.292 HD
ENDBRANCH   5   7
BRANCH   3   9
ATOM      9  O   UNL     1     -37.256  23.179   3.950  0.00  0.00    -0.319 OA
BRANCH   9  10
ATOM     10  S   UNL     1     -37.286  22.968   2.321  0.00  0.00    +0.282 S 
ATOM     11  O   UNL     1     -38.364  24.077   1.802  0.00  0.00    -0.012 OA
ATOM     12  O   UNL     1     -35.988  23.317   1.774  0.00  0.00    -0.105 OA
ATOM     13  O   UNL     1     -37.853  21.657   2.058  0.00  0.00    -0.105 OA
ENDBRANCH   9  10
ENDBRANCH   3   9
BRANCH   1  14
ATOM     14  C   UNL     1     -33.403  26.641   6.189  0.00  0.00    +0.136 C 
BRANCH  14  16
ATOM     15  O   UNL     1     -32.275  27.125   4.086  0.00  0.00    -0.250 OA
ATOM     16  C   UNL     1     -32.703  27.512   5.164  0.00  0.00    +0.318 C 
BRANCH  16  17
ATOM     17  O   UNL     1     -32.599  28.801   5.582  0.00  0.00    -0.480 OA
ATOM     18  H   UNL     1     -33.190  29.133   6.228  0.00  0.00    +0.295 HD
ENDBRANCH  16  17
ENDBRANCH  14  16
ENDBRANCH   1  14
TORSDOF 6
ENDMDL
MODEL 8
REMARK VINA RESULT:      -5.2      1.683      2.589
REMARK  Name = 193283
REMARK  6 active torsions:
REMARK  status: ('A' for Active; 'I' for Inactive)
REMARK    1  A    between atoms: C_1  and  C_14
REMARK    2  A    between atoms: C_3  and  O_9
REMARK    3  A    between atoms: C_5  and  O_7
REMARK    4  A    between atoms: O_9  and  S_10
REMARK    5  A    between atoms: C_14  and  C_16
REMARK    6  A    between atoms: C_16  and  O_17
REMARK                            x       y       z     vdW  Elec       q    Type
REMARK                         _______ _______ _______ _____ _____    ______ ____
ROOT
ATOM      1  C   UNL     1     -34.962  25.991   4.944  0.00  0.00    -0.008 C 
ATOM      2  C   UNL     1     -34.135  26.058   6.066  0.00  0.00    +0.036 C 
ATOM      3  C   UNL     1     -32.738  27.677   4.940  0.00  0.00    +0.209 C 
ATOM      4  C   UNL     1     -34.677  26.767   3.821  0.00  0.00    -0.000 C 
ATOM      5  C   UNL     1     -33.023  26.901   6.064  0.00  0.00    +0.170 C 
ATOM      6  C   UNL     1     -33.565  27.610   3.819  0.00  0.00    +0.043 C 
ENDROOT
BRANCH   5   7
ATOM      7  O   UNL     1     -32.222  26.957   7.164  0.00  0.00    -0.503 OA
ATOM      8  H   UNL     1     -31.695  26.219   7.398  0.00  0.00    +0.292 HD
ENDBRANCH   5   7
BRANCH   3   9
ATOM      9  O   UNL     1     -31.657  28.504   4.925  0.00  0.00    -0.319 OA
BRANCH   9  10
ATOM     10  S   UNL     1     -31.779  29.987   5.622  0.00  0.00    +0.282 S 
ATOM     11  O   UNL     1     -30.478  30.793   5.059  0.00  0.00    -0.012 OA
ATOM     12  O   UNL     1     -32.968  30.650   5.118  0.00  0.00    -0.105 OA
ATOM     13  O   UNL     1     -31.597  29.816   7.052  0.00  0.00    -0.105 OA
ENDBRANCH   9  10
ENDBRANCH   3   9
BRANCH   1  14
ATOM     14  C   UNL     1     -36.150  25.091   4.948  0.00  0.00    +0.136 C 
BRANCH  14  16
ATOM     15  O   UNL     1     -36.029  22.878   5.958  0.00  0.00    -0.250 OA
ATOM     16  C   UNL     1     -35.793  23.619   5.014  0.00  0.00    +0.318 C 
BRANCH  16  17
ATOM     17  O   UNL     1     -35.166  23.199   3.884  0.00  0.00    -0.480 OA
ATOM     18  H   UNL     1     -35.208  22.298   3.632  0.00  0.00    +0.295 HD
ENDBRANCH  16  17
ENDBRANCH  14  16
ENDBRANCH   1  14
TORSDOF 6
ENDMDL
MODEL 9
REMARK VINA RESULT:      -5.2      3.412      6.353
REMARK  Name = 193283
REMARK  6 active torsions:
REMARK  status: ('A' for Active; 'I' for Inactive)
REMARK    1  A    between atoms: C_1  and  C_14
REMARK    2  A    between atoms: C_3  and  O_9
REMARK    3  A    between atoms: C_5  and  O_7
REMARK    4  A    between atoms: O_9  and  S_10
REMARK    5  A    between atoms: C_14  and  C_16
REMARK    6  A    between atoms: C_16  and  O_17
REMARK                            x       y       z     vdW  Elec       q    Type
REMARK                         _______ _______ _______ _____ _____    ______ ____
ROOT
ATOM      1  C   UNL     1     -35.804  23.952   4.903  0.00  0.00    -0.008 C 
ATOM      2  C   UNL     1     -36.522  23.816   3.714  0.00  0.00    +0.036 C 
ATOM      3  C   UNL     1     -35.780  21.524   3.531  0.00  0.00    +0.209 C 
ATOM      4  C   UNL     1     -35.075  22.875   5.406  0.00  0.00    -0.000 C 
ATOM      5  C   UNL     1     -36.510  22.601   3.028  0.00  0.00    +0.170 C 
ATOM      6  C   UNL     1     -35.063  21.660   4.719  0.00  0.00    +0.043 C 
ENDROOT
BRANCH   5   7
ATOM      7  O   UNL     1     -37.212  22.480   1.868  0.00  0.00    -0.503 OA
ATOM      8  H   UNL     1     -37.689  21.694   1.688  0.00  0.00    +0.292 HD
ENDBRANCH   5   7
BRANCH   3   9
ATOM      9  O   UNL     1     -35.760  20.333   2.871  0.00  0.00    -0.319 OA
BRANCH   9  10
ATOM     10  S   UNL     1     -34.750  20.152   1.587  0.00  0.00    +0.282 S 
ATOM     11  O   UNL     1     -35.702  19.510   0.427  0.00  0.00    -0.012 OA
ATOM     12  O   UNL     1     -34.319  21.462   1.135  0.00  0.00    -0.105 OA
ATOM     13  O   UNL     1     -33.763  19.148   1.942  0.00  0.00    -0.105 OA
ENDBRANCH   9  10
ENDBRANCH   3   9
BRANCH   1  14
ATOM     14  C   UNL     1     -35.819  25.251   5.637  0.00  0.00    +0.136 C 
BRANCH  14  16
ATOM     15  O   UNL     1     -33.542  26.083   5.406  0.00  0.00    -0.250 OA
ATOM     16  C   UNL     1     -34.737  26.212   5.184  0.00  0.00    +0.318 C 
BRANCH  16  17
ATOM     17  O   UNL     1     -35.251  27.260   4.487  0.00  0.00    -0.480 OA
ATOM     18  H   UNL     1     -35.684  27.956   4.939  0.00  0.00    +0.295 HD
ENDBRANCH  16  17
ENDBRANCH  14  16
ENDBRANCH   1  14
TORSDOF 6
ENDMDL
