MODEL 1
REMARK VINA RESULT:      -5.7      0.000      0.000
REMARK  Name = 51626
REMARK  2 active torsions:
REMARK  status: ('A' for Active; 'I' for Inactive)
REMARK    1  A    between atoms: C_6  and  O_16
REMARK    2  A    between atoms: C_10  and  N_15
REMARK                            x       y       z     vdW  Elec       q    Type
REMARK                         _______ _______ _______ _____ _____    ______ ____
ROOT
ATOM      1  S   UNL     1     -35.569  23.018   3.403  0.00  0.00    -0.027 S 
ATOM      2  O   UNL     1     -40.051  22.521   2.217  0.00  0.00    -0.252 OA
ATOM      3  N   UNL     1     -37.721  22.034   2.276  0.00  0.00    -0.198 N 
ATOM      4  N   UNL     1     -39.094  20.793   0.951  0.00  0.00    -0.284 N 
ATOM      5  N   UNL     1     -37.928  24.064   3.555  0.00  0.00    -0.220 NA
ATOM      6  C   UNL     1     -36.916  20.941   1.742  0.00  0.00    +0.217 C 
ATOM      7  C   UNL     1     -37.771  20.327   0.646  0.00  0.00    +0.142 C 
ATOM      8  C   UNL     1     -39.078  21.868   1.863  0.00  0.00    +0.311 C 
ATOM      9  C   UNL     1     -37.250  23.056   3.050  0.00  0.00    +0.173 C 
ATOM     10  C   UNL     1     -35.749  24.464   4.307  0.00  0.00    +0.194 C 
ATOM     11  C   UNL     1     -37.067  24.869   4.276  0.00  0.00    +0.132 C 
ATOM     12  H   UNL     1     -39.916  20.408   0.568  0.00  0.00    +0.151 HD
ENDROOT
BRANCH  10  15
ATOM     13  O   UNL     1     -33.477  24.730   4.568  0.00  0.00    -0.126 OA
ATOM     14  O   UNL     1     -34.825  25.883   5.866  0.00  0.00    -0.126 OA
ATOM     15  N   UNL     1     -34.643  25.047   4.936  0.00  0.00    +0.065 N 
ENDBRANCH  10  15
BRANCH   6  16
ATOM     16  O   UNL     1     -36.679  19.986   2.769  0.00  0.00    -0.365 OA
ATOM     17  H   UNL     1     -37.284  20.152   3.509  0.00  0.00    +0.212 HD
ENDBRANCH   6  16
TORSDOF 2
ENDMDL
MODEL 2
REMARK VINA RESULT:      -5.5      1.687      2.023
REMARK  Name = 51626
REMARK  2 active torsions:
REMARK  status: ('A' for Active; 'I' for Inactive)
REMARK    1  A    between atoms: C_6  and  O_16
REMARK    2  A    between atoms: C_10  and  N_15
REMARK                            x       y       z     vdW  Elec       q    Type
REMARK                         _______ _______ _______ _____ _____    ______ ____
ROOT
ATOM      1  S   UNL     1     -34.433  24.074   4.452  0.00  0.00    -0.027 S 
ATOM      2  O   UNL     1     -38.722  23.183   2.858  0.00  0.00    -0.252 OA
ATOM      3  N   UNL     1     -36.435  22.770   3.376  0.00  0.00    -0.198 N 
ATOM      4  N   UNL     1     -37.647  21.176   2.294  0.00  0.00    -0.284 N 
ATOM      5  N   UNL     1     -36.763  25.082   3.968  0.00  0.00    -0.220 NA
ATOM      6  C   UNL     1     -35.593  21.582   3.299  0.00  0.00    +0.217 C 
ATOM      7  C   UNL     1     -36.306  20.661   2.322  0.00  0.00    +0.142 C 
ATOM      8  C   UNL     1     -37.727  22.470   2.847  0.00  0.00    +0.311 C 
ATOM      9  C   UNL     1     -36.048  23.981   3.876  0.00  0.00    +0.173 C 
ATOM     10  C   UNL     1     -34.697  25.718   4.862  0.00  0.00    +0.194 C 
ATOM     11  C   UNL     1     -35.987  26.075   4.534  0.00  0.00    +0.132 C 
ATOM     12  H   UNL     1     -38.418  20.683   1.931  0.00  0.00    +0.151 HD
ENDROOT
BRANCH  10  15
ATOM     13  O   UNL     1     -33.648  26.639   6.694  0.00  0.00    -0.126 OA
ATOM     14  O   UNL     1     -32.784  26.989   4.702  0.00  0.00    -0.126 OA
ATOM     15  N   UNL     1     -33.673  26.476   5.441  0.00  0.00    +0.065 N 
ENDBRANCH  10  15
BRANCH   6  16
ATOM     16  O   UNL     1     -35.523  20.972   4.582  0.00  0.00    -0.365 OA
ATOM     17  H   UNL     1     -35.497  21.660   5.265  0.00  0.00    +0.212 HD
ENDBRANCH   6  16
TORSDOF 2
ENDMDL
MODEL 3
REMARK VINA RESULT:      -5.2      3.686      5.279
REMARK  Name = 51626
REMARK  2 active torsions:
REMARK  status: ('A' for Active; 'I' for Inactive)
REMARK    1  A    between atoms: C_6  and  O_16
REMARK    2  A    between atoms: C_10  and  N_15
REMARK                            x       y       z     vdW  Elec       q    Type
REMARK                         _______ _______ _______ _____ _____    ______ ____
ROOT
ATOM      1  S   UNL     1     -36.428  24.048   3.814  0.00  0.00    -0.027 S 
ATOM      2  O   UNL     1     -34.501  28.286   3.559  0.00  0.00    -0.252 OA
ATOM      3  N   UNL     1     -35.998  26.511   3.029  0.00  0.00    -0.198 N 
ATOM      4  N   UNL     1     -36.092  28.451   1.843  0.00  0.00    -0.284 N 
ATOM      5  N   UNL     1     -34.495  25.549   4.648  0.00  0.00    -0.220 NA
ATOM      6  C   UNL     1     -37.163  26.415   2.158  0.00  0.00    +0.217 C 
ATOM      7  C   UNL     1     -37.018  27.574   1.184  0.00  0.00    +0.142 C 
ATOM      8  C   UNL     1     -35.414  27.808   2.898  0.00  0.00    +0.311 C 
ATOM      9  C   UNL     1     -35.537  25.517   3.844  0.00  0.00    +0.173 C 
ATOM     10  C   UNL     1     -35.342  23.392   4.967  0.00  0.00    +0.194 C 
ATOM     11  C   UNL     1     -34.386  24.331   5.290  0.00  0.00    +0.132 C 
ATOM     12  H   UNL     1     -35.948  29.391   1.587  0.00  0.00    +0.151 HD
ENDROOT
BRANCH  10  15
ATOM     13  O   UNL     1     -35.171  21.111   4.698  0.00  0.00    -0.126 OA
ATOM     14  O   UNL     1     -36.001  21.887   6.581  0.00  0.00    -0.126 OA
ATOM     15  N   UNL     1     -35.510  22.082   5.432  0.00  0.00    +0.065 N 
ENDBRANCH  10  15
BRANCH   6  16
ATOM     16  O   UNL     1     -38.345  26.574   2.933  0.00  0.00    -0.365 OA
ATOM     17  H   UNL     1     -38.110  26.621   3.873  0.00  0.00    +0.212 HD
ENDBRANCH   6  16
TORSDOF 2
ENDMDL
MODEL 4
REMARK VINA RESULT:      -4.9      4.061      7.661
REMARK  Name = 51626
REMARK  2 active torsions:
REMARK  status: ('A' for Active; 'I' for Inactive)
REMARK    1  A    between atoms: C_6  and  O_16
REMARK    2  A    between atoms: C_10  and  N_15
REMARK                            x       y       z     vdW  Elec       q    Type
REMARK                         _______ _______ _______ _____ _____    ______ ____
ROOT
ATOM      1  S   UNL     1     -34.354  26.049   5.717  0.00  0.00    -0.027 S 
ATOM      2  O   UNL     1     -31.558  28.502   2.906  0.00  0.00    -0.252 OA
ATOM      3  N   UNL     1     -32.534  27.773   4.952  0.00  0.00    -0.198 N 
ATOM      4  N   UNL     1     -31.009  29.462   4.975  0.00  0.00    -0.284 N 
ATOM      5  N   UNL     1     -33.758  26.576   3.257  0.00  0.00    -0.220 NA
ATOM      6  C   UNL     1     -32.253  28.066   6.352  0.00  0.00    +0.217 C 
ATOM      7  C   UNL     1     -31.481  29.376   6.329  0.00  0.00    +0.142 C 
ATOM      8  C   UNL     1     -31.686  28.568   4.122  0.00  0.00    +0.311 C 
ATOM      9  C   UNL     1     -33.463  26.878   4.504  0.00  0.00    +0.173 C 
ATOM     10  C   UNL     1     -35.207  25.213   4.488  0.00  0.00    +0.194 C 
ATOM     11  C   UNL     1     -34.756  25.621   3.250  0.00  0.00    +0.132 C 
ATOM     12  H   UNL     1     -30.298  30.076   4.679  0.00  0.00    +0.151 HD
ENDROOT
BRANCH  10  15
ATOM     13  O   UNL     1     -35.930  23.365   5.656  0.00  0.00    -0.126 OA
ATOM     14  O   UNL     1     -37.335  24.356   4.286  0.00  0.00    -0.126 OA
ATOM     15  N   UNL     1     -36.193  24.277   4.822  0.00  0.00    +0.065 N 
ENDBRANCH  10  15
BRANCH   6  16
ATOM     16  O   UNL     1     -31.443  27.032   6.896  0.00  0.00    -0.365 OA
ATOM     17  H   UNL     1     -30.521  27.331   6.936  0.00  0.00    +0.212 HD
ENDBRANCH   6  16
TORSDOF 2
ENDMDL
MODEL 5
REMARK VINA RESULT:      -4.9      2.686      5.712
REMARK  Name = 51626
REMARK  2 active torsions:
REMARK  status: ('A' for Active; 'I' for Inactive)
REMARK    1  A    between atoms: C_6  and  O_16
REMARK    2  A    between atoms: C_10  and  N_15
REMARK                            x       y       z     vdW  Elec       q    Type
REMARK                         _______ _______ _______ _____ _____    ______ ____
ROOT
ATOM      1  S   UNL     1     -38.333  25.926   2.749  0.00  0.00    -0.027 S 
ATOM      2  O   UNL     1     -36.081  22.511   4.986  0.00  0.00    -0.252 OA
ATOM      3  N   UNL     1     -36.516  24.716   4.199  0.00  0.00    -0.198 N 
ATOM      4  N   UNL     1     -34.615  24.300   5.380  0.00  0.00    -0.284 N 
ATOM      5  N   UNL     1     -38.251  23.381   3.194  0.00  0.00    -0.220 NA
ATOM      6  C   UNL     1     -35.882  26.006   4.443  0.00  0.00    +0.217 C 
ATOM      7  C   UNL     1     -34.491  25.666   4.956  0.00  0.00    +0.142 C 
ATOM      8  C   UNL     1     -35.779  23.692   4.869  0.00  0.00    +0.311 C 
ATOM      9  C   UNL     1     -37.639  24.518   3.447  0.00  0.00    +0.173 C 
ATOM     10  C   UNL     1     -39.554  24.949   2.047  0.00  0.00    +0.194 C 
ATOM     11  C   UNL     1     -39.348  23.630   2.392  0.00  0.00    +0.132 C 
ATOM     12  H   UNL     1     -33.962  23.842   5.958  0.00  0.00    +0.151 HD
ENDROOT
BRANCH  10  15
ATOM     13  O   UNL     1     -41.566  24.841   0.932  0.00  0.00    -0.126 OA
ATOM     14  O   UNL     1     -40.441  26.730   0.888  0.00  0.00    -0.126 OA
ATOM     15  N   UNL     1     -40.557  25.527   1.260  0.00  0.00    +0.065 N 
ENDBRANCH  10  15
BRANCH   6  16
ATOM     16  O   UNL     1     -36.611  26.707   5.443  0.00  0.00    -0.365 OA
ATOM     17  H   UNL     1     -37.537  26.793   5.165  0.00  0.00    +0.212 HD
ENDBRANCH   6  16
TORSDOF 2
ENDMDL
MODEL 6
REMARK VINA RESULT:      -4.9      2.699      6.640
REMARK  Name = 51626
REMARK  2 active torsions:
REMARK  status: ('A' for Active; 'I' for Inactive)
REMARK    1  A    between atoms: C_6  and  O_16
REMARK    2  A    between atoms: C_10  and  N_15
REMARK                            x       y       z     vdW  Elec       q    Type
REMARK                         _______ _______ _______ _____ _____    ______ ____
ROOT
ATOM      1  S   UNL     1     -35.559  25.061   3.179  0.00  0.00    -0.027 S 
ATOM      2  O   UNL     1     -32.954  26.680   6.690  0.00  0.00    -0.252 OA
ATOM      3  N   UNL     1     -33.974  26.645   4.539  0.00  0.00    -0.198 N 
ATOM      4  N   UNL     1     -32.555  28.339   5.080  0.00  0.00    -0.284 N 
ATOM      5  N   UNL     1     -34.592  24.532   5.517  0.00  0.00    -0.220 NA
ATOM      6  C   UNL     1     -34.036  27.610   3.448  0.00  0.00    +0.217 C 
ATOM      7  C   UNL     1     -32.872  28.555   3.696  0.00  0.00    +0.142 C 
ATOM      8  C   UNL     1     -33.140  27.158   5.578  0.00  0.00    +0.311 C 
ATOM      9  C   UNL     1     -34.614  25.438   4.563  0.00  0.00    +0.173 C 
ATOM     10  C   UNL     1     -35.981  23.565   3.902  0.00  0.00    +0.194 C 
ATOM     11  C   UNL     1     -35.377  23.460   5.137  0.00  0.00    +0.132 C 
ATOM     12  H   UNL     1     -31.995  28.946   5.617  0.00  0.00    +0.151 HD
ENDROOT
BRANCH  10  15
ATOM     13  O   UNL     1     -38.051  22.945   3.104  0.00  0.00    -0.126 OA
ATOM     14  O   UNL     1     -36.348  21.595   2.768  0.00  0.00    -0.126 OA
ATOM     15  N   UNL     1     -36.824  22.669   3.234  0.00  0.00    +0.065 N 
ENDBRANCH  10  15
BRANCH   6  16
ATOM     16  O   UNL     1     -35.265  28.321   3.519  0.00  0.00    -0.365 OA
ATOM     17  H   UNL     1     -35.550  28.382   4.444  0.00  0.00    +0.212 HD
ENDBRANCH   6  16
TORSDOF 2
ENDMDL
MODEL 7
REMARK VINA RESULT:      -4.9      2.899      3.912
REMARK  Name = 51626
REMARK  2 active torsions:
REMARK  status: ('A' for Active; 'I' for Inactive)
REMARK    1  A    between atoms: C_6  and  O_16
REMARK    2  A    between atoms: C_10  and  N_15
REMARK                            x       y       z     vdW  Elec       q    Type
REMARK                         _______ _______ _______ _____ _____    ______ ____
ROOT
ATOM      1  S   UNL     1     -34.016  26.170   3.343  0.00  0.00    -0.027 S 
ATOM      2  O   UNL     1     -36.166  22.769   5.697  0.00  0.00    -0.252 OA
ATOM      3  N   UNL     1     -35.510  24.069   3.813  0.00  0.00    -0.198 N 
ATOM      4  N   UNL     1     -36.986  22.358   3.538  0.00  0.00    -0.284 N 
ATOM      5  N   UNL     1     -34.532  25.219   5.690  0.00  0.00    -0.220 NA
ATOM      6  C   UNL     1     -35.723  23.925   2.378  0.00  0.00    +0.217 C 
ATOM      7  C   UNL     1     -36.921  22.997   2.253  0.00  0.00    +0.142 C 
ATOM      8  C   UNL     1     -36.212  23.034   4.503  0.00  0.00    +0.311 C 
ATOM      9  C   UNL     1     -34.757  25.042   4.406  0.00  0.00    +0.173 C 
ATOM     10  C   UNL     1     -33.333  26.967   4.699  0.00  0.00    +0.194 C 
ATOM     11  C   UNL     1     -33.715  26.322   5.856  0.00  0.00    +0.132 C 
ATOM     12  H   UNL     1     -37.510  21.545   3.722  0.00  0.00    +0.151 HD
ENDROOT
BRANCH  10  15
ATOM     13  O   UNL     1     -33.060  29.227   4.350  0.00  0.00    -0.126 OA
ATOM     14  O   UNL     1     -31.267  27.968   4.539  0.00  0.00    -0.126 OA
ATOM     15  N   UNL     1     -32.524  28.095   4.523  0.00  0.00    +0.065 N 
ENDBRANCH  10  15
BRANCH   6  16
ATOM     16  O   UNL     1     -34.577  23.323   1.790  0.00  0.00    -0.365 OA
ATOM     17  H   UNL     1     -33.776  23.691   2.195  0.00  0.00    +0.212 HD
ENDBRANCH   6  16
TORSDOF 2
ENDMDL
MODEL 8
REMARK VINA RESULT:      -4.8      2.828      5.618
REMARK  Name = 51626
REMARK  2 active torsions:
REMARK  status: ('A' for Active; 'I' for Inactive)
REMARK    1  A    between atoms: C_6  and  O_16
REMARK    2  A    between atoms: C_10  and  N_15
REMARK                            x       y       z     vdW  Elec       q    Type
REMARK                         _______ _______ _______ _____ _____    ______ ____
ROOT
ATOM      1  S   UNL     1     -36.148  22.268   1.274  0.00  0.00    -0.027 S 
ATOM      2  O   UNL     1     -35.152  20.965   5.638  0.00  0.00    -0.252 OA
ATOM      3  N   UNL     1     -35.824  22.413   3.870  0.00  0.00    -0.198 N 
ATOM      4  N   UNL     1     -35.642  23.233   5.985  0.00  0.00    -0.284 N 
ATOM      5  N   UNL     1     -35.217  20.365   2.755  0.00  0.00    -0.220 NA
ATOM      6  C   UNL     1     -36.340  23.776   3.837  0.00  0.00    +0.217 C 
ATOM      7  C   UNL     1     -35.927  24.381   5.170  0.00  0.00    +0.142 C 
ATOM      8  C   UNL     1     -35.496  22.062   5.215  0.00  0.00    +0.311 C 
ATOM      9  C   UNL     1     -35.676  21.598   2.784  0.00  0.00    +0.173 C 
ATOM     10  C   UNL     1     -35.707  20.798   0.509  0.00  0.00    +0.194 C 
ATOM     11  C   UNL     1     -35.236  19.908   1.451  0.00  0.00    +0.132 C 
ATOM     12  H   UNL     1     -35.557  23.263   6.966  0.00  0.00    +0.151 HD
ENDROOT
BRANCH  10  15
ATOM     13  O   UNL     1     -35.434  19.597  -1.438  0.00  0.00    -0.126 OA
ATOM     14  O   UNL     1     -36.402  21.569  -1.546  0.00  0.00    -0.126 OA
ATOM     15  N   UNL     1     -35.853  20.649  -0.875  0.00  0.00    +0.065 N 
ENDBRANCH  10  15
BRANCH   6  16
ATOM     16  O   UNL     1     -37.758  23.739   3.737  0.00  0.00    -0.365 OA
ATOM     17  H   UNL     1     -38.012  23.605   2.811  0.00  0.00    +0.212 HD
ENDBRANCH   6  16
TORSDOF 2
ENDMDL
MODEL 9
REMARK VINA RESULT:      -4.8      3.793      6.510
REMARK  Name = 51626
REMARK  2 active torsions:
REMARK  status: ('A' for Active; 'I' for Inactive)
REMARK    1  A    between atoms: C_6  and  O_16
REMARK    2  A    between atoms: C_10  and  N_15
REMARK                            x       y       z     vdW  Elec       q    Type
REMARK                         _______ _______ _______ _____ _____    ______ ____
ROOT
ATOM      1  S   UNL     1     -35.845  25.613   3.287  0.00  0.00    -0.027 S 
ATOM      2  O   UNL     1     -33.257  29.389   4.169  0.00  0.00    -0.252 OA
ATOM      3  N   UNL     1     -34.680  27.934   2.933  0.00  0.00    -0.198 N 
ATOM      4  N   UNL     1     -33.902  29.838   1.958  0.00  0.00    -0.284 N 
ATOM      5  N   UNL     1     -34.217  26.720   4.961  0.00  0.00    -0.220 NA
ATOM      6  C   UNL     1     -35.356  28.054   1.647  0.00  0.00    +0.217 C 
ATOM      7  C   UNL     1     -34.600  29.148   0.910  0.00  0.00    +0.142 C 
ATOM      8  C   UNL     1     -33.870  29.089   3.152  0.00  0.00    +0.311 C 
ATOM      9  C   UNL     1     -34.802  26.880   3.794  0.00  0.00    +0.173 C 
ATOM     10  C   UNL     1     -35.496  24.773   4.740  0.00  0.00    +0.194 C 
ATOM     11  C   UNL     1     -34.617  25.513   5.502  0.00  0.00    +0.132 C 
ATOM     12  H   UNL     1     -33.494  30.728   1.854  0.00  0.00    +0.151 HD
ENDROOT
BRANCH  10  15
ATOM     13  O   UNL     1     -35.839  22.936   6.086  0.00  0.00    -0.126 OA
ATOM     14  O   UNL     1     -36.850  23.013   4.134  0.00  0.00    -0.126 OA
ATOM     15  N   UNL     1     -36.083  23.529   4.996  0.00  0.00    +0.065 N 
ENDBRANCH  10  15
BRANCH   6  16
ATOM     16  O   UNL     1     -36.705  28.451   1.860  0.00  0.00    -0.365 OA
ATOM     17  H   UNL     1     -36.985  28.180   2.748  0.00  0.00    +0.212 HD
ENDBRANCH   6  16
TORSDOF 2
ENDMDL
