MODEL 1
REMARK VINA RESULT:      -6.3      0.000      0.000
REMARK  Name = 5281676
REMARK  7 active torsions:
REMARK  status: ('A' for Active; 'I' for Inactive)
REMARK    1  A    between atoms: C_4  and  C_12
REMARK    2  A    between atoms: C_6  and  O_24
REMARK    3  A    between atoms: C_8  and  O_28
REMARK    4  A    between atoms: C_10  and  O_26
REMARK    5  A    between atoms: C_13  and  O_18
REMARK    6  A    between atoms: C_15  and  O_22
REMARK    7  A    between atoms: C_17  and  O_20
REMARK                            x       y       z     vdW  Elec       q    Type
REMARK                         _______ _______ _______ _____ _____    ______ ____
ROOT
ATOM      1  O   UNL     1     -34.479  20.563   2.183  0.00  0.00    -0.450 OA
ATOM      2  O   UNL     1     -37.530  19.827  -0.416  0.00  0.00    -0.283 OA
ATOM      3  C   UNL     1     -35.437  19.165   0.445  0.00  0.00    +0.110 A 
ATOM      4  C   UNL     1     -35.592  21.386   2.124  0.00  0.00    +0.185 A 
ATOM      5  C   UNL     1     -34.426  19.473   1.353  0.00  0.00    +0.155 A 
ATOM      6  C   UNL     1     -36.630  21.206   1.286  0.00  0.00    +0.212 A 
ATOM      7  C   UNL     1     -36.614  20.044   0.367  0.00  0.00    +0.238 A 
ATOM      8  C   UNL     1     -35.328  18.041  -0.378  0.00  0.00    +0.143 C 
ATOM      9  C   UNL     1     -33.298  18.657   1.445  0.00  0.00    +0.075 C 
ATOM     10  C   UNL     1     -33.186  17.533   0.625  0.00  0.00    +0.145 C 
ATOM     11  C   UNL     1     -34.199  17.227  -0.284  0.00  0.00    +0.074 C 
ENDROOT
BRANCH   4  12
ATOM     12  C   UNL     1     -35.522  22.518   3.065  0.00  0.00    +0.075 C 
ATOM     13  C   UNL     1     -35.521  22.308   4.446  0.00  0.00    +0.140 C 
ATOM     14  C   UNL     1     -35.457  23.817   2.561  0.00  0.00    +0.046 C 
ATOM     15  C   UNL     1     -35.390  24.904   3.432  0.00  0.00    +0.168 C 
ATOM     16  C   UNL     1     -35.454  23.395   5.318  0.00  0.00    +0.077 C 
ATOM     17  C   UNL     1     -35.387  24.693   4.811  0.00  0.00    +0.175 C 
BRANCH  13  18
ATOM     18  O   UNL     1     -35.583  21.050   4.968  0.00  0.00    -0.505 OA
ATOM     19  H   UNL     1     -36.146  20.409   4.579  0.00  0.00    +0.292 HD
ENDBRANCH  13  18
BRANCH  17  20
ATOM     20  O   UNL     1     -35.322  25.746   5.673  0.00  0.00    -0.468 OA
ATOM     21  C   UNL     1     -34.023  26.178   6.072  0.00  0.00    +0.253 C 
ENDBRANCH  17  20
BRANCH  15  22
ATOM     22  O   UNL     1     -35.325  26.167   2.926  0.00  0.00    -0.503 OA
ATOM     23  H   UNL     1     -34.551  26.453   2.481  0.00  0.00    +0.292 HD
ENDBRANCH  15  22
ENDBRANCH   4  12
BRANCH   6  24
ATOM     24  O   UNL     1     -37.708  22.064   1.229  0.00  0.00    -0.465 OA
ATOM     25  C   UNL     1     -38.763  21.603   2.051  0.00  0.00    +0.253 C 
ENDBRANCH   6  24
BRANCH  10  26
ATOM     26  O   UNL     1     -32.086  16.736   0.713  0.00  0.00    -0.471 OA
ATOM     27  C   UNL     1     -31.968  15.685  -0.245  0.00  0.00    +0.252 C 
ENDBRANCH  10  26
BRANCH   8  28
ATOM     28  O   UNL     1     -36.286  17.697  -1.281  0.00  0.00    -0.505 OA
ATOM     29  H   UNL     1     -37.192  17.834  -1.081  0.00  0.00    +0.292 HD
ENDBRANCH   8  28
TORSDOF 7
ENDMDL
MODEL 2
REMARK VINA RESULT:      -6.3      5.439      8.490
REMARK  Name = 5281676
REMARK  7 active torsions:
REMARK  status: ('A' for Active; 'I' for Inactive)
REMARK    1  A    between atoms: C_4  and  C_12
REMARK    2  A    between atoms: C_6  and  O_24
REMARK    3  A    between atoms: C_8  and  O_28
REMARK    4  A    between atoms: C_10  and  O_26
REMARK    5  A    between atoms: C_13  and  O_18
REMARK    6  A    between atoms: C_15  and  O_22
REMARK    7  A    between atoms: C_17  and  O_20
REMARK                            x       y       z     vdW  Elec       q    Type
REMARK                         _______ _______ _______ _____ _____    ______ ____
ROOT
ATOM      1  O   UNL     1     -32.926  26.655   5.201  0.00  0.00    -0.450 OA
ATOM      2  O   UNL     1     -35.341  28.454   2.455  0.00  0.00    -0.283 OA
ATOM      3  C   UNL     1     -35.013  26.668   3.959  0.00  0.00    +0.110 A 
ATOM      4  C   UNL     1     -32.557  27.837   4.577  0.00  0.00    +0.185 A 
ATOM      5  C   UNL     1     -34.140  26.102   4.886  0.00  0.00    +0.155 A 
ATOM      6  C   UNL     1     -33.302  28.479   3.658  0.00  0.00    +0.212 A 
ATOM      7  C   UNL     1     -34.619  27.914   3.283  0.00  0.00    +0.238 A 
ATOM      8  C   UNL     1     -36.237  26.057   3.678  0.00  0.00    +0.143 C 
ATOM      9  C   UNL     1     -34.489  24.919   5.540  0.00  0.00    +0.075 C 
ATOM     10  C   UNL     1     -35.711  24.306   5.261  0.00  0.00    +0.145 C 
ATOM     11  C   UNL     1     -36.583  24.875   4.332  0.00  0.00    +0.074 C 
ENDROOT
BRANCH   4  12
ATOM     12  C   UNL     1     -31.233  28.323   5.003  0.00  0.00    +0.075 C 
ATOM     13  C   UNL     1     -31.013  28.764   6.310  0.00  0.00    +0.140 C 
ATOM     14  C   UNL     1     -30.187  28.340   4.079  0.00  0.00    +0.046 C 
ATOM     15  C   UNL     1     -28.925  28.797   4.460  0.00  0.00    +0.168 C 
ATOM     16  C   UNL     1     -29.750  29.220   6.690  0.00  0.00    +0.077 C 
ATOM     17  C   UNL     1     -28.706  29.236   5.766  0.00  0.00    +0.175 C 
BRANCH  13  18
ATOM     18  O   UNL     1     -32.016  28.759   7.234  0.00  0.00    -0.505 OA
ATOM     19  H   UNL     1     -32.854  28.403   7.013  0.00  0.00    +0.292 HD
ENDBRANCH  13  18
BRANCH  17  20
ATOM     20  O   UNL     1     -27.478  29.683   6.150  0.00  0.00    -0.468 OA
ATOM     21  C   UNL     1     -27.321  30.055   7.517  0.00  0.00    +0.253 C 
ENDBRANCH  17  20
BRANCH  15  22
ATOM     22  O   UNL     1     -27.913  28.806   3.548  0.00  0.00    -0.503 OA
ATOM     23  H   UNL     1     -28.098  28.661   2.641  0.00  0.00    +0.292 HD
ENDBRANCH  15  22
ENDBRANCH   4  12
BRANCH   6  24
ATOM     24  O   UNL     1     -32.890  29.635   3.032  0.00  0.00    -0.465 OA
ATOM     25  C   UNL     1     -33.313  30.777   3.751  0.00  0.00    +0.253 C 
ENDBRANCH   6  24
BRANCH  10  26
ATOM     26  O   UNL     1     -36.053  23.151   5.897  0.00  0.00    -0.471 OA
ATOM     27  C   UNL     1     -35.049  22.142   5.995  0.00  0.00    +0.252 C 
ENDBRANCH  10  26
BRANCH   8  28
ATOM     28  O   UNL     1     -37.124  26.570   2.781  0.00  0.00    -0.505 OA
ATOM     29  H   UNL     1     -37.994  26.789   3.053  0.00  0.00    +0.292 HD
ENDBRANCH   8  28
TORSDOF 7
ENDMDL
MODEL 3
REMARK VINA RESULT:      -6.2      1.831      3.155
REMARK  Name = 5281676
REMARK  7 active torsions:
REMARK  status: ('A' for Active; 'I' for Inactive)
REMARK    1  A    between atoms: C_4  and  C_12
REMARK    2  A    between atoms: C_6  and  O_24
REMARK    3  A    between atoms: C_8  and  O_28
REMARK    4  A    between atoms: C_10  and  O_26
REMARK    5  A    between atoms: C_13  and  O_18
REMARK    6  A    between atoms: C_15  and  O_22
REMARK    7  A    between atoms: C_17  and  O_20
REMARK                            x       y       z     vdW  Elec       q    Type
REMARK                         _______ _______ _______ _____ _____    ______ ____
ROOT
ATOM      1  O   UNL     1     -36.423  22.224   2.222  0.00  0.00    -0.450 OA
ATOM      2  O   UNL     1     -40.434  22.456   1.538  0.00  0.00    -0.283 OA
ATOM      3  C   UNL     1     -38.390  21.372   1.082  0.00  0.00    +0.110 A 
ATOM      4  C   UNL     1     -37.212  23.169   2.860  0.00  0.00    +0.185 A 
ATOM      5  C   UNL     1     -37.025  21.347   1.357  0.00  0.00    +0.155 A 
ATOM      6  C   UNL     1     -38.538  23.305   2.676  0.00  0.00    +0.212 A 
ATOM      7  C   UNL     1     -39.230  22.382   1.745  0.00  0.00    +0.238 A 
ATOM      8  C   UNL     1     -38.948  20.453   0.189  0.00  0.00    +0.143 C 
ATOM      9  C   UNL     1     -36.206  20.400   0.739  0.00  0.00    +0.075 C 
ATOM     10  C   UNL     1     -36.760  19.481  -0.153  0.00  0.00    +0.145 C 
ATOM     11  C   UNL     1     -38.127  19.508  -0.426  0.00  0.00    +0.074 C 
ENDROOT
BRANCH   4  12
ATOM     12  C   UNL     1     -36.443  24.046   3.760  0.00  0.00    +0.075 C 
ATOM     13  C   UNL     1     -35.903  23.562   4.953  0.00  0.00    +0.140 C 
ATOM     14  C   UNL     1     -36.258  25.384   3.408  0.00  0.00    +0.046 C 
ATOM     15  C   UNL     1     -35.534  26.234   4.244  0.00  0.00    +0.168 C 
ATOM     16  C   UNL     1     -35.179  24.412   5.789  0.00  0.00    +0.077 C 
ATOM     17  C   UNL     1     -34.994  25.747   5.435  0.00  0.00    +0.175 C 
BRANCH  13  18
ATOM     18  O   UNL     1     -36.068  22.259   5.323  0.00  0.00    -0.505 OA
ATOM     19  H   UNL     1     -35.798  21.977   6.174  0.00  0.00    +0.292 HD
ENDBRANCH  13  18
BRANCH  17  20
ATOM     20  O   UNL     1     -34.285  26.567   6.260  0.00  0.00    -0.468 OA
ATOM     21  C   UNL     1     -32.945  26.873   5.876  0.00  0.00    +0.253 C 
ENDBRANCH  17  20
BRANCH  15  22
ATOM     22  O   UNL     1     -35.359  27.537   3.886  0.00  0.00    -0.503 OA
ATOM     23  H   UNL     1     -34.583  27.993   4.146  0.00  0.00    +0.292 HD
ENDBRANCH  15  22
ENDBRANCH   4  12
BRANCH   6  24
ATOM     24  O   UNL     1     -39.288  24.278   3.301  0.00  0.00    -0.465 OA
ATOM     25  C   UNL     1     -39.592  25.332   2.408  0.00  0.00    +0.253 C 
ENDBRANCH   6  24
BRANCH  10  26
ATOM     26  O   UNL     1     -35.962  18.557  -0.757  0.00  0.00    -0.471 OA
ATOM     27  C   UNL     1     -34.718  18.261  -0.125  0.00  0.00    +0.252 C 
ENDBRANCH  10  26
BRANCH   8  28
ATOM     28  O   UNL     1     -40.275  20.436  -0.113  0.00  0.00    -0.505 OA
ATOM     29  H   UNL     1     -40.835  19.788   0.267  0.00  0.00    +0.292 HD
ENDBRANCH   8  28
TORSDOF 7
ENDMDL
MODEL 4
REMARK VINA RESULT:      -6.2      1.566      2.241
REMARK  Name = 5281676
REMARK  7 active torsions:
REMARK  status: ('A' for Active; 'I' for Inactive)
REMARK    1  A    between atoms: C_4  and  C_12
REMARK    2  A    between atoms: C_6  and  O_24
REMARK    3  A    between atoms: C_8  and  O_28
REMARK    4  A    between atoms: C_10  and  O_26
REMARK    5  A    between atoms: C_13  and  O_18
REMARK    6  A    between atoms: C_15  and  O_22
REMARK    7  A    between atoms: C_17  and  O_20
REMARK                            x       y       z     vdW  Elec       q    Type
REMARK                         _______ _______ _______ _____ _____    ______ ____
ROOT
ATOM      1  O   UNL     1     -34.856  22.122   2.272  0.00  0.00    -0.450 OA
ATOM      2  O   UNL     1     -38.843  21.415   1.812  0.00  0.00    -0.283 OA
ATOM      3  C   UNL     1     -36.630  20.745   1.350  0.00  0.00    +0.110 A 
ATOM      4  C   UNL     1     -35.809  22.945   2.853  0.00  0.00    +0.185 A 
ATOM      5  C   UNL     1     -35.283  21.043   1.543  0.00  0.00    +0.155 A 
ATOM      6  C   UNL     1     -37.138  22.774   2.737  0.00  0.00    +0.212 A 
ATOM      7  C   UNL     1     -37.645  21.623   1.952  0.00  0.00    +0.238 A 
ATOM      8  C   UNL     1     -37.006  19.631   0.595  0.00  0.00    +0.143 C 
ATOM      9  C   UNL     1     -34.300  20.227   0.980  0.00  0.00    +0.075 C 
ATOM     10  C   UNL     1     -34.672  19.114   0.224  0.00  0.00    +0.145 C 
ATOM     11  C   UNL     1     -36.022  18.818   0.033  0.00  0.00    +0.074 C 
ENDROOT
BRANCH   4  12
ATOM     12  C   UNL     1     -35.218  24.065   3.608  0.00  0.00    +0.075 C 
ATOM     13  C   UNL     1     -35.370  24.163   4.992  0.00  0.00    +0.140 C 
ATOM     14  C   UNL     1     -34.496  25.041   2.919  0.00  0.00    +0.046 C 
ATOM     15  C   UNL     1     -33.928  26.110   3.611  0.00  0.00    +0.168 C 
ATOM     16  C   UNL     1     -34.802  25.232   5.685  0.00  0.00    +0.077 C 
ATOM     17  C   UNL     1     -34.080  26.205   4.995  0.00  0.00    +0.175 C 
BRANCH  13  18
ATOM     18  O   UNL     1     -36.071  23.224   5.692  0.00  0.00    -0.505 OA
ATOM     19  H   UNL     1     -35.699  22.377   5.841  0.00  0.00    +0.292 HD
ENDBRANCH  13  18
BRANCH  17  20
ATOM     20  O   UNL     1     -33.530  27.244   5.682  0.00  0.00    -0.468 OA
ATOM     21  C   UNL     1     -32.808  26.926   6.871  0.00  0.00    +0.253 C 
ENDBRANCH  17  20
BRANCH  15  22
ATOM     22  O   UNL     1     -33.224  27.054   2.926  0.00  0.00    -0.503 OA
ATOM     23  H   UNL     1     -33.539  27.935   2.886  0.00  0.00    +0.292 HD
ENDBRANCH  15  22
ENDBRANCH   4  12
BRANCH   6  24
ATOM     24  O   UNL     1     -38.059  23.631   3.300  0.00  0.00    -0.465 OA
ATOM     25  C   UNL     1     -38.409  24.661   2.396  0.00  0.00    +0.253 C 
ENDBRANCH   6  24
BRANCH  10  26
ATOM     26  O   UNL     1     -33.715  18.317  -0.326  0.00  0.00    -0.471 OA
ATOM     27  C   UNL     1     -33.486  17.054   0.297  0.00  0.00    +0.252 C 
ENDBRANCH  10  26
BRANCH   8  28
ATOM     28  O   UNL     1     -38.307  19.297   0.377  0.00  0.00    -0.505 OA
ATOM     29  H   UNL     1     -38.545  18.401   0.237  0.00  0.00    +0.292 HD
ENDBRANCH   8  28
TORSDOF 7
ENDMDL
MODEL 5
REMARK VINA RESULT:      -6.0      4.152      8.288
REMARK  Name = 5281676
REMARK  7 active torsions:
REMARK  status: ('A' for Active; 'I' for Inactive)
REMARK    1  A    between atoms: C_4  and  C_12
REMARK    2  A    between atoms: C_6  and  O_24
REMARK    3  A    between atoms: C_8  and  O_28
REMARK    4  A    between atoms: C_10  and  O_26
REMARK    5  A    between atoms: C_13  and  O_18
REMARK    6  A    between atoms: C_15  and  O_22
REMARK    7  A    between atoms: C_17  and  O_20
REMARK                            x       y       z     vdW  Elec       q    Type
REMARK                         _______ _______ _______ _____ _____    ______ ____
ROOT
ATOM      1  O   UNL     1     -35.648  26.108   2.670  0.00  0.00    -0.450 OA
ATOM      2  O   UNL     1     -33.936  25.779   6.353  0.00  0.00    -0.283 OA
ATOM      3  C   UNL     1     -33.956  26.841   4.248  0.00  0.00    +0.110 A 
ATOM      4  C   UNL     1     -36.128  25.212   3.613  0.00  0.00    +0.185 A 
ATOM      5  C   UNL     1     -34.584  26.903   3.006  0.00  0.00    +0.155 A 
ATOM      6  C   UNL     1     -35.607  25.047   4.843  0.00  0.00    +0.212 A 
ATOM      7  C   UNL     1     -34.452  25.882   5.248  0.00  0.00    +0.238 A 
ATOM      8  C   UNL     1     -32.873  27.676   4.534  0.00  0.00    +0.143 C 
ATOM      9  C   UNL     1     -34.131  27.802   2.040  0.00  0.00    +0.075 C 
ATOM     10  C   UNL     1     -33.049  28.638   2.322  0.00  0.00    +0.145 C 
ATOM     11  C   UNL     1     -32.423  28.574   3.567  0.00  0.00    +0.074 C 
ENDROOT
BRANCH   4  12
ATOM     12  C   UNL     1     -37.271  24.421   3.125  0.00  0.00    +0.075 C 
ATOM     13  C   UNL     1     -38.528  25.003   2.945  0.00  0.00    +0.140 C 
ATOM     14  C   UNL     1     -37.087  23.067   2.841  0.00  0.00    +0.046 C 
ATOM     15  C   UNL     1     -38.155  22.297   2.379  0.00  0.00    +0.168 C 
ATOM     16  C   UNL     1     -39.595  24.233   2.482  0.00  0.00    +0.077 C 
ATOM     17  C   UNL     1     -39.409  22.881   2.198  0.00  0.00    +0.175 C 
BRANCH  13  18
ATOM     18  O   UNL     1     -38.737  26.323   3.214  0.00  0.00    -0.505 OA
ATOM     19  H   UNL     1     -38.938  26.917   2.518  0.00  0.00    +0.292 HD
ENDBRANCH  13  18
BRANCH  17  20
ATOM     20  O   UNL     1     -40.459  22.140   1.746  0.00  0.00    -0.468 OA
ATOM     21  C   UNL     1     -40.599  22.007   0.333  0.00  0.00    +0.253 C 
ENDBRANCH  17  20
BRANCH  15  22
ATOM     22  O   UNL     1     -37.960  20.977   2.103  0.00  0.00    -0.503 OA
ATOM     23  H   UNL     1     -38.383  20.323   2.623  0.00  0.00    +0.292 HD
ENDBRANCH  15  22
ENDBRANCH   4  12
BRANCH   6  24
ATOM     24  O   UNL     1     -36.088  24.123   5.745  0.00  0.00    -0.465 OA
ATOM     25  C   UNL     1     -35.249  22.985   5.796  0.00  0.00    +0.253 C 
ENDBRANCH   6  24
BRANCH  10  26
ATOM     26  O   UNL     1     -32.606  29.516   1.380  0.00  0.00    -0.471 OA
ATOM     27  C   UNL     1     -32.180  30.798   1.838  0.00  0.00    +0.252 C 
ENDBRANCH  10  26
BRANCH   8  28
ATOM     28  O   UNL     1     -32.225  27.655   5.732  0.00  0.00    -0.505 OA
ATOM     29  H   UNL     1     -32.199  28.425   6.265  0.00  0.00    +0.292 HD
ENDBRANCH   8  28
TORSDOF 7
ENDMDL
MODEL 6
REMARK VINA RESULT:      -5.9      1.316      2.097
REMARK  Name = 5281676
REMARK  7 active torsions:
REMARK  status: ('A' for Active; 'I' for Inactive)
REMARK    1  A    between atoms: C_4  and  C_12
REMARK    2  A    between atoms: C_6  and  O_24
REMARK    3  A    between atoms: C_8  and  O_28
REMARK    4  A    between atoms: C_10  and  O_26
REMARK    5  A    between atoms: C_13  and  O_18
REMARK    6  A    between atoms: C_15  and  O_22
REMARK    7  A    between atoms: C_17  and  O_20
REMARK                            x       y       z     vdW  Elec       q    Type
REMARK                         _______ _______ _______ _____ _____    ______ ____
ROOT
ATOM      1  O   UNL     1     -33.941  19.888   1.900  0.00  0.00    -0.450 OA
ATOM      2  O   UNL     1     -36.898  18.422  -0.490  0.00  0.00    -0.283 OA
ATOM      3  C   UNL     1     -34.674  18.241   0.275  0.00  0.00    +0.110 A 
ATOM      4  C   UNL     1     -35.201  20.465   1.873  0.00  0.00    +0.185 A 
ATOM      5  C   UNL     1     -33.706  18.792   1.111  0.00  0.00    +0.155 A 
ATOM      6  C   UNL     1     -36.219  20.037   1.104  0.00  0.00    +0.212 A 
ATOM      7  C   UNL     1     -36.009  18.858   0.230  0.00  0.00    +0.238 A 
ATOM      8  C   UNL     1     -34.378  17.123  -0.509  0.00  0.00    +0.143 C 
ATOM      9  C   UNL     1     -32.432  18.227   1.169  0.00  0.00    +0.075 C 
ATOM     10  C   UNL     1     -32.131  17.110   0.388  0.00  0.00    +0.145 C 
ATOM     11  C   UNL     1     -33.103  16.560  -0.449  0.00  0.00    +0.074 C 
ENDROOT
BRANCH   4  12
ATOM     12  C   UNL     1     -35.319  21.632   2.765  0.00  0.00    +0.075 C 
ATOM     13  C   UNL     1     -35.091  22.926   2.293  0.00  0.00    +0.140 C 
ATOM     14  C   UNL     1     -35.663  21.431   4.102  0.00  0.00    +0.046 C 
ATOM     15  C   UNL     1     -35.780  22.521   4.965  0.00  0.00    +0.168 C 
ATOM     16  C   UNL     1     -35.208  24.016   3.157  0.00  0.00    +0.077 C 
ATOM     17  C   UNL     1     -35.553  23.814   4.492  0.00  0.00    +0.175 C 
BRANCH  13  18
ATOM     18  O   UNL     1     -34.753  23.153   0.992  0.00  0.00    -0.505 OA
ATOM     19  H   UNL     1     -34.721  24.029   0.661  0.00  0.00    +0.292 HD
ENDBRANCH  13  18
BRANCH  17  20
ATOM     20  O   UNL     1     -35.665  24.886   5.325  0.00  0.00    -0.468 OA
ATOM     21  C   UNL     1     -34.473  25.615   5.607  0.00  0.00    +0.253 C 
ENDBRANCH  17  20
BRANCH  15  22
ATOM     22  O   UNL     1     -36.119  22.310   6.268  0.00  0.00    -0.503 OA
ATOM     23  H   UNL     1     -35.525  21.868   6.841  0.00  0.00    +0.292 HD
ENDBRANCH  15  22
ENDBRANCH   4  12
BRANCH   6  24
ATOM     24  O   UNL     1     -37.451  20.655   1.076  0.00  0.00    -0.465 OA
ATOM     25  C   UNL     1     -37.584  21.460  -0.080  0.00  0.00    +0.253 C 
ENDBRANCH   6  24
BRANCH  10  26
ATOM     26  O   UNL     1     -30.888  16.557   0.443  0.00  0.00    -0.471 OA
ATOM     27  C   UNL     1     -29.814  17.411   0.836  0.00  0.00    +0.252 C 
ENDBRANCH  10  26
BRANCH   8  28
ATOM     28  O   UNL     1     -35.288  16.548  -1.342  0.00  0.00    -0.505 OA
ATOM     29  H   UNL     1     -35.649  15.708  -1.135  0.00  0.00    +0.292 HD
ENDBRANCH   8  28
TORSDOF 7
ENDMDL
MODEL 7
REMARK VINA RESULT:      -5.9      2.752      7.259
REMARK  Name = 5281676
REMARK  7 active torsions:
REMARK  status: ('A' for Active; 'I' for Inactive)
REMARK    1  A    between atoms: C_4  and  C_12
REMARK    2  A    between atoms: C_6  and  O_24
REMARK    3  A    between atoms: C_8  and  O_28
REMARK    4  A    between atoms: C_10  and  O_26
REMARK    5  A    between atoms: C_13  and  O_18
REMARK    6  A    between atoms: C_15  and  O_22
REMARK    7  A    between atoms: C_17  and  O_20
REMARK                            x       y       z     vdW  Elec       q    Type
REMARK                         _______ _______ _______ _____ _____    ______ ____
ROOT
ATOM      1  O   UNL     1     -37.700  22.470   1.144  0.00  0.00    -0.450 OA
ATOM      2  O   UNL     1     -37.580  24.991   4.344  0.00  0.00    -0.283 OA
ATOM      3  C   UNL     1     -38.806  24.138   2.518  0.00  0.00    +0.110 A 
ATOM      4  C   UNL     1     -36.585  22.544   1.965  0.00  0.00    +0.185 A 
ATOM      5  C   UNL     1     -38.782  23.258   1.438  0.00  0.00    +0.155 A 
ATOM      6  C   UNL     1     -36.476  23.358   3.031  0.00  0.00    +0.212 A 
ATOM      7  C   UNL     1     -37.620  24.232   3.384  0.00  0.00    +0.238 A 
ATOM      8  C   UNL     1     -39.937  24.918   2.769  0.00  0.00    +0.143 C 
ATOM      9  C   UNL     1     -39.893  23.153   0.600  0.00  0.00    +0.075 C 
ATOM     10  C   UNL     1     -41.025  23.931   0.847  0.00  0.00    +0.145 C 
ATOM     11  C   UNL     1     -41.046  24.811   1.930  0.00  0.00    +0.074 C 
ENDROOT
BRANCH   4  12
ATOM     12  C   UNL     1     -35.496  21.648   1.538  0.00  0.00    +0.075 C 
ATOM     13  C   UNL     1     -35.501  20.294   1.877  0.00  0.00    +0.140 C 
ATOM     14  C   UNL     1     -34.445  22.171   0.783  0.00  0.00    +0.046 C 
ATOM     15  C   UNL     1     -33.402  21.342   0.368  0.00  0.00    +0.168 C 
ATOM     16  C   UNL     1     -34.459  19.465   1.462  0.00  0.00    +0.077 C 
ATOM     17  C   UNL     1     -33.410  19.988   0.706  0.00  0.00    +0.175 C 
BRANCH  13  18
ATOM     18  O   UNL     1     -36.515  19.756   2.614  0.00  0.00    -0.505 OA
ATOM     19  H   UNL     1     -36.465  18.865   2.899  0.00  0.00    +0.292 HD
ENDBRANCH  13  18
BRANCH  17  20
ATOM     20  O   UNL     1     -32.398  19.169   0.306  0.00  0.00    -0.468 OA
ATOM     21  C   UNL     1     -32.085  18.064   1.152  0.00  0.00    +0.253 C 
ENDBRANCH  17  20
BRANCH  15  22
ATOM     22  O   UNL     1     -32.384  21.865  -0.371  0.00  0.00    -0.503 OA
ATOM     23  H   UNL     1     -32.086  22.738  -0.206  0.00  0.00    +0.292 HD
ENDBRANCH  15  22
ENDBRANCH   4  12
BRANCH   6  24
ATOM     24  O   UNL     1     -35.340  23.431   3.808  0.00  0.00    -0.465 OA
ATOM     25  C   UNL     1     -35.425  22.550   4.911  0.00  0.00    +0.253 C 
ENDBRANCH   6  24
BRANCH  10  26
ATOM     26  O   UNL     1     -42.110  23.829   0.031  0.00  0.00    -0.471 OA
ATOM     27  C   UNL     1     -43.270  24.575   0.397  0.00  0.00    +0.252 C 
ENDBRANCH  10  26
BRANCH   8  28
ATOM     28  O   UNL     1     -40.010  25.793   3.810  0.00  0.00    -0.505 OA
ATOM     29  H   UNL     1     -40.328  26.663   3.670  0.00  0.00    +0.292 HD
ENDBRANCH   8  28
TORSDOF 7
ENDMDL
MODEL 8
REMARK VINA RESULT:      -5.7      2.095      3.928
REMARK  Name = 5281676
REMARK  7 active torsions:
REMARK  status: ('A' for Active; 'I' for Inactive)
REMARK    1  A    between atoms: C_4  and  C_12
REMARK    2  A    between atoms: C_6  and  O_24
REMARK    3  A    between atoms: C_8  and  O_28
REMARK    4  A    between atoms: C_10  and  O_26
REMARK    5  A    between atoms: C_13  and  O_18
REMARK    6  A    between atoms: C_15  and  O_22
REMARK    7  A    between atoms: C_17  and  O_20
REMARK                            x       y       z     vdW  Elec       q    Type
REMARK                         _______ _______ _______ _____ _____    ______ ____
ROOT
ATOM      1  O   UNL     1     -34.805  23.216   2.577  0.00  0.00    -0.450 OA
ATOM      2  O   UNL     1     -38.878  23.067   2.552  0.00  0.00    -0.283 OA
ATOM      3  C   UNL     1     -36.837  21.989   2.067  0.00  0.00    +0.110 A 
ATOM      4  C   UNL     1     -35.570  24.268   3.057  0.00  0.00    +0.185 A 
ATOM      5  C   UNL     1     -35.449  22.104   2.100  0.00  0.00    +0.155 A 
ATOM      6  C   UNL     1     -36.916  24.287   3.072  0.00  0.00    +0.212 A 
ATOM      7  C   UNL     1     -37.654  23.108   2.562  0.00  0.00    +0.238 A 
ATOM      8  C   UNL     1     -37.438  20.830   1.568  0.00  0.00    +0.143 C 
ATOM      9  C   UNL     1     -34.651  21.058   1.635  0.00  0.00    +0.075 C 
ATOM     10  C   UNL     1     -35.248  19.899   1.136  0.00  0.00    +0.145 C 
ATOM     11  C   UNL     1     -36.638  19.787   1.104  0.00  0.00    +0.074 C 
ENDROOT
BRANCH   4  12
ATOM     12  C   UNL     1     -34.757  25.398   3.538  0.00  0.00    +0.075 C 
ATOM     13  C   UNL     1     -34.247  26.349   2.651  0.00  0.00    +0.140 C 
ATOM     14  C   UNL     1     -34.495  25.513   4.904  0.00  0.00    +0.046 C 
ATOM     15  C   UNL     1     -33.727  26.574   5.382  0.00  0.00    +0.168 C 
ATOM     16  C   UNL     1     -33.479  27.411   3.130  0.00  0.00    +0.077 C 
ATOM     17  C   UNL     1     -33.220  27.524   4.495  0.00  0.00    +0.175 C 
BRANCH  13  18
ATOM     18  O   UNL     1     -34.487  26.263   1.311  0.00  0.00    -0.505 OA
ATOM     19  H   UNL     1     -35.184  26.758   0.927  0.00  0.00    +0.292 HD
ENDBRANCH  13  18
BRANCH  17  20
ATOM     20  O   UNL     1     -32.469  28.566   4.950  0.00  0.00    -0.468 OA
ATOM     21  C   UNL     1     -32.384  29.719   4.115  0.00  0.00    +0.253 C 
ENDBRANCH  17  20
BRANCH  15  22
ATOM     22  O   UNL     1     -33.481  26.675   6.718  0.00  0.00    -0.503 OA
ATOM     23  H   UNL     1     -32.610  26.838   7.023  0.00  0.00    +0.292 HD
ENDBRANCH  15  22
ENDBRANCH   4  12
BRANCH   6  24
ATOM     24  O   UNL     1     -37.647  25.364   3.527  0.00  0.00    -0.465 OA
ATOM     25  C   UNL     1     -38.017  26.209   2.455  0.00  0.00    +0.253 C 
ENDBRANCH   6  24
BRANCH  10  26
ATOM     26  O   UNL     1     -34.471  18.877   0.680  0.00  0.00    -0.471 OA
ATOM     27  C   UNL     1     -33.225  18.664   1.342  0.00  0.00    +0.252 C 
ENDBRANCH  10  26
BRANCH   8  28
ATOM     28  O   UNL     1     -38.788  20.669   1.514  0.00  0.00    -0.505 OA
ATOM     29  H   UNL     1     -39.164  19.815   1.606  0.00  0.00    +0.292 HD
ENDBRANCH   8  28
TORSDOF 7
ENDMDL
MODEL 9
REMARK VINA RESULT:      -5.7      2.917      5.768
REMARK  Name = 5281676
REMARK  7 active torsions:
REMARK  status: ('A' for Active; 'I' for Inactive)
REMARK    1  A    between atoms: C_4  and  C_12
REMARK    2  A    between atoms: C_6  and  O_24
REMARK    3  A    between atoms: C_8  and  O_28
REMARK    4  A    between atoms: C_10  and  O_26
REMARK    5  A    between atoms: C_13  and  O_18
REMARK    6  A    between atoms: C_15  and  O_22
REMARK    7  A    between atoms: C_17  and  O_20
REMARK                            x       y       z     vdW  Elec       q    Type
REMARK                         _______ _______ _______ _____ _____    ______ ____
ROOT
ATOM      1  O   UNL     1     -34.983  24.772   2.121  0.00  0.00    -0.450 OA
ATOM      2  O   UNL     1     -35.396  23.565   5.992  0.00  0.00    -0.283 OA
ATOM      3  C   UNL     1     -35.287  22.965   3.714  0.00  0.00    +0.110 A 
ATOM      4  C   UNL     1     -34.951  25.679   3.169  0.00  0.00    +0.185 A 
ATOM      5  C   UNL     1     -35.143  23.442   2.413  0.00  0.00    +0.155 A 
ATOM      6  C   UNL     1     -35.087  25.351   4.467  0.00  0.00    +0.212 A 
ATOM      7  C   UNL     1     -35.268  23.925   4.828  0.00  0.00    +0.238 A 
ATOM      8  C   UNL     1     -35.449  21.598   3.951  0.00  0.00    +0.143 C 
ATOM      9  C   UNL     1     -35.160  22.552   1.338  0.00  0.00    +0.075 C 
ATOM     10  C   UNL     1     -35.322  21.186   1.571  0.00  0.00    +0.145 C 
ATOM     11  C   UNL     1     -35.465  20.711   2.874  0.00  0.00    +0.074 C 
ENDROOT
BRANCH   4  12
ATOM     12  C   UNL     1     -34.774  27.071   2.719  0.00  0.00    +0.075 C 
ATOM     13  C   UNL     1     -35.859  27.830   2.277  0.00  0.00    +0.140 C 
ATOM     14  C   UNL     1     -33.496  27.633   2.736  0.00  0.00    +0.046 C 
ATOM     15  C   UNL     1     -33.304  28.948   2.315  0.00  0.00    +0.168 C 
ATOM     16  C   UNL     1     -35.667  29.146   1.855  0.00  0.00    +0.077 C 
ATOM     17  C   UNL     1     -34.390  29.705   1.875  0.00  0.00    +0.175 C 
BRANCH  13  18
ATOM     18  O   UNL     1     -37.119  27.308   2.248  0.00  0.00    -0.505 OA
ATOM     19  H   UNL     1     -37.779  27.645   2.821  0.00  0.00    +0.292 HD
ENDBRANCH  13  18
BRANCH  17  20
ATOM     20  O   UNL     1     -34.216  30.992   1.461  0.00  0.00    -0.468 OA
ATOM     21  C   UNL     1     -35.244  31.924   1.789  0.00  0.00    +0.253 C 
ENDBRANCH  17  20
BRANCH  15  22
ATOM     22  O   UNL     1     -32.052  29.484   2.340  0.00  0.00    -0.503 OA
ATOM     23  H   UNL     1     -31.489  29.324   3.071  0.00  0.00    +0.292 HD
ENDBRANCH  15  22
ENDBRANCH   4  12
BRANCH   6  24
ATOM     24  O   UNL     1     -35.084  26.283   5.482  0.00  0.00    -0.465 OA
ATOM     25  C   UNL     1     -33.813  26.350   6.100  0.00  0.00    +0.253 C 
ENDBRANCH   6  24
BRANCH  10  26
ATOM     26  O   UNL     1     -35.338  20.316   0.523  0.00  0.00    -0.471 OA
ATOM     27  C   UNL     1     -36.485  19.476   0.395  0.00  0.00    +0.252 C 
ENDBRANCH  10  26
BRANCH   8  28
ATOM     28  O   UNL     1     -35.593  21.081   5.202  0.00  0.00    -0.505 OA
ATOM     29  H   UNL     1     -34.991  21.318   5.880  0.00  0.00    +0.292 HD
ENDBRANCH   8  28
TORSDOF 7
ENDMDL
