MODEL 1
REMARK VINA RESULT:      -6.9      0.000      0.000
REMARK  Name = 5358779
REMARK  1 active torsions:
REMARK  status: ('A' for Active; 'I' for Inactive)
REMARK    1  A    between atoms: C_13  and  O_28
REMARK                            x       y       z     vdW  Elec       q    Type
REMARK                         _______ _______ _______ _____ _____    ______ ____
ROOT
ATOM      1  O   UNL     1     -36.040  25.885   5.764  0.00  0.00    -0.345 OA
ATOM      2  O   UNL     1     -33.639  27.475   5.148  0.00  0.00    -0.443 OA
ATOM      3  O   UNL     1     -33.084  25.393   4.306  0.00  0.00    -0.247 OA
ATOM      4  O   UNL     1     -34.236  29.327   2.309  0.00  0.00    -0.442 OA
ATOM      5  O   UNL     1     -36.325  30.288   2.147  0.00  0.00    -0.248 OA
ATOM      6  O   UNL     1     -31.579  28.111   2.875  0.00  0.00    -0.288 OA
ATOM      7  N   UNL     1     -29.857  29.651   5.440  0.00  0.00    +0.388 N 
ATOM      8  C   UNL     1     -35.362  26.013   4.498  0.00  0.00    +0.206 C 
ATOM      9  C   UNL     1     -35.961  24.701   4.968  0.00  0.00    +0.151 C 
ATOM     10  C   UNL     1     -36.143  26.857   3.509  0.00  0.00    +0.044 C 
ATOM     11  C   UNL     1     -35.531  26.815   2.084  0.00  0.00    +0.038 C 
ATOM     12  C   UNL     1     -33.903  26.231   4.659  0.00  0.00    +0.344 C 
ATOM     13  C   UNL     1     -35.943  28.058   1.239  0.00  0.00    +0.177 C 
ATOM     14  C   UNL     1     -35.147  23.630   5.592  0.00  0.00    +0.035 C 
ATOM     15  C   UNL     1     -35.917  25.490   1.407  0.00  0.00    +0.003 C 
ATOM     16  C   UNL     1     -35.328  28.062  -0.163  0.00  0.00    +0.041 C 
ATOM     17  C   UNL     1     -32.263  27.891   5.172  0.00  0.00    +0.227 C 
ATOM     18  C   UNL     1     -35.551  29.361   1.938  0.00  0.00    +0.342 C 
ATOM     19  C   UNL     1     -32.015  28.723   6.431  0.00  0.00    +0.029 C 
ATOM     20  C   UNL     1     -32.043  28.659   3.874  0.00  0.00    +0.212 C 
ATOM     21  C   UNL     1     -30.537  29.091   6.625  0.00  0.00    -0.073 C 
ATOM     22  C   UNL     1     -32.477  30.080   3.800  0.00  0.00    +0.053 C 
ATOM     23  C   UNL     1     -33.799  30.401   3.157  0.00  0.00    +0.238 C 
ATOM     24  C   UNL     1     -30.373  30.968   5.045  0.00  0.00    -0.051 C 
ATOM     25  C   UNL     1     -31.691  31.044   4.312  0.00  0.00    -0.047 C 
ATOM     26  C   UNL     1     -28.416  29.738   5.705  0.00  0.00    -0.100 C 
ATOM     27  H   UNL     1     -30.043  29.020   4.661  0.00  0.00    -0.079 HD
ENDROOT
BRANCH  13  28
ATOM     28  O   UNL     1     -37.363  28.071   1.106  0.00  0.00    -0.376 OA
ATOM     29  H   UNL     1     -37.648  28.933   0.766  0.00  0.00    +0.211 HD
ENDBRANCH  13  28
TORSDOF 1
ENDMDL
MODEL 2
REMARK VINA RESULT:      -6.9      2.384      6.428
REMARK  Name = 5358779
REMARK  1 active torsions:
REMARK  status: ('A' for Active; 'I' for Inactive)
REMARK    1  A    between atoms: C_13  and  O_28
REMARK                            x       y       z     vdW  Elec       q    Type
REMARK                         _______ _______ _______ _____ _____    ______ ____
ROOT
ATOM      1  O   UNL     1     -35.066  30.940   3.087  0.00  0.00    -0.345 OA
ATOM      2  O   UNL     1     -34.918  28.032   3.529  0.00  0.00    -0.443 OA
ATOM      3  O   UNL     1     -33.880  28.275   1.476  0.00  0.00    -0.247 OA
ATOM      4  O   UNL     1     -32.293  27.368   5.653  0.00  0.00    -0.442 OA
ATOM      5  O   UNL     1     -32.033  28.816   7.427  0.00  0.00    -0.248 OA
ATOM      6  O   UNL     1     -32.978  25.577   3.375  0.00  0.00    -0.288 OA
ATOM      7  N   UNL     1     -35.888  23.780   3.840  0.00  0.00    +0.388 N 
ATOM      8  C   UNL     1     -33.906  30.088   3.000  0.00  0.00    +0.206 C 
ATOM      9  C   UNL     1     -34.138  31.242   2.043  0.00  0.00    +0.151 C 
ATOM     10  C   UNL     1     -32.956  30.287   4.164  0.00  0.00    +0.044 C 
ATOM     11  C   UNL     1     -31.610  29.540   3.964  0.00  0.00    +0.038 C 
ATOM     12  C   UNL     1     -34.249  28.713   2.557  0.00  0.00    +0.344 C 
ATOM     13  C   UNL     1     -30.893  29.265   5.319  0.00  0.00    +0.177 C 
ATOM     14  C   UNL     1     -34.702  31.053   0.685  0.00  0.00    +0.035 C 
ATOM     15  C   UNL     1     -30.733  30.336   2.985  0.00  0.00    +0.003 C 
ATOM     16  C   UNL     1     -29.577  28.500   5.158  0.00  0.00    +0.041 C 
ATOM     17  C   UNL     1     -35.142  26.629   3.310  0.00  0.00    +0.227 C 
ATOM     18  C   UNL     1     -31.791  28.476   6.274  0.00  0.00    +0.342 C 
ATOM     19  C   UNL     1     -36.517  26.250   3.863  0.00  0.00    +0.029 C 
ATOM     20  C   UNL     1     -33.984  25.916   3.998  0.00  0.00    +0.212 C 
ATOM     21  C   UNL     1     -36.912  24.801   3.545  0.00  0.00    -0.073 C 
ATOM     22  C   UNL     1     -34.046  25.702   5.469  0.00  0.00    +0.053 C 
ATOM     23  C   UNL     1     -33.312  26.656   6.371  0.00  0.00    +0.238 C 
ATOM     24  C   UNL     1     -35.612  23.634   5.275  0.00  0.00    -0.051 C 
ATOM     25  C   UNL     1     -34.759  24.673   5.962  0.00  0.00    -0.047 C 
ATOM     26  C   UNL     1     -36.313  22.491   3.281  0.00  0.00    -0.100 C 
ATOM     27  H   UNL     1     -35.019  24.092   3.407  0.00  0.00    -0.079 HD
ENDROOT
BRANCH  13  28
ATOM     28  O   UNL     1     -30.613  30.512   5.951  0.00  0.00    -0.376 OA
ATOM     29  H   UNL     1     -31.400  30.819   6.428  0.00  0.00    +0.211 HD
ENDBRANCH  13  28
TORSDOF 1
ENDMDL
MODEL 3
REMARK VINA RESULT:      -6.7      5.376      8.793
REMARK  Name = 5358779
REMARK  1 active torsions:
REMARK  status: ('A' for Active; 'I' for Inactive)
REMARK    1  A    between atoms: C_13  and  O_28
REMARK                            x       y       z     vdW  Elec       q    Type
REMARK                         _______ _______ _______ _____ _____    ______ ____
ROOT
ATOM      1  O   UNL     1     -40.438  22.426   1.420  0.00  0.00    -0.345 OA
ATOM      2  O   UNL     1     -37.748  21.390   0.812  0.00  0.00    -0.443 OA
ATOM      3  O   UNL     1     -37.977  23.105  -0.723  0.00  0.00    -0.247 OA
ATOM      4  O   UNL     1     -35.521  22.684   3.095  0.00  0.00    -0.442 OA
ATOM      5  O   UNL     1     -36.250  22.780   5.279  0.00  0.00    -0.248 OA
ATOM      6  O   UNL     1     -34.800  22.279   0.235  0.00  0.00    -0.288 OA
ATOM      7  N   UNL     1     -34.417  18.964  -0.651  0.00  0.00    +0.388 N 
ATOM      8  C   UNL     1     -39.207  23.168   1.300  0.00  0.00    +0.206 C 
ATOM      9  C   UNL     1     -40.532  23.707   0.795  0.00  0.00    +0.151 C 
ATOM     10  C   UNL     1     -38.690  23.648   2.642  0.00  0.00    +0.044 C 
ATOM     11  C   UNL     1     -37.496  24.629   2.500  0.00  0.00    +0.038 C 
ATOM     12  C   UNL     1     -38.269  22.552   0.328  0.00  0.00    +0.344 C 
ATOM     13  C   UNL     1     -36.627  24.674   3.792  0.00  0.00    +0.177 C 
ATOM     14  C   UNL     1     -40.933  23.635  -0.631  0.00  0.00    +0.035 C 
ATOM     15  C   UNL     1     -38.026  26.015   2.099  0.00  0.00    +0.003 C 
ATOM     16  C   UNL     1     -35.420  25.609   3.671  0.00  0.00    +0.041 C 
ATOM     17  C   UNL     1     -36.681  20.788   0.060  0.00  0.00    +0.227 C 
ATOM     18  C   UNL     1     -36.117  23.282   4.169  0.00  0.00    +0.342 C 
ATOM     19  C   UNL     1     -36.831  19.266   0.112  0.00  0.00    +0.029 C 
ATOM     20  C   UNL     1     -35.393  21.301   0.691  0.00  0.00    +0.212 C 
ATOM     21  C   UNL     1     -35.822  18.534  -0.785  0.00  0.00    -0.073 C 
ATOM     22  C   UNL     1     -34.893  20.650   1.932  0.00  0.00    +0.053 C 
ATOM     23  C   UNL     1     -35.187  21.297   3.258  0.00  0.00    +0.238 C 
ATOM     24  C   UNL     1     -33.836  18.644   0.659  0.00  0.00    -0.051 C 
ATOM     25  C   UNL     1     -34.201  19.500   1.847  0.00  0.00    -0.047 C 
ATOM     26  C   UNL     1     -33.618  18.348  -1.716  0.00  0.00    -0.100 C 
ATOM     27  H   UNL     1     -34.405  19.981  -0.733  0.00  0.00    -0.079 HD
ENDROOT
BRANCH  13  28
ATOM     28  O   UNL     1     -37.437  25.125   4.875  0.00  0.00    -0.376 OA
ATOM     29  H   UNL     1     -37.058  24.818   5.713  0.00  0.00    +0.211 HD
ENDBRANCH  13  28
TORSDOF 1
ENDMDL
MODEL 4
REMARK VINA RESULT:      -6.3      4.192      7.972
REMARK  Name = 5358779
REMARK  1 active torsions:
REMARK  status: ('A' for Active; 'I' for Inactive)
REMARK    1  A    between atoms: C_13  and  O_28
REMARK                            x       y       z     vdW  Elec       q    Type
REMARK                         _______ _______ _______ _____ _____    ______ ____
ROOT
ATOM      1  O   UNL     1     -39.369  25.575   1.072  0.00  0.00    -0.345 OA
ATOM      2  O   UNL     1     -37.276  23.520   0.799  0.00  0.00    -0.443 OA
ATOM      3  O   UNL     1     -36.472  25.228  -0.538  0.00  0.00    -0.247 OA
ATOM      4  O   UNL     1     -35.221  23.662   3.557  0.00  0.00    -0.442 OA
ATOM      5  O   UNL     1     -36.269  23.975   5.586  0.00  0.00    -0.248 OA
ATOM      6  O   UNL     1     -34.172  23.097   0.828  0.00  0.00    -0.288 OA
ATOM      7  N   UNL     1     -35.008  19.969  -0.368  0.00  0.00    +0.388 N 
ATOM      8  C   UNL     1     -37.946  25.730   1.246  0.00  0.00    +0.206 C 
ATOM      9  C   UNL     1     -38.804  26.798   0.595  0.00  0.00    +0.151 C 
ATOM     10  C   UNL     1     -37.558  25.894   2.703  0.00  0.00    +0.044 C 
ATOM     11  C   UNL     1     -36.066  26.281   2.877  0.00  0.00    +0.038 C 
ATOM     12  C   UNL     1     -37.168  24.812   0.377  0.00  0.00    +0.344 C 
ATOM     13  C   UNL     1     -35.531  25.905   4.292  0.00  0.00    +0.177 C 
ATOM     14  C   UNL     1     -38.905  26.956  -0.875  0.00  0.00    +0.035 C 
ATOM     15  C   UNL     1     -35.891  27.775   2.561  0.00  0.00    +0.003 C 
ATOM     16  C   UNL     1     -34.051  26.245   4.484  0.00  0.00    +0.041 C 
ATOM     17  C   UNL     1     -36.421  22.552   0.168  0.00  0.00    +0.227 C 
ATOM     18  C   UNL     1     -35.722  24.415   4.581  0.00  0.00    +0.342 C 
ATOM     19  C   UNL     1     -37.187  21.236   0.015  0.00  0.00    +0.029 C 
ATOM     20  C   UNL     1     -35.191  22.447   1.061  0.00  0.00    +0.212 C 
ATOM     21  C   UNL     1     -36.408  20.180  -0.783  0.00  0.00    -0.073 C 
ATOM     22  C   UNL     1     -35.260  21.599   2.281  0.00  0.00    +0.053 C 
ATOM     23  C   UNL     1     -35.523  22.259   3.607  0.00  0.00    +0.238 C 
ATOM     24  C   UNL     1     -34.884  19.383   0.973  0.00  0.00    -0.051 C 
ATOM     25  C   UNL     1     -35.097  20.268   2.177  0.00  0.00    -0.047 C 
ATOM     26  C   UNL     1     -34.335  19.112  -1.351  0.00  0.00    -0.100 C 
ATOM     27  H   UNL     1     -34.565  20.887  -0.326  0.00  0.00    -0.079 HD
ENDROOT
BRANCH  13  28
ATOM     28  O   UNL     1     -36.286  26.616   5.271  0.00  0.00    -0.376 OA
ATOM     29  H   UNL     1     -36.609  27.447   4.890  0.00  0.00    +0.211 HD
ENDBRANCH  13  28
TORSDOF 1
ENDMDL
MODEL 5
REMARK VINA RESULT:      -6.2      2.492      6.360
REMARK  Name = 5358779
REMARK  1 active torsions:
REMARK  status: ('A' for Active; 'I' for Inactive)
REMARK    1  A    between atoms: C_13  and  O_28
REMARK                            x       y       z     vdW  Elec       q    Type
REMARK                         _______ _______ _______ _____ _____    ______ ____
ROOT
ATOM      1  O   UNL     1     -36.226  30.115   2.118  0.00  0.00    -0.345 OA
ATOM      2  O   UNL     1     -35.711  27.272   2.686  0.00  0.00    -0.443 OA
ATOM      3  O   UNL     1     -34.914  27.498   0.526  0.00  0.00    -0.247 OA
ATOM      4  O   UNL     1     -32.832  27.020   4.554  0.00  0.00    -0.442 OA
ATOM      5  O   UNL     1     -32.562  28.593   6.217  0.00  0.00    -0.248 OA
ATOM      6  O   UNL     1     -33.533  25.032   2.452  0.00  0.00    -0.288 OA
ATOM      7  N   UNL     1     -36.164  22.967   3.308  0.00  0.00    +0.388 N 
ATOM      8  C   UNL     1     -34.993  29.387   1.953  0.00  0.00    +0.206 C 
ATOM      9  C   UNL     1     -35.445  30.450   0.969  0.00  0.00    +0.151 C 
ATOM     10  C   UNL     1     -33.961  29.757   3.000  0.00  0.00    +0.044 C 
ATOM     11  C   UNL     1     -32.566  29.147   2.698  0.00  0.00    +0.038 C 
ATOM     12  C   UNL     1     -35.221  27.960   1.617  0.00  0.00    +0.344 C 
ATOM     13  C   UNL     1     -31.693  29.032   3.982  0.00  0.00    +0.177 C 
ATOM     14  C   UNL     1     -36.116  30.120  -0.312  0.00  0.00    +0.035 C 
ATOM     15  C   UNL     1     -31.884  29.970   1.594  0.00  0.00    +0.003 C 
ATOM     16  C   UNL     1     -30.322  28.403   3.722  0.00  0.00    +0.041 C 
ATOM     17  C   UNL     1     -35.797  25.842   2.561  0.00  0.00    +0.227 C 
ATOM     18  C   UNL     1     -32.398  28.212   5.064  0.00  0.00    +0.342 C 
ATOM     19  C   UNL     1     -37.059  25.354   3.274  0.00  0.00    +0.029 C 
ATOM     20  C   UNL     1     -34.504  25.299   3.159  0.00  0.00    +0.212 C 
ATOM     21  C   UNL     1     -37.319  23.854   3.071  0.00  0.00    -0.073 C 
ATOM     22  C   UNL     1     -34.397  25.170   4.637  0.00  0.00    +0.053 C 
ATOM     23  C   UNL     1     -33.690  26.250   5.410  0.00  0.00    +0.238 C 
ATOM     24  C   UNL     1     -35.733  22.939   4.712  0.00  0.00    -0.051 C 
ATOM     25  C   UNL     1     -34.938  24.103   5.253  0.00  0.00    -0.047 C 
ATOM     26  C   UNL     1     -36.495  21.609   2.861  0.00  0.00    -0.100 C 
ATOM     27  H   UNL     1     -35.381  23.343   2.772  0.00  0.00    -0.079 HD
ENDROOT
BRANCH  13  28
ATOM     28  O   UNL     1     -31.493  30.338   4.519  0.00  0.00    -0.376 OA
ATOM     29  H   UNL     1     -30.752  30.766   4.061  0.00  0.00    +0.211 HD
ENDBRANCH  13  28
TORSDOF 1
ENDMDL
MODEL 6
REMARK VINA RESULT:      -6.1      3.823      5.530
REMARK  Name = 5358779
REMARK  1 active torsions:
REMARK  status: ('A' for Active; 'I' for Inactive)
REMARK    1  A    between atoms: C_13  and  O_28
REMARK                            x       y       z     vdW  Elec       q    Type
REMARK                         _______ _______ _______ _____ _____    ______ ____
ROOT
ATOM      1  O   UNL     1     -35.185  20.727   3.283  0.00  0.00    -0.345 OA
ATOM      2  O   UNL     1     -34.840  23.555   2.533  0.00  0.00    -0.443 OA
ATOM      3  O   UNL     1     -34.472  22.461   0.528  0.00  0.00    -0.247 OA
ATOM      4  O   UNL     1     -37.946  24.969   2.088  0.00  0.00    -0.442 OA
ATOM      5  O   UNL     1     -39.559  24.375   3.623  0.00  0.00    -0.248 OA
ATOM      6  O   UNL     1     -35.622  25.678   0.367  0.00  0.00    -0.288 OA
ATOM      7  N   UNL     1     -33.228  27.580   1.969  0.00  0.00    +0.388 N 
ATOM      8  C   UNL     1     -35.809  21.439   2.195  0.00  0.00    +0.206 C 
ATOM      9  C   UNL     1     -35.349  19.999   2.065  0.00  0.00    +0.151 C 
ATOM     10  C   UNL     1     -37.277  21.714   2.452  0.00  0.00    +0.044 C 
ATOM     11  C   UNL     1     -38.002  22.277   1.201  0.00  0.00    +0.038 C 
ATOM     12  C   UNL     1     -34.942  22.517   1.656  0.00  0.00    +0.344 C 
ATOM     13  C   UNL     1     -39.288  23.068   1.583  0.00  0.00    +0.177 C 
ATOM     14  C   UNL     1     -34.063  19.625   1.429  0.00  0.00    +0.035 C 
ATOM     15  C   UNL     1     -38.288  21.127   0.223  0.00  0.00    +0.003 C 
ATOM     16  C   UNL     1     -40.008  23.665   0.371  0.00  0.00    +0.041 C 
ATOM     17  C   UNL     1     -34.190  24.748   2.063  0.00  0.00    +0.227 C 
ATOM     18  C   UNL     1     -38.974  24.203   2.560  0.00  0.00    +0.342 C 
ATOM     19  C   UNL     1     -33.375  25.356   3.205  0.00  0.00    +0.029 C 
ATOM     20  C   UNL     1     -35.308  25.651   1.556  0.00  0.00    +0.212 C 
ATOM     21  C   UNL     1     -32.524  26.554   2.762  0.00  0.00    -0.073 C 
ATOM     22  C   UNL     1     -36.082  26.455   2.541  0.00  0.00    +0.053 C 
ATOM     23  C   UNL     1     -37.417  25.939   3.006  0.00  0.00    +0.238 C 
ATOM     24  C   UNL     1     -34.257  28.297   2.733  0.00  0.00    -0.051 C 
ATOM     25  C   UNL     1     -35.576  27.613   3.000  0.00  0.00    -0.047 C 
ATOM     26  C   UNL     1     -32.251  28.533   1.431  0.00  0.00    -0.100 C 
ATOM     27  H   UNL     1     -33.713  27.096   1.213  0.00  0.00    -0.079 HD
ENDROOT
BRANCH  13  28
ATOM     28  O   UNL     1     -40.188  22.186   2.250  0.00  0.00    -0.376 OA
ATOM     29  H   UNL     1     -39.684  21.523   2.747  0.00  0.00    +0.211 HD
ENDBRANCH  13  28
TORSDOF 1
ENDMDL
MODEL 7
REMARK VINA RESULT:      -6.1      5.391      8.604
REMARK  Name = 5358779
REMARK  1 active torsions:
REMARK  status: ('A' for Active; 'I' for Inactive)
REMARK    1  A    between atoms: C_13  and  O_28
REMARK                            x       y       z     vdW  Elec       q    Type
REMARK                         _______ _______ _______ _____ _____    ______ ____
ROOT
ATOM      1  O   UNL     1     -41.146  22.628   0.533  0.00  0.00    -0.345 OA
ATOM      2  O   UNL     1     -38.342  21.730   0.462  0.00  0.00    -0.443 OA
ATOM      3  O   UNL     1     -38.520  22.953  -1.493  0.00  0.00    -0.247 OA
ATOM      4  O   UNL     1     -36.470  23.783   2.494  0.00  0.00    -0.442 OA
ATOM      5  O   UNL     1     -37.438  24.378   4.500  0.00  0.00    -0.248 OA
ATOM      6  O   UNL     1     -35.417  22.713  -0.076  0.00  0.00    -0.288 OA
ATOM      7  N   UNL     1     -34.713  19.335   0.003  0.00  0.00    +0.388 N 
ATOM      8  C   UNL     1     -39.964  23.427   0.324  0.00  0.00    +0.206 C 
ATOM      9  C   UNL     1     -41.260  23.686  -0.421  0.00  0.00    +0.151 C 
ATOM     10  C   UNL     1     -39.630  24.289   1.526  0.00  0.00    +0.044 C 
ATOM     11  C   UNL     1     -38.498  25.307   1.227  0.00  0.00    +0.038 C 
ATOM     12  C   UNL     1     -38.885  22.670  -0.361  0.00  0.00    +0.344 C 
ATOM     13  C   UNL     1     -37.779  25.772   2.529  0.00  0.00    +0.177 C 
ATOM     14  C   UNL     1     -41.497  23.205  -1.804  0.00  0.00    +0.035 C 
ATOM     15  C   UNL     1     -39.075  26.482   0.423  0.00  0.00    +0.003 C 
ATOM     16  C   UNL     1     -36.634  26.753   2.265  0.00  0.00    +0.041 C 
ATOM     17  C   UNL     1     -37.160  21.056  -0.004  0.00  0.00    +0.227 C 
ATOM     18  C   UNL     1     -37.219  24.583   3.311  0.00  0.00    +0.342 C 
ATOM     19  C   UNL     1     -37.210  19.595   0.444  0.00  0.00    +0.029 C 
ATOM     20  C   UNL     1     -35.987  21.838   0.574  0.00  0.00    +0.212 C 
ATOM     21  C   UNL     1     -36.062  18.753  -0.131  0.00  0.00    -0.073 C 
ATOM     22  C   UNL     1     -35.581  21.585   1.983  0.00  0.00    +0.053 C 
ATOM     23  C   UNL     1     -36.062  22.525   3.054  0.00  0.00    +0.238 C 
ATOM     24  C   UNL     1     -34.256  19.425   1.396  0.00  0.00    -0.051 C 
ATOM     25  C   UNL     1     -34.807  20.524   2.272  0.00  0.00    -0.047 C 
ATOM     26  C   UNL     1     -33.761  18.540  -0.783  0.00  0.00    -0.100 C 
ATOM     27  H   UNL     1     -34.761  20.291  -0.349  0.00  0.00    -0.079 HD
ENDROOT
BRANCH  13  28
ATOM     28  O   UNL     1     -38.732  26.412   3.376  0.00  0.00    -0.376 OA
ATOM     29  H   UNL     1     -38.390  27.276   3.653  0.00  0.00    +0.211 HD
ENDBRANCH  13  28
TORSDOF 1
ENDMDL
MODEL 8
REMARK VINA RESULT:      -6.0      4.957      7.157
REMARK  Name = 5358779
REMARK  1 active torsions:
REMARK  status: ('A' for Active; 'I' for Inactive)
REMARK    1  A    between atoms: C_13  and  O_28
REMARK                            x       y       z     vdW  Elec       q    Type
REMARK                         _______ _______ _______ _____ _____    ______ ____
ROOT
ATOM      1  O   UNL     1     -34.438  19.408   2.250  0.00  0.00    -0.345 OA
ATOM      2  O   UNL     1     -35.083  22.280   2.348  0.00  0.00    -0.443 OA
ATOM      3  O   UNL     1     -33.882  22.109   0.378  0.00  0.00    -0.247 OA
ATOM      4  O   UNL     1     -38.314  22.727   1.251  0.00  0.00    -0.442 OA
ATOM      5  O   UNL     1     -39.855  21.176   1.981  0.00  0.00    -0.248 OA
ATOM      6  O   UNL     1     -36.144  24.663   0.613  0.00  0.00    -0.288 OA
ATOM      7  N   UNL     1     -35.113  26.544   3.318  0.00  0.00    +0.388 N 
ATOM      8  C   UNL     1     -35.036  20.219   1.218  0.00  0.00    +0.206 C 
ATOM      9  C   UNL     1     -34.028  19.128   0.910  0.00  0.00    +0.151 C 
ATOM     10  C   UNL     1     -36.511  19.921   1.033  0.00  0.00    +0.044 C 
ATOM     11  C   UNL     1     -37.105  20.624  -0.216  0.00  0.00    +0.038 C 
ATOM     12  C   UNL     1     -34.571  21.628   1.267  0.00  0.00    +0.344 C 
ATOM     13  C   UNL     1     -38.649  20.798  -0.103  0.00  0.00    +0.177 C 
ATOM     14  C   UNL     1     -32.593  19.411   0.665  0.00  0.00    +0.035 C 
ATOM     15  C   UNL     1     -36.690  19.849  -1.476  0.00  0.00    +0.003 C 
ATOM     16  C   UNL     1     -39.261  21.519  -1.307  0.00  0.00    +0.041 C 
ATOM     17  C   UNL     1     -34.872  23.701   2.415  0.00  0.00    +0.227 C 
ATOM     18  C   UNL     1     -39.032  21.568   1.161  0.00  0.00    +0.342 C 
ATOM     19  C   UNL     1     -34.636  24.102   3.872  0.00  0.00    +0.029 C 
ATOM     20  C   UNL     1     -36.115  24.330   1.798  0.00  0.00    +0.212 C 
ATOM     21  C   UNL     1     -34.253  25.581   4.032  0.00  0.00    -0.073 C 
ATOM     22  C   UNL     1     -37.339  24.467   2.632  0.00  0.00    +0.053 C 
ATOM     23  C   UNL     1     -38.428  23.438   2.494  0.00  0.00    +0.238 C 
ATOM     24  C   UNL     1     -36.482  26.601   3.846  0.00  0.00    -0.051 C 
ATOM     25  C   UNL     1     -37.446  25.494   3.493  0.00  0.00    -0.047 C 
ATOM     26  C   UNL     1     -34.500  27.876   3.375  0.00  0.00    -0.100 C 
ATOM     27  H   UNL     1     -35.188  26.223   2.352  0.00  0.00    -0.079 HD
ENDROOT
BRANCH  13  28
ATOM     28  O   UNL     1     -39.249  19.508   0.000  0.00  0.00    -0.376 OA
ATOM     29  H   UNL     1     -38.949  19.076   0.814  0.00  0.00    +0.211 HD
ENDBRANCH  13  28
TORSDOF 1
ENDMDL
MODEL 9
REMARK VINA RESULT:      -6.0      4.695      8.157
REMARK  Name = 5358779
REMARK  1 active torsions:
REMARK  status: ('A' for Active; 'I' for Inactive)
REMARK    1  A    between atoms: C_13  and  O_28
REMARK                            x       y       z     vdW  Elec       q    Type
REMARK                         _______ _______ _______ _____ _____    ______ ____
ROOT
ATOM      1  O   UNL     1     -35.009  22.017   0.636  0.00  0.00    -0.345 OA
ATOM      2  O   UNL     1     -37.622  23.328   0.993  0.00  0.00    -0.443 OA
ATOM      3  O   UNL     1     -37.758  21.544   2.460  0.00  0.00    -0.247 OA
ATOM      4  O   UNL     1     -37.228  26.028   3.091  0.00  0.00    -0.442 OA
ATOM      5  O   UNL     1     -35.337  27.303   2.757  0.00  0.00    -0.248 OA
ATOM      6  O   UNL     1     -39.651  24.301   3.172  0.00  0.00    -0.288 OA
ATOM      7  N   UNL     1     -41.739  24.697   0.452  0.00  0.00    +0.388 N 
ATOM      8  C   UNL     1     -35.638  22.419   1.869  0.00  0.00    +0.206 C 
ATOM      9  C   UNL     1     -34.839  21.135   1.748  0.00  0.00    +0.151 C 
ATOM     10  C   UNL     1     -34.973  23.635   2.486  0.00  0.00    +0.044 C 
ATOM     11  C   UNL     1     -35.499  23.937   3.914  0.00  0.00    +0.038 C 
ATOM     12  C   UNL     1     -37.119  22.349   1.797  0.00  0.00    +0.344 C 
ATOM     13  C   UNL     1     -35.274  25.426   4.312  0.00  0.00    +0.177 C 
ATOM     14  C   UNL     1     -35.478  19.812   1.549  0.00  0.00    +0.035 C 
ATOM     15  C   UNL     1     -34.853  22.958   4.907  0.00  0.00    +0.003 C 
ATOM     16  C   UNL     1     -35.813  25.763   5.705  0.00  0.00    +0.041 C 
ATOM     17  C   UNL     1     -39.049  23.498   0.985  0.00  0.00    +0.227 C 
ATOM     18  C   UNL     1     -35.924  26.376   3.304  0.00  0.00    +0.342 C 
ATOM     19  C   UNL     1     -39.501  23.857  -0.432  0.00  0.00    +0.029 C 
ATOM     20  C   UNL     1     -39.340  24.582   2.016  0.00  0.00    +0.212 C 
ATOM     21  C   UNL     1     -41.028  23.915  -0.578  0.00  0.00    -0.073 C 
ATOM     22  C   UNL     1     -39.162  26.008   1.627  0.00  0.00    +0.053 C 
ATOM     23  C   UNL     1     -37.889  26.710   2.014  0.00  0.00    +0.238 C 
ATOM     24  C   UNL     1     -41.446  26.136   0.391  0.00  0.00    -0.051 C 
ATOM     25  C   UNL     1     -40.130  26.634   0.935  0.00  0.00    -0.047 C 
ATOM     26  C   UNL     1     -43.183  24.476   0.318  0.00  0.00    -0.100 C 
ATOM     27  H   UNL     1     -41.407  24.372   1.360  0.00  0.00    -0.079 HD
ENDROOT
BRANCH  13  28
ATOM     28  O   UNL     1     -33.874  25.699   4.294  0.00  0.00    -0.376 OA
ATOM     29  H   UNL     1     -33.728  26.649   4.419  0.00  0.00    +0.211 HD
ENDBRANCH  13  28
TORSDOF 1
ENDMDL
