MODEL 1
REMARK VINA RESULT:      -6.9      0.000      0.000
REMARK  Name = 54693773
REMARK  7 active torsions:
REMARK  status: ('A' for Active; 'I' for Inactive)
REMARK    1  A    between atoms: N_2  and  C_10
REMARK    2  A    between atoms: C_3  and  C_21
REMARK    3  A    between atoms: C_9  and  O_16
REMARK    4  A    between atoms: C_13  and  O_18
REMARK    5  A    between atoms: CA_23  and  C_29
REMARK    6  A    between atoms: C_25  and  O_26
REMARK    7  A    between atoms: C_29  and  O_30
REMARK                            x       y       z     vdW  Elec       q    Type
REMARK                         _______ _______ _______ _____ _____    ______ ____
ROOT
ATOM      1  O   UNL     1     -36.079  26.586   5.262  0.00  0.00    -0.267 OA
ATOM      2  N   UNL     1     -35.516  26.168   3.045  0.00  0.00    -0.271 N 
ATOM      3  C   UNL     1     -35.742  25.816   4.366  0.00  0.00    +0.276 C 
ATOM      4  H   UNL     1     -35.250  25.462   2.412  0.00  0.00    +0.156 HD
ENDROOT
BRANCH   2  10
ATOM      5  O   UNL     1     -36.900  28.952   1.121  0.00  0.00    -0.420 OA
ATOM      6  O   UNL     1     -37.536  26.770   1.307  0.00  0.00    -0.243 OA
ATOM      7  C   UNL     1     -35.008  29.796   2.416  0.00  0.00    +0.070 A 
ATOM      8  C   UNL     1     -36.049  30.006   1.510  0.00  0.00    +0.155 A 
ATOM      9  C   UNL     1     -34.818  28.437   2.936  0.00  0.00    +0.156 A 
ATOM     10  C   UNL     1     -35.647  27.447   2.575  0.00  0.00    +0.162 A 
ATOM     11  C   UNL     1     -34.232  30.907   2.774  0.00  0.00    +0.009 C 
ATOM     12  C   UNL     1     -36.317  31.257   0.951  0.00  0.00    +0.075 C 
ATOM     13  C   UNL     1     -35.527  32.344   1.310  0.00  0.00    +0.142 C 
ATOM     14  C   UNL     1     -36.766  27.668   1.633  0.00  0.00    +0.362 A 
ATOM     15  C   UNL     1     -34.489  32.170   2.223  0.00  0.00    +0.037 C 
BRANCH   9  16
ATOM     16  O   UNL     1     -33.758  28.286   3.804  0.00  0.00    -0.504 OA
ATOM     17  H   UNL     1     -32.902  28.100   3.470  0.00  0.00    +0.292 HD
ENDBRANCH   9  16
BRANCH  13  18
ATOM     18  O   UNL     1     -35.769  33.572   0.779  0.00  0.00    -0.471 OA
ATOM     19  C   UNL     1     -34.927  34.642   1.205  0.00  0.00    +0.252 C 
ENDBRANCH  13  18
ENDBRANCH   2  10
BRANCH   3  21
ATOM     20  N   UNL     1     -35.643  23.530   3.628  0.00  0.00    -0.392 NA
ATOM     21  C   UNL     1     -35.573  24.374   4.682  0.00  0.00    +0.167 C 
ATOM     22  C   UNL     1     -35.361  23.966   5.990  0.00  0.00    +0.093 C 
ATOM     23  CA  UNL     1     -35.492  22.215   3.902  0.00  0.00    +0.239 C 
ATOM     24  C   UNL     1     -35.210  22.606   6.230  0.00  0.00    +0.021 C 
ATOM     25  C   UNL     1     -35.275  21.706   5.172  0.00  0.00    +0.166 C 
BRANCH  25  26
ATOM     26  O   UNL     1     -35.132  20.375   5.398  0.00  0.00    -0.503 OA
ATOM     27  H   UNL     1     -34.641  19.848   4.798  0.00  0.00    +0.292 HD
ENDBRANCH  25  26
BRANCH  23  29
ATOM     28  OXT UNL     1     -34.979  21.501   1.676  0.00  0.00    -0.242 OA
ATOM     29  C   UNL     1     -35.573  21.335   2.746  0.00  0.00    +0.371 C 
BRANCH  29  30
ATOM     30  O   UNL     1     -36.395  20.271   2.959  0.00  0.00    -0.475 OA
ATOM     31  H   UNL     1     -36.867  20.199   3.765  0.00  0.00    +0.295 HD
ENDBRANCH  29  30
ENDBRANCH  23  29
ENDBRANCH   3  21
TORSDOF 7
ENDMDL
MODEL 2
REMARK VINA RESULT:      -6.6      0.950      2.124
REMARK  Name = 54693773
REMARK  7 active torsions:
REMARK  status: ('A' for Active; 'I' for Inactive)
REMARK    1  A    between atoms: N_2  and  C_10
REMARK    2  A    between atoms: C_3  and  C_21
REMARK    3  A    between atoms: C_9  and  O_16
REMARK    4  A    between atoms: C_13  and  O_18
REMARK    5  A    between atoms: CA_23  and  C_29
REMARK    6  A    between atoms: C_25  and  O_26
REMARK    7  A    between atoms: C_29  and  O_30
REMARK                            x       y       z     vdW  Elec       q    Type
REMARK                         _______ _______ _______ _____ _____    ______ ____
ROOT
ATOM      1  O   UNL     1     -36.054  26.554   5.340  0.00  0.00    -0.267 OA
ATOM      2  N   UNL     1     -34.445  26.287   3.682  0.00  0.00    -0.271 N 
ATOM      3  C   UNL     1     -35.304  25.843   4.674  0.00  0.00    +0.276 C 
ATOM      4  H   UNL     1     -33.890  25.623   3.213  0.00  0.00    +0.156 HD
ENDROOT
BRANCH   2  10
ATOM      5  O   UNL     1     -32.910  29.583   3.309  0.00  0.00    -0.420 OA
ATOM      6  O   UNL     1     -32.119  27.630   4.178  0.00  0.00    -0.243 OA
ATOM      7  C   UNL     1     -35.151  29.681   2.340  0.00  0.00    +0.070 A 
ATOM      8  C   UNL     1     -33.939  30.295   2.659  0.00  0.00    +0.155 A 
ATOM      9  C   UNL     1     -35.326  28.274   2.722  0.00  0.00    +0.156 A 
ATOM     10  C   UNL     1     -34.332  27.602   3.320  0.00  0.00    +0.162 A 
ATOM     11  C   UNL     1     -36.105  30.452   1.663  0.00  0.00    +0.009 C 
ATOM     12  C   UNL     1     -33.668  31.629   2.346  0.00  0.00    +0.075 C 
ATOM     13  C   UNL     1     -34.633  32.380   1.685  0.00  0.00    +0.142 C 
ATOM     14  C   UNL     1     -33.036  28.241   3.640  0.00  0.00    +0.362 A 
ATOM     15  C   UNL     1     -35.848  31.791   1.340  0.00  0.00    +0.037 C 
BRANCH   9  16
ATOM     16  O   UNL     1     -36.553  27.732   2.406  0.00  0.00    -0.504 OA
ATOM     17  H   UNL     1     -36.600  26.937   1.911  0.00  0.00    +0.292 HD
ENDBRANCH   9  16
BRANCH  13  18
ATOM     18  O   UNL     1     -34.392  33.681   1.370  0.00  0.00    -0.471 OA
ATOM     19  C   UNL     1     -33.469  34.389   2.197  0.00  0.00    +0.252 C 
ENDBRANCH  13  18
ENDBRANCH   2  10
BRANCH   3  21
ATOM     20  N   UNL     1     -35.407  23.604   3.804  0.00  0.00    -0.392 NA
ATOM     21  C   UNL     1     -35.307  24.376   4.910  0.00  0.00    +0.167 C 
ATOM     22  C   UNL     1     -35.211  23.875   6.199  0.00  0.00    +0.093 C 
ATOM     23  CA  UNL     1     -35.411  22.268   4.004  0.00  0.00    +0.239 C 
ATOM     24  C   UNL     1     -35.219  22.495   6.363  0.00  0.00    +0.021 C 
ATOM     25  C   UNL     1     -35.320  21.668   5.249  0.00  0.00    +0.166 C 
BRANCH  25  26
ATOM     26  O   UNL     1     -35.331  20.319   5.401  0.00  0.00    -0.503 OA
ATOM     27  H   UNL     1     -34.960  19.931   6.170  0.00  0.00    +0.292 HD
ENDBRANCH  25  26
BRANCH  23  29
ATOM     28  OXT UNL     1     -34.897  21.663   1.746  0.00  0.00    -0.242 OA
ATOM     29  C   UNL     1     -35.521  21.467   2.794  0.00  0.00    +0.371 C 
BRANCH  29  30
ATOM     30  O   UNL     1     -36.408  20.443   2.926  0.00  0.00    -0.475 OA
ATOM     31  H   UNL     1     -36.999  20.427   3.653  0.00  0.00    +0.295 HD
ENDBRANCH  29  30
ENDBRANCH  23  29
ENDBRANCH   3  21
TORSDOF 7
ENDMDL
MODEL 3
REMARK VINA RESULT:      -6.5      3.555      7.822
REMARK  Name = 54693773
REMARK  7 active torsions:
REMARK  status: ('A' for Active; 'I' for Inactive)
REMARK    1  A    between atoms: N_2  and  C_10
REMARK    2  A    between atoms: C_3  and  C_21
REMARK    3  A    between atoms: C_9  and  O_16
REMARK    4  A    between atoms: C_13  and  O_18
REMARK    5  A    between atoms: CA_23  and  C_29
REMARK    6  A    between atoms: C_25  and  O_26
REMARK    7  A    between atoms: C_29  and  O_30
REMARK                            x       y       z     vdW  Elec       q    Type
REMARK                         _______ _______ _______ _____ _____    ______ ____
ROOT
ATOM      1  O   UNL     1     -34.109  26.011   2.936  0.00  0.00    -0.267 OA
ATOM      2  N   UNL     1     -35.482  25.435   4.722  0.00  0.00    -0.271 N 
ATOM      3  C   UNL     1     -34.399  26.064   4.129  0.00  0.00    +0.276 C 
ATOM      4  H   UNL     1     -35.616  25.550   5.691  0.00  0.00    +0.156 HD
ENDROOT
BRANCH   2  10
ATOM      5  O   UNL     1     -36.920  22.430   3.217  0.00  0.00    -0.420 OA
ATOM      6  O   UNL     1     -35.043  22.750   4.471  0.00  0.00    -0.243 OA
ATOM      7  C   UNL     1     -38.413  24.303   2.735  0.00  0.00    +0.070 A 
ATOM      8  C   UNL     1     -38.093  22.949   2.632  0.00  0.00    +0.155 A 
ATOM      9  C   UNL     1     -37.477  25.174   3.457  0.00  0.00    +0.156 A 
ATOM     10  C   UNL     1     -36.376  24.665   4.029  0.00  0.00    +0.162 A 
ATOM     11  C   UNL     1     -39.615  24.727   2.154  0.00  0.00    +0.009 C 
ATOM     12  C   UNL     1     -38.910  22.033   1.964  0.00  0.00    +0.075 C 
ATOM     13  C   UNL     1     -40.093  22.478   1.384  0.00  0.00    +0.142 C 
ATOM     14  C   UNL     1     -36.043  23.226   3.942  0.00  0.00    +0.362 A 
ATOM     15  C   UNL     1     -40.447  23.822   1.482  0.00  0.00    +0.037 C 
BRANCH   9  16
ATOM     16  O   UNL     1     -37.832  26.505   3.501  0.00  0.00    -0.504 OA
ATOM     17  H   UNL     1     -37.941  26.933   4.328  0.00  0.00    +0.292 HD
ENDBRANCH   9  16
BRANCH  13  18
ATOM     18  O   UNL     1     -40.904  21.604   0.729  0.00  0.00    -0.471 OA
ATOM     19  C   UNL     1     -40.377  20.982  -0.443  0.00  0.00    +0.252 C 
ENDBRANCH  13  18
ENDBRANCH   2  10
BRANCH   3  21
ATOM     20  N   UNL     1     -32.956  27.954   4.480  0.00  0.00    -0.392 NA
ATOM     21  C   UNL     1     -33.554  26.878   5.040  0.00  0.00    +0.167 C 
ATOM     22  C   UNL     1     -33.415  26.519   6.372  0.00  0.00    +0.093 C 
ATOM     23  CA  UNL     1     -32.183  28.703   5.297  0.00  0.00    +0.239 C 
ATOM     24  C   UNL     1     -32.612  27.315   7.179  0.00  0.00    +0.021 C 
ATOM     25  C   UNL     1     -31.980  28.430   6.640  0.00  0.00    +0.166 C 
BRANCH  25  26
ATOM     26  O   UNL     1     -31.192  29.212   7.422  0.00  0.00    -0.503 OA
ATOM     27  H   UNL     1     -31.407  29.338   8.326  0.00  0.00    +0.292 HD
ENDBRANCH  25  26
BRANCH  23  29
ATOM     28  OXT UNL     1     -30.938  29.831   3.593  0.00  0.00    -0.242 OA
ATOM     29  C   UNL     1     -31.554  29.852   4.663  0.00  0.00    +0.371 C 
BRANCH  29  30
ATOM     30  O   UNL     1     -31.711  30.995   5.385  0.00  0.00    -0.475 OA
ATOM     31  H   UNL     1     -31.877  30.948   6.305  0.00  0.00    +0.295 HD
ENDBRANCH  29  30
ENDBRANCH  23  29
ENDBRANCH   3  21
TORSDOF 7
ENDMDL
MODEL 4
REMARK VINA RESULT:      -6.5      1.533      3.073
REMARK  Name = 54693773
REMARK  7 active torsions:
REMARK  status: ('A' for Active; 'I' for Inactive)
REMARK    1  A    between atoms: N_2  and  C_10
REMARK    2  A    between atoms: C_3  and  C_21
REMARK    3  A    between atoms: C_9  and  O_16
REMARK    4  A    between atoms: C_13  and  O_18
REMARK    5  A    between atoms: CA_23  and  C_29
REMARK    6  A    between atoms: C_25  and  O_26
REMARK    7  A    between atoms: C_29  and  O_30
REMARK                            x       y       z     vdW  Elec       q    Type
REMARK                         _______ _______ _______ _____ _____    ______ ____
ROOT
ATOM      1  O   UNL     1     -33.612  25.520   1.344  0.00  0.00    -0.267 OA
ATOM      2  N   UNL     1     -34.920  26.258   3.121  0.00  0.00    -0.271 N 
ATOM      3  C   UNL     1     -34.416  25.306   2.249  0.00  0.00    +0.276 C 
ATOM      4  H   UNL     1     -35.560  25.968   3.810  0.00  0.00    +0.156 HD
ENDROOT
BRANCH   2  10
ATOM      5  O   UNL     1     -32.956  29.273   3.765  0.00  0.00    -0.420 OA
ATOM      6  O   UNL     1     -32.627  27.094   4.348  0.00  0.00    -0.243 OA
ATOM      7  C   UNL     1     -34.885  29.905   2.404  0.00  0.00    +0.070 A 
ATOM      8  C   UNL     1     -33.714  30.247   3.084  0.00  0.00    +0.155 A 
ATOM      9  C   UNL     1     -35.310  28.501   2.440  0.00  0.00    +0.156 A 
ATOM     10  C   UNL     1     -34.569  27.580   3.073  0.00  0.00    +0.162 A 
ATOM     11  C   UNL     1     -35.557  30.930   1.725  0.00  0.00    +0.009 C 
ATOM     12  C   UNL     1     -33.221  31.553   3.118  0.00  0.00    +0.075 C 
ATOM     13  C   UNL     1     -33.910  32.556   2.447  0.00  0.00    +0.142 C 
ATOM     14  C   UNL     1     -33.316  27.932   3.775  0.00  0.00    +0.362 A 
ATOM     15  C   UNL     1     -35.075  32.245   1.748  0.00  0.00    +0.037 C 
BRANCH   9  16
ATOM     16  O   UNL     1     -36.487  28.230   1.776  0.00  0.00    -0.504 OA
ATOM     17  H   UNL     1     -36.667  28.643   0.954  0.00  0.00    +0.292 HD
ENDBRANCH   9  16
BRANCH  13  18
ATOM     18  O   UNL     1     -33.448  33.836   2.467  0.00  0.00    -0.471 OA
ATOM     19  C   UNL     1     -34.181  34.803   1.715  0.00  0.00    +0.252 C 
ENDBRANCH  13  18
ENDBRANCH   2  10
BRANCH   3  21
ATOM     20  N   UNL     1     -35.011  23.536   3.763  0.00  0.00    -0.392 NA
ATOM     21  C   UNL     1     -34.895  23.917   2.471  0.00  0.00    +0.167 C 
ATOM     22  C   UNL     1     -35.192  23.099   1.392  0.00  0.00    +0.093 C 
ATOM     23  CA  UNL     1     -35.445  22.274   3.980  0.00  0.00    +0.239 C 
ATOM     24  C   UNL     1     -35.635  21.809   1.656  0.00  0.00    +0.021 C 
ATOM     25  C   UNL     1     -35.767  21.380   2.972  0.00  0.00    +0.166 C 
BRANCH  25  26
ATOM     26  O   UNL     1     -36.197  20.120   3.239  0.00  0.00    -0.503 OA
ATOM     27  H   UNL     1     -35.897  19.676   4.009  0.00  0.00    +0.292 HD
ENDBRANCH  25  26
BRANCH  23  29
ATOM     28  OXT UNL     1     -36.047  22.596   6.274  0.00  0.00    -0.242 OA
ATOM     29  C   UNL     1     -35.558  21.897   5.380  0.00  0.00    +0.371 C 
BRANCH  29  30
ATOM     30  O   UNL     1     -35.055  20.656   5.627  0.00  0.00    -0.475 OA
ATOM     31  H   UNL     1     -34.418  20.286   5.048  0.00  0.00    +0.295 HD
ENDBRANCH  29  30
ENDBRANCH  23  29
ENDBRANCH   3  21
TORSDOF 7
ENDMDL
MODEL 5
REMARK VINA RESULT:      -6.5      4.331      5.689
REMARK  Name = 54693773
REMARK  7 active torsions:
REMARK  status: ('A' for Active; 'I' for Inactive)
REMARK    1  A    between atoms: N_2  and  C_10
REMARK    2  A    between atoms: C_3  and  C_21
REMARK    3  A    between atoms: C_9  and  O_16
REMARK    4  A    between atoms: C_13  and  O_18
REMARK    5  A    between atoms: CA_23  and  C_29
REMARK    6  A    between atoms: C_25  and  O_26
REMARK    7  A    between atoms: C_29  and  O_30
REMARK                            x       y       z     vdW  Elec       q    Type
REMARK                         _______ _______ _______ _____ _____    ______ ____
ROOT
ATOM      1  O   UNL     1     -32.280  26.259   3.398  0.00  0.00    -0.267 OA
ATOM      2  N   UNL     1     -33.292  27.876   4.728  0.00  0.00    -0.271 N 
ATOM      3  C   UNL     1     -33.265  26.712   3.977  0.00  0.00    +0.276 C 
ATOM      4  H   UNL     1     -34.142  28.141   5.149  0.00  0.00    +0.156 HD
ENDROOT
BRANCH   2  10
ATOM      5  O   UNL     1     -30.968  30.639   4.153  0.00  0.00    -0.420 OA
ATOM      6  O   UNL     1     -32.931  30.072   3.143  0.00  0.00    -0.243 OA
ATOM      7  C   UNL     1     -30.124  29.321   6.030  0.00  0.00    +0.070 A 
ATOM      8  C   UNL     1     -30.005  30.402   5.155  0.00  0.00    +0.155 A 
ATOM      9  C   UNL     1     -31.276  28.427   5.858  0.00  0.00    +0.156 A 
ATOM     10  C   UNL     1     -32.197  28.674   4.915  0.00  0.00    +0.162 A 
ATOM     11  C   UNL     1     -29.141  29.181   7.018  0.00  0.00    +0.009 C 
ATOM     12  C   UNL     1     -28.948  31.312   5.226  0.00  0.00    +0.075 C 
ATOM     13  C   UNL     1     -27.976  31.147   6.207  0.00  0.00    +0.142 C 
ATOM     14  C   UNL     1     -32.088  29.832   4.000  0.00  0.00    +0.362 A 
ATOM     15  C   UNL     1     -28.075  30.085   7.104  0.00  0.00    +0.037 C 
BRANCH   9  16
ATOM     16  O   UNL     1     -31.324  27.362   6.732  0.00  0.00    -0.504 OA
ATOM     17  H   UNL     1     -30.601  27.192   7.304  0.00  0.00    +0.292 HD
ENDBRANCH   9  16
BRANCH  13  18
ATOM     18  O   UNL     1     -26.938  32.021   6.295  0.00  0.00    -0.471 OA
ATOM     19  C   UNL     1     -27.088  33.277   5.635  0.00  0.00    +0.252 C 
ENDBRANCH  13  18
ENDBRANCH   2  10
BRANCH   3  21
ATOM     20  N   UNL     1     -34.552  24.750   4.500  0.00  0.00    -0.392 NA
ATOM     21  C   UNL     1     -34.548  25.965   3.907  0.00  0.00    +0.167 C 
ATOM     22  C   UNL     1     -35.644  26.518   3.265  0.00  0.00    +0.093 C 
ATOM     23  CA  UNL     1     -35.712  24.059   4.443  0.00  0.00    +0.239 C 
ATOM     24  C   UNL     1     -36.819  25.777   3.229  0.00  0.00    +0.021 C 
ATOM     25  C   UNL     1     -36.863  24.522   3.827  0.00  0.00    +0.166 C 
BRANCH  25  26
ATOM     26  O   UNL     1     -38.006  23.790   3.793  0.00  0.00    -0.503 OA
ATOM     27  H   UNL     1     -38.019  22.964   3.350  0.00  0.00    +0.292 HD
ENDBRANCH  25  26
BRANCH  23  29
ATOM     28  OXT UNL     1     -35.449  22.555   6.286  0.00  0.00    -0.242 OA
ATOM     29  C   UNL     1     -35.682  22.756   5.089  0.00  0.00    +0.371 C 
BRANCH  29  30
ATOM     30  O   UNL     1     -35.943  21.739   4.223  0.00  0.00    -0.475 OA
ATOM     31  H   UNL     1     -36.345  20.951   4.533  0.00  0.00    +0.295 HD
ENDBRANCH  29  30
ENDBRANCH  23  29
ENDBRANCH   3  21
TORSDOF 7
ENDMDL
MODEL 6
REMARK VINA RESULT:      -6.5      3.921     10.048
REMARK  Name = 54693773
REMARK  7 active torsions:
REMARK  status: ('A' for Active; 'I' for Inactive)
REMARK    1  A    between atoms: N_2  and  C_10
REMARK    2  A    between atoms: C_3  and  C_21
REMARK    3  A    between atoms: C_9  and  O_16
REMARK    4  A    between atoms: C_13  and  O_18
REMARK    5  A    between atoms: CA_23  and  C_29
REMARK    6  A    between atoms: C_25  and  O_26
REMARK    7  A    between atoms: C_29  and  O_30
REMARK                            x       y       z     vdW  Elec       q    Type
REMARK                         _______ _______ _______ _____ _____    ______ ____
ROOT
ATOM      1  O   UNL     1     -35.405  20.687   3.729  0.00  0.00    -0.267 OA
ATOM      2  N   UNL     1     -35.916  21.630   1.665  0.00  0.00    -0.271 N 
ATOM      3  C   UNL     1     -35.721  21.653   3.037  0.00  0.00    +0.276 C 
ATOM      4  H   UNL     1     -36.167  22.470   1.215  0.00  0.00    +0.156 HD
ENDROOT
BRANCH   2  10
ATOM      5  O   UNL     1     -34.236  19.084  -0.349  0.00  0.00    -0.420 OA
ATOM      6  O   UNL     1     -33.444  20.920   0.745  0.00  0.00    -0.243 OA
ATOM      7  C   UNL     1     -36.606  18.502  -0.221  0.00  0.00    +0.070 A 
ATOM      8  C   UNL     1     -35.313  18.234  -0.673  0.00  0.00    +0.155 A 
ATOM      9  C   UNL     1     -36.810  19.712   0.585  0.00  0.00    +0.156 A 
ATOM     10  C   UNL     1     -35.775  20.501   0.905  0.00  0.00    +0.162 A 
ATOM     11  C   UNL     1     -37.610  17.586  -0.560  0.00  0.00    +0.009 C 
ATOM     12  C   UNL     1     -35.007  17.114  -1.450  0.00  0.00    +0.075 C 
ATOM     13  C   UNL     1     -36.021  16.224  -1.785  0.00  0.00    +0.142 C 
ATOM     14  C   UNL     1     -34.398  20.209   0.449  0.00  0.00    +0.362 A 
ATOM     15  C   UNL     1     -37.319  16.457  -1.338  0.00  0.00    +0.037 C 
BRANCH   9  16
ATOM     16  O   UNL     1     -38.112  19.939   0.978  0.00  0.00    -0.504 OA
ATOM     17  H   UNL     1     -38.821  19.682   0.421  0.00  0.00    +0.292 HD
ENDBRANCH   9  16
BRANCH  13  18
ATOM     18  O   UNL     1     -35.746  15.126  -2.540  0.00  0.00    -0.471 OA
ATOM     19  C   UNL     1     -35.459  13.914  -1.844  0.00  0.00    +0.252 C 
ENDBRANCH  13  18
ENDBRANCH   2  10
BRANCH   3  21
ATOM     20  N   UNL     1     -36.667  23.862   3.017  0.00  0.00    -0.392 NA
ATOM     21  C   UNL     1     -35.896  22.977   3.687  0.00  0.00    +0.167 C 
ATOM     22  C   UNL     1     -35.287  23.243   4.904  0.00  0.00    +0.093 C 
ATOM     23  CA  UNL     1     -36.835  25.071   3.597  0.00  0.00    +0.239 C 
ATOM     24  C   UNL     1     -35.484  24.498   5.468  0.00  0.00    +0.021 C 
ATOM     25  C   UNL     1     -36.271  25.436   4.809  0.00  0.00    +0.166 C 
BRANCH  25  26
ATOM     26  O   UNL     1     -36.465  26.665   5.352  0.00  0.00    -0.503 OA
ATOM     27  H   UNL     1     -36.722  26.745   6.250  0.00  0.00    +0.292 HD
ENDBRANCH  25  26
BRANCH  23  29
ATOM     28  OXT UNL     1     -37.411  26.453   1.730  0.00  0.00    -0.242 OA
ATOM     29  C   UNL     1     -37.669  26.000   2.850  0.00  0.00    +0.371 C 
BRANCH  29  30
ATOM     30  O   UNL     1     -38.803  26.338   3.522  0.00  0.00    -0.475 OA
ATOM     31  H   UNL     1     -39.626  26.350   3.075  0.00  0.00    +0.295 HD
ENDBRANCH  29  30
ENDBRANCH  23  29
ENDBRANCH   3  21
TORSDOF 7
ENDMDL
MODEL 7
REMARK VINA RESULT:      -6.4      4.590      7.631
REMARK  Name = 54693773
REMARK  7 active torsions:
REMARK  status: ('A' for Active; 'I' for Inactive)
REMARK    1  A    between atoms: N_2  and  C_10
REMARK    2  A    between atoms: C_3  and  C_21
REMARK    3  A    between atoms: C_9  and  O_16
REMARK    4  A    between atoms: C_13  and  O_18
REMARK    5  A    between atoms: CA_23  and  C_29
REMARK    6  A    between atoms: C_25  and  O_26
REMARK    7  A    between atoms: C_29  and  O_30
REMARK                            x       y       z     vdW  Elec       q    Type
REMARK                         _______ _______ _______ _____ _____    ______ ____
ROOT
ATOM      1  O   UNL     1     -36.593  20.910  -0.317  0.00  0.00    -0.267 OA
ATOM      2  N   UNL     1     -38.128  20.778   1.425  0.00  0.00    -0.271 N 
ATOM      3  C   UNL     1     -37.565  20.385   0.222  0.00  0.00    +0.276 C 
ATOM      4  H   UNL     1     -38.908  20.279   1.761  0.00  0.00    +0.156 HD
ENDROOT
BRANCH   2  10
ATOM      5  O   UNL     1     -37.834  24.203   2.666  0.00  0.00    -0.420 OA
ATOM      6  O   UNL     1     -39.247  23.255   1.149  0.00  0.00    -0.243 OA
ATOM      7  C   UNL     1     -36.183  22.834   3.835  0.00  0.00    +0.070 A 
ATOM      8  C   UNL     1     -36.793  24.068   3.607  0.00  0.00    +0.155 A 
ATOM      9  C   UNL     1     -36.648  21.685   3.048  0.00  0.00    +0.156 A 
ATOM     10  C   UNL     1     -37.653  21.822   2.171  0.00  0.00    +0.162 A 
ATOM     11  C   UNL     1     -35.181  22.782   4.813  0.00  0.00    +0.009 C 
ATOM     12  C   UNL     1     -36.426  25.225   4.297  0.00  0.00    +0.075 C 
ATOM     13  C   UNL     1     -35.421  25.154   5.255  0.00  0.00    +0.142 C 
ATOM     14  C   UNL     1     -38.320  23.123   1.941  0.00  0.00    +0.362 A 
ATOM     15  C   UNL     1     -34.802  23.933   5.515  0.00  0.00    +0.037 C 
BRANCH   9  16
ATOM     16  O   UNL     1     -35.989  20.501   3.297  0.00  0.00    -0.504 OA
ATOM     17  H   UNL     1     -35.819  20.236   4.179  0.00  0.00    +0.292 HD
ENDBRANCH   9  16
BRANCH  13  18
ATOM     18  O   UNL     1     -35.048  26.269   5.939  0.00  0.00    -0.471 OA
ATOM     19  C   UNL     1     -33.649  26.538   6.028  0.00  0.00    +0.252 C 
ENDBRANCH  13  18
ENDBRANCH   2  10
BRANCH   3  21
ATOM     20  N   UNL     1     -37.621  18.017  -0.191  0.00  0.00    -0.392 NA
ATOM     21  C   UNL     1     -38.203  19.213  -0.432  0.00  0.00    +0.167 C 
ATOM     22  C   UNL     1     -39.323  19.384  -1.231  0.00  0.00    +0.093 C 
ATOM     23  CA  UNL     1     -38.191  16.943  -0.780  0.00  0.00    +0.239 C 
ATOM     24  C   UNL     1     -39.880  18.254  -1.819  0.00  0.00    +0.021 C 
ATOM     25  C   UNL     1     -39.310  17.006  -1.594  0.00  0.00    +0.166 C 
BRANCH  25  26
ATOM     26  O   UNL     1     -39.846  15.898  -2.167  0.00  0.00    -0.503 OA
ATOM     27  H   UNL     1     -39.452  15.531  -2.935  0.00  0.00    +0.292 HD
ENDBRANCH  25  26
BRANCH  23  29
ATOM     28  OXT UNL     1     -37.334  14.776  -1.325  0.00  0.00    -0.242 OA
ATOM     29  C   UNL     1     -37.539  15.672  -0.500  0.00  0.00    +0.371 C 
BRANCH  29  30
ATOM     30  O   UNL     1     -37.162  15.556   0.802  0.00  0.00    -0.475 OA
ATOM     31  H   UNL     1     -37.347  14.768   1.274  0.00  0.00    +0.295 HD
ENDBRANCH  29  30
ENDBRANCH  23  29
ENDBRANCH   3  21
TORSDOF 7
ENDMDL
MODEL 8
REMARK VINA RESULT:      -6.4      8.696      9.712
REMARK  Name = 54693773
REMARK  7 active torsions:
REMARK  status: ('A' for Active; 'I' for Inactive)
REMARK    1  A    between atoms: N_2  and  C_10
REMARK    2  A    between atoms: C_3  and  C_21
REMARK    3  A    between atoms: C_9  and  O_16
REMARK    4  A    between atoms: C_13  and  O_18
REMARK    5  A    between atoms: CA_23  and  C_29
REMARK    6  A    between atoms: C_25  and  O_26
REMARK    7  A    between atoms: C_29  and  O_30
REMARK                            x       y       z     vdW  Elec       q    Type
REMARK                         _______ _______ _______ _____ _____    ______ ____
ROOT
ATOM      1  O   UNL     1     -41.996  28.893   4.813  0.00  0.00    -0.267 OA
ATOM      2  N   UNL     1     -44.095  28.441   3.920  0.00  0.00    -0.271 N 
ATOM      3  C   UNL     1     -42.731  28.248   4.068  0.00  0.00    +0.276 C 
ATOM      4  H   UNL     1     -44.584  27.861   3.292  0.00  0.00    +0.156 HD
ENDROOT
BRANCH   2  10
ATOM      5  O   UNL     1     -46.251  29.867   6.505  0.00  0.00    -0.420 OA
ATOM      6  O   UNL     1     -45.459  27.753   6.185  0.00  0.00    -0.243 OA
ATOM      7  C   UNL     1     -45.602  31.668   4.987  0.00  0.00    +0.070 A 
ATOM      8  C   UNL     1     -46.293  31.220   6.115  0.00  0.00    +0.155 A 
ATOM      9  C   UNL     1     -44.847  30.677   4.211  0.00  0.00    +0.156 A 
ATOM     10  C   UNL     1     -44.797  29.396   4.605  0.00  0.00    +0.162 A 
ATOM     11  C   UNL     1     -45.670  33.035   4.691  0.00  0.00    +0.009 C 
ATOM     12  C   UNL     1     -47.045  32.076   6.922  0.00  0.00    +0.075 C 
ATOM     13  C   UNL     1     -47.109  33.428   6.603  0.00  0.00    +0.142 C 
ATOM     14  C   UNL     1     -45.508  28.920   5.812  0.00  0.00    +0.362 A 
ATOM     15  C   UNL     1     -46.419  33.907   5.492  0.00  0.00    +0.037 C 
BRANCH   9  16
ATOM     16  O   UNL     1     -44.210  31.172   3.093  0.00  0.00    -0.504 OA
ATOM     17  H   UNL     1     -44.501  31.975   2.706  0.00  0.00    +0.292 HD
ENDBRANCH   9  16
BRANCH  13  18
ATOM     18  O   UNL     1     -47.835  34.280   7.376  0.00  0.00    -0.471 OA
ATOM     19  C   UNL     1     -48.200  35.532   6.796  0.00  0.00    +0.252 C 
ENDBRANCH  13  18
ENDBRANCH   2  10
BRANCH   3  21
ATOM     20  N   UNL     1     -40.903  26.757   3.609  0.00  0.00    -0.392 NA
ATOM     21  C   UNL     1     -42.149  27.147   3.258  0.00  0.00    +0.167 C 
ATOM     22  C   UNL     1     -42.874  26.585   2.219  0.00  0.00    +0.093 C 
ATOM     23  CA  UNL     1     -40.360  25.756   2.880  0.00  0.00    +0.239 C 
ATOM     24  C   UNL     1     -42.282  25.558   1.494  0.00  0.00    +0.021 C 
ATOM     25  C   UNL     1     -41.001  25.129   1.824  0.00  0.00    +0.166 C 
BRANCH  25  26
ATOM     26  O   UNL     1     -40.414  24.128   1.119  0.00  0.00    -0.503 OA
ATOM     27  H   UNL     1     -40.943  23.525   0.633  0.00  0.00    +0.292 HD
ENDBRANCH  25  26
BRANCH  23  29
ATOM     28  OXT UNL     1     -38.664  24.213   3.563  0.00  0.00    -0.242 OA
ATOM     29  C   UNL     1     -39.019  25.362   3.282  0.00  0.00    +0.371 C 
BRANCH  29  30
ATOM     30  O   UNL     1     -38.157  26.415   3.322  0.00  0.00    -0.475 OA
ATOM     31  H   UNL     1     -37.324  26.323   3.741  0.00  0.00    +0.295 HD
ENDBRANCH  29  30
ENDBRANCH  23  29
ENDBRANCH   3  21
TORSDOF 7
ENDMDL
MODEL 9
REMARK VINA RESULT:      -6.4      4.335      5.871
REMARK  Name = 54693773
REMARK  7 active torsions:
REMARK  status: ('A' for Active; 'I' for Inactive)
REMARK    1  A    between atoms: N_2  and  C_10
REMARK    2  A    between atoms: C_3  and  C_21
REMARK    3  A    between atoms: C_9  and  O_16
REMARK    4  A    between atoms: C_13  and  O_18
REMARK    5  A    between atoms: CA_23  and  C_29
REMARK    6  A    between atoms: C_25  and  O_26
REMARK    7  A    between atoms: C_29  and  O_30
REMARK                            x       y       z     vdW  Elec       q    Type
REMARK                         _______ _______ _______ _____ _____    ______ ____
ROOT
ATOM      1  O   UNL     1     -32.159  26.315   3.270  0.00  0.00    -0.267 OA
ATOM      2  N   UNL     1     -33.137  27.768   4.800  0.00  0.00    -0.271 N 
ATOM      3  C   UNL     1     -33.111  26.663   3.965  0.00  0.00    +0.276 C 
ATOM      4  H   UNL     1     -33.958  27.949   5.312  0.00  0.00    +0.156 HD
ENDROOT
BRANCH   2  10
ATOM      5  O   UNL     1     -30.985  30.655   4.167  0.00  0.00    -0.420 OA
ATOM      6  O   UNL     1     -32.960  30.001   3.235  0.00  0.00    -0.243 OA
ATOM      7  C   UNL     1     -29.991  29.358   5.983  0.00  0.00    +0.070 A 
ATOM      8  C   UNL     1     -29.967  30.456   5.122  0.00  0.00    +0.155 A 
ATOM      9  C   UNL     1     -31.102  28.407   5.849  0.00  0.00    +0.156 A 
ATOM     10  C   UNL     1     -32.076  28.620   4.952  0.00  0.00    +0.162 A 
ATOM     11  C   UNL     1     -28.958  29.256   6.925  0.00  0.00    +0.009 C 
ATOM     12  C   UNL     1     -28.956  31.418   5.160  0.00  0.00    +0.075 C 
ATOM     13  C   UNL     1     -27.934  31.291   6.094  0.00  0.00    +0.142 C 
ATOM     14  C   UNL     1     -32.068  29.794   4.051  0.00  0.00    +0.362 A 
ATOM     15  C   UNL     1     -27.937  30.213   6.978  0.00  0.00    +0.037 C 
BRANCH   9  16
ATOM     16  O   UNL     1     -31.056  27.330   6.707  0.00  0.00    -0.504 OA
ATOM     17  H   UNL     1     -30.641  27.414   7.543  0.00  0.00    +0.292 HD
ENDBRANCH   9  16
BRANCH  13  18
ATOM     18  O   UNL     1     -26.939  32.216   6.151  0.00  0.00    -0.471 OA
ATOM     19  C   UNL     1     -26.981  33.274   5.194  0.00  0.00    +0.252 C 
ENDBRANCH  13  18
ENDBRANCH   2  10
BRANCH   3  21
ATOM     20  N   UNL     1     -35.399  26.376   3.286  0.00  0.00    -0.392 NA
ATOM     21  C   UNL     1     -34.350  25.843   3.950  0.00  0.00    +0.167 C 
ATOM     22  C   UNL     1     -34.381  24.614   4.591  0.00  0.00    +0.093 C 
ATOM     23  CA  UNL     1     -36.533  25.641   3.266  0.00  0.00    +0.239 C 
ATOM     24  C   UNL     1     -35.565  23.887   4.547  0.00  0.00    +0.021 C 
ATOM     25  C   UNL     1     -36.666  24.403   3.874  0.00  0.00    +0.166 C 
BRANCH  25  26
ATOM     26  O   UNL     1     -37.828  23.701   3.828  0.00  0.00    -0.503 OA
ATOM     27  H   UNL     1     -37.995  23.032   4.464  0.00  0.00    +0.292 HD
ENDBRANCH  25  26
BRANCH  23  29
ATOM     28  OXT UNL     1     -37.635  26.555   1.349  0.00  0.00    -0.242 OA
ATOM     29  C   UNL     1     -37.643  26.244   2.544  0.00  0.00    +0.371 C 
BRANCH  29  30
ATOM     30  O   UNL     1     -38.732  26.443   3.336  0.00  0.00    -0.475 OA
ATOM     31  H   UNL     1     -38.999  25.777   3.939  0.00  0.00    +0.295 HD
ENDBRANCH  29  30
ENDBRANCH  23  29
ENDBRANCH   3  21
TORSDOF 7
ENDMDL
