MODEL 1
REMARK VINA RESULT:      -5.6      0.000      0.000
REMARK  Name = 56051
REMARK  3 active torsions:
REMARK  status: ('A' for Active; 'I' for Inactive)
REMARK    1  A    between atoms: C_3  and  C_8
REMARK    2  A    between atoms: C_5  and  N_14
REMARK    3  A    between atoms: N_14  and  C_17
REMARK                            x       y       z     vdW  Elec       q    Type
REMARK                         _______ _______ _______ _____ _____    ______ ____
ROOT
ATOM      1  S   UNL     1     -36.284  25.202   3.612  0.00  0.00    -0.055 S 
ATOM      2  N   UNL     1     -34.764  24.909   5.682  0.00  0.00    -0.379 NA
ATOM      3  C   UNL     1     -34.439  26.124   5.101  0.00  0.00    +0.137 C 
ATOM      4  C   UNL     1     -35.162  26.450   3.967  0.00  0.00    +0.126 C 
ATOM      5  C   UNL     1     -35.721  24.339   4.984  0.00  0.00    +0.244 C 
ENDROOT
BRANCH   3   8
ATOM      6  N   UNL     1     -32.782  28.038   5.026  0.00  0.00    -0.316 N 
ATOM      7  N   UNL     1     -31.889  27.943   7.057  0.00  0.00    -0.317 N 
ATOM      8  C   UNL     1     -33.400  26.995   5.658  0.00  0.00    +0.087 C 
ATOM      9  C   UNL     1     -31.884  28.575   5.905  0.00  0.00    +0.144 C 
ATOM     10  C   UNL     1     -32.833  26.956   6.909  0.00  0.00    +0.076 C 
ATOM     11  C   UNL     1     -31.042  29.728   5.534  0.00  0.00    +0.044 C 
ATOM     12  H   UNL     1     -32.953  28.345   4.107  0.00  0.00    +0.148 HD
ATOM     13  H   UNL     1     -31.339  28.133   7.851  0.00  0.00    +0.148 HD
ENDBRANCH   3   8
BRANCH   5  14
ATOM     14  N   UNL     1     -36.293  23.138   5.254  0.00  0.00    -0.178 NA
BRANCH  14  17
ATOM     15  N   UNL     1     -34.682  21.577   6.156  0.00  0.00    -0.370 N 
ATOM     16  N   UNL     1     -35.521  21.292   4.054  0.00  0.00    -0.370 N 
ATOM     17  C   UNL     1     -35.532  22.072   5.188  0.00  0.00    +0.196 C 
ATOM     18  H   UNL     1     -34.595  22.042   7.019  0.00  0.00    +0.159 HD
ATOM     19  H   UNL     1     -34.161  20.760   5.983  0.00  0.00    +0.159 HD
ATOM     20  H   UNL     1     -36.085  21.535   3.285  0.00  0.00    +0.159 HD
ATOM     21  H   UNL     1     -34.948  20.493   4.011  0.00  0.00    +0.159 HD
ENDBRANCH  14  17
ENDBRANCH   5  14
TORSDOF 3
ENDMDL
MODEL 2
REMARK VINA RESULT:      -5.4      1.854      5.904
REMARK  Name = 56051
REMARK  3 active torsions:
REMARK  status: ('A' for Active; 'I' for Inactive)
REMARK    1  A    between atoms: C_3  and  C_8
REMARK    2  A    between atoms: C_5  and  N_14
REMARK    3  A    between atoms: N_14  and  C_17
REMARK                            x       y       z     vdW  Elec       q    Type
REMARK                         _______ _______ _______ _____ _____    ______ ____
ROOT
ATOM      1  S   UNL     1     -33.489  28.546   3.245  0.00  0.00    -0.055 S 
ATOM      2  N   UNL     1     -33.016  26.691   4.982  0.00  0.00    -0.379 NA
ATOM      3  C   UNL     1     -34.192  26.357   4.332  0.00  0.00    +0.137 C 
ATOM      4  C   UNL     1     -34.603  27.247   3.356  0.00  0.00    +0.126 C 
ATOM      5  C   UNL     1     -32.559  27.822   4.492  0.00  0.00    +0.244 C 
ENDROOT
BRANCH   3   8
ATOM      6  N   UNL     1     -34.475  24.053   5.346  0.00  0.00    -0.316 N 
ATOM      7  N   UNL     1     -36.588  23.593   4.844  0.00  0.00    -0.317 N 
ATOM      8  C   UNL     1     -34.941  25.140   4.662  0.00  0.00    +0.087 C 
ATOM      9  C   UNL     1     -35.498  23.151   5.430  0.00  0.00    +0.144 C 
ATOM     10  C   UNL     1     -36.247  24.833   4.363  0.00  0.00    +0.076 C 
ATOM     11  C   UNL     1     -35.326  21.856   6.114  0.00  0.00    +0.044 C 
ATOM     12  H   UNL     1     -33.567  23.941   5.712  0.00  0.00    +0.148 HD
ATOM     13  H   UNL     1     -37.456  23.137   4.767  0.00  0.00    +0.148 HD
ENDBRANCH   3   8
BRANCH   5  14
ATOM     14  N   UNL     1     -31.427  28.458   4.886  0.00  0.00    -0.178 NA
BRANCH  14  17
ATOM     15  N   UNL     1     -29.883  28.229   6.733  0.00  0.00    -0.370 N 
ATOM     16  N   UNL     1     -32.100  28.609   7.115  0.00  0.00    -0.370 N 
ATOM     17  C   UNL     1     -31.123  28.427   6.163  0.00  0.00    +0.196 C 
ATOM     18  H   UNL     1     -29.095  28.086   6.161  0.00  0.00    +0.159 HD
ATOM     19  H   UNL     1     -29.787  28.230   7.713  0.00  0.00    +0.159 HD
ATOM     20  H   UNL     1     -33.033  28.761   6.840  0.00  0.00    +0.159 HD
ATOM     21  H   UNL     1     -31.866  28.586   8.071  0.00  0.00    +0.159 HD
ENDBRANCH  14  17
ENDBRANCH   5  14
TORSDOF 3
ENDMDL
MODEL 3
REMARK VINA RESULT:      -5.2      4.385      5.941
REMARK  Name = 56051
REMARK  3 active torsions:
REMARK  status: ('A' for Active; 'I' for Inactive)
REMARK    1  A    between atoms: C_3  and  C_8
REMARK    2  A    between atoms: C_5  and  N_14
REMARK    3  A    between atoms: N_14  and  C_17
REMARK                            x       y       z     vdW  Elec       q    Type
REMARK                         _______ _______ _______ _____ _____    ______ ____
ROOT
ATOM      1  S   UNL     1     -35.070  23.284   5.085  0.00  0.00    -0.055 S 
ATOM      2  N   UNL     1     -36.854  22.777   3.285  0.00  0.00    -0.379 NA
ATOM      3  C   UNL     1     -37.094  24.058   3.753  0.00  0.00    +0.137 C 
ATOM      4  C   UNL     1     -36.225  24.503   4.734  0.00  0.00    +0.126 C 
ATOM      5  C   UNL     1     -35.814  22.275   3.914  0.00  0.00    +0.244 C 
ENDROOT
BRANCH   3   8
ATOM      6  N   UNL     1     -39.382  25.139   3.863  0.00  0.00    -0.316 N 
ATOM      7  N   UNL     1     -39.471  26.208   1.919  0.00  0.00    -0.317 N 
ATOM      8  C   UNL     1     -38.195  24.877   3.238  0.00  0.00    +0.087 C 
ATOM      9  C   UNL     1     -40.114  25.941   3.033  0.00  0.00    +0.144 C 
ATOM     10  C   UNL     1     -38.274  25.547   2.040  0.00  0.00    +0.076 C 
ATOM     11  C   UNL     1     -41.460  26.411   3.411  0.00  0.00    +0.044 C 
ATOM     12  H   UNL     1     -39.658  24.810   4.749  0.00  0.00    +0.148 HD
ATOM     13  H   UNL     1     -39.779  26.759   1.164  0.00  0.00    +0.148 HD
ENDBRANCH   3   8
BRANCH   5  14
ATOM     14  N   UNL     1     -35.287  21.041   3.716  0.00  0.00    -0.178 NA
BRANCH  14  17
ATOM     15  N   UNL     1     -36.815  19.862   2.259  0.00  0.00    -0.370 N 
ATOM     16  N   UNL     1     -34.662  20.248   1.613  0.00  0.00    -0.370 N 
ATOM     17  C   UNL     1     -35.600  20.415   2.606  0.00  0.00    +0.196 C 
ATOM     18  H   UNL     1     -37.574  19.911   2.883  0.00  0.00    +0.159 HD
ATOM     19  H   UNL     1     -36.922  19.416   1.387  0.00  0.00    +0.159 HD
ATOM     20  H   UNL     1     -33.749  20.598   1.734  0.00  0.00    +0.159 HD
ATOM     21  H   UNL     1     -34.902  19.779   0.782  0.00  0.00    +0.159 HD
ENDBRANCH  14  17
ENDBRANCH   5  14
TORSDOF 3
ENDMDL
MODEL 4
REMARK VINA RESULT:      -5.2      2.652      5.993
REMARK  Name = 56051
REMARK  3 active torsions:
REMARK  status: ('A' for Active; 'I' for Inactive)
REMARK    1  A    between atoms: C_3  and  C_8
REMARK    2  A    between atoms: C_5  and  N_14
REMARK    3  A    between atoms: N_14  and  C_17
REMARK                            x       y       z     vdW  Elec       q    Type
REMARK                         _______ _______ _______ _____ _____    ______ ____
ROOT
ATOM      1  S   UNL     1     -33.079  28.723   3.114  0.00  0.00    -0.055 S 
ATOM      2  N   UNL     1     -33.966  26.900   4.717  0.00  0.00    -0.379 NA
ATOM      3  C   UNL     1     -34.925  27.088   3.736  0.00  0.00    +0.137 C 
ATOM      4  C   UNL     1     -34.616  28.039   2.780  0.00  0.00    +0.126 C 
ATOM      5  C   UNL     1     -32.953  27.706   4.490  0.00  0.00    +0.244 C 
ENDROOT
BRANCH   3   8
ATOM      6  N   UNL     1     -37.228  26.494   2.863  0.00  0.00    -0.316 N 
ATOM      7  N   UNL     1     -37.813  24.837   4.220  0.00  0.00    -0.317 N 
ATOM      8  C   UNL     1     -36.178  26.326   3.721  0.00  0.00    +0.087 C 
ATOM      9  C   UNL     1     -38.185  25.579   3.201  0.00  0.00    +0.144 C 
ATOM     10  C   UNL     1     -36.562  25.298   4.549  0.00  0.00    +0.076 C 
ATOM     11  C   UNL     1     -39.459  25.493   2.465  0.00  0.00    +0.044 C 
ATOM     12  H   UNL     1     -37.284  27.155   2.135  0.00  0.00    +0.148 HD
ATOM     13  H   UNL     1     -38.318  24.111   4.651  0.00  0.00    +0.148 HD
ENDBRANCH   3   8
BRANCH   5  14
ATOM     14  N   UNL     1     -31.829  27.800   5.244  0.00  0.00    -0.178 NA
BRANCH  14  17
ATOM     15  N   UNL     1     -31.598  29.236   7.177  0.00  0.00    -0.370 N 
ATOM     16  N   UNL     1     -32.557  27.175   7.371  0.00  0.00    -0.370 N 
ATOM     17  C   UNL     1     -31.971  28.083   6.518  0.00  0.00    +0.196 C 
ATOM     18  H   UNL     1     -31.166  29.968   6.680  0.00  0.00    +0.159 HD
ATOM     19  H   UNL     1     -31.762  29.326   8.143  0.00  0.00    +0.159 HD
ATOM     20  H   UNL     1     -32.870  26.308   7.027  0.00  0.00    +0.159 HD
ATOM     21  H   UNL     1     -32.662  27.393   8.326  0.00  0.00    +0.159 HD
ENDBRANCH  14  17
ENDBRANCH   5  14
TORSDOF 3
ENDMDL
MODEL 5
REMARK VINA RESULT:      -5.1      3.690      6.036
REMARK  Name = 56051
REMARK  3 active torsions:
REMARK  status: ('A' for Active; 'I' for Inactive)
REMARK    1  A    between atoms: C_3  and  C_8
REMARK    2  A    between atoms: C_5  and  N_14
REMARK    3  A    between atoms: N_14  and  C_17
REMARK                            x       y       z     vdW  Elec       q    Type
REMARK                         _______ _______ _______ _____ _____    ______ ____
ROOT
ATOM      1  S   UNL     1     -35.045  25.639   4.326  0.00  0.00    -0.055 S 
ATOM      2  N   UNL     1     -37.345  24.462   4.340  0.00  0.00    -0.379 NA
ATOM      3  C   UNL     1     -37.456  25.572   3.519  0.00  0.00    +0.137 C 
ATOM      4  C   UNL     1     -36.306  26.331   3.392  0.00  0.00    +0.126 C 
ATOM      5  C   UNL     1     -36.122  24.398   4.818  0.00  0.00    +0.244 C 
ENDROOT
BRANCH   3   8
ATOM      6  N   UNL     1     -39.961  25.917   3.383  0.00  0.00    -0.316 N 
ATOM      7  N   UNL     1     -40.221  26.518   1.261  0.00  0.00    -0.317 N 
ATOM      8  C   UNL     1     -38.709  25.909   2.837  0.00  0.00    +0.087 C 
ATOM      9  C   UNL     1     -40.835  26.288   2.400  0.00  0.00    +0.144 C 
ATOM     10  C   UNL     1     -38.895  26.283   1.527  0.00  0.00    +0.076 C 
ATOM     11  C   UNL     1     -42.283  26.396   2.660  0.00  0.00    +0.044 C 
ATOM     12  H   UNL     1     -40.191  25.696   4.314  0.00  0.00    +0.148 HD
ATOM     13  H   UNL     1     -40.622  26.797   0.407  0.00  0.00    +0.148 HD
ENDBRANCH   3   8
BRANCH   5  14
ATOM     14  N   UNL     1     -35.647  23.445   5.659  0.00  0.00    -0.178 NA
BRANCH  14  17
ATOM     15  N   UNL     1     -35.826  21.761   3.932  0.00  0.00    -0.370 N 
ATOM     16  N   UNL     1     -35.319  21.173   6.077  0.00  0.00    -0.370 N 
ATOM     17  C   UNL     1     -35.608  22.209   5.219  0.00  0.00    +0.196 C 
ATOM     18  H   UNL     1     -36.043  22.403   3.218  0.00  0.00    +0.159 HD
ATOM     19  H   UNL     1     -35.766  20.800   3.729  0.00  0.00    +0.159 HD
ATOM     20  H   UNL     1     -35.142  21.357   7.028  0.00  0.00    +0.159 HD
ATOM     21  H   UNL     1     -35.290  20.248   5.741  0.00  0.00    +0.159 HD
ENDBRANCH  14  17
ENDBRANCH   5  14
TORSDOF 3
ENDMDL
MODEL 6
REMARK VINA RESULT:      -5.1      1.437      1.761
REMARK  Name = 56051
REMARK  3 active torsions:
REMARK  status: ('A' for Active; 'I' for Inactive)
REMARK    1  A    between atoms: C_3  and  C_8
REMARK    2  A    between atoms: C_5  and  N_14
REMARK    3  A    between atoms: N_14  and  C_17
REMARK                            x       y       z     vdW  Elec       q    Type
REMARK                         _______ _______ _______ _____ _____    ______ ____
ROOT
ATOM      1  S   UNL     1     -34.895  25.472   1.914  0.00  0.00    -0.055 S 
ATOM      2  N   UNL     1     -34.223  24.816   4.323  0.00  0.00    -0.379 NA
ATOM      3  C   UNL     1     -33.878  26.146   4.147  0.00  0.00    +0.137 C 
ATOM      4  C   UNL     1     -34.169  26.673   2.901  0.00  0.00    +0.126 C 
ATOM      5  C   UNL     1     -34.765  24.360   3.215  0.00  0.00    +0.244 C 
ENDROOT
BRANCH   3   8
ATOM      6  N   UNL     1     -32.554  28.098   5.069  0.00  0.00    -0.316 N 
ATOM      7  N   UNL     1     -32.535  27.645   7.243  0.00  0.00    -0.317 N 
ATOM      8  C   UNL     1     -33.250  26.931   5.214  0.00  0.00    +0.087 C 
ATOM      9  C   UNL     1     -32.144  28.488   6.314  0.00  0.00    +0.144 C 
ATOM     10  C   UNL     1     -33.225  26.672   6.563  0.00  0.00    +0.076 C 
ATOM     11  C   UNL     1     -31.360  29.721   6.512  0.00  0.00    +0.044 C 
ATOM     12  H   UNL     1     -32.379  28.571   4.224  0.00  0.00    +0.148 HD
ATOM     13  H   UNL     1     -32.370  27.698   8.211  0.00  0.00    +0.148 HD
ENDBRANCH   3   8
BRANCH   5  14
ATOM     14  N   UNL     1     -35.224  23.099   3.016  0.00  0.00    -0.178 NA
BRANCH  14  17
ATOM     15  N   UNL     1     -37.557  22.515   3.265  0.00  0.00    -0.370 N 
ATOM     16  N   UNL     1     -36.149  22.452   5.058  0.00  0.00    -0.370 N 
ATOM     17  C   UNL     1     -36.268  22.714   3.712  0.00  0.00    +0.196 C 
ATOM     18  H   UNL     1     -37.779  22.668   2.318  0.00  0.00    +0.159 HD
ATOM     19  H   UNL     1     -38.257  22.222   3.893  0.00  0.00    +0.159 HD
ATOM     20  H   UNL     1     -35.278  22.556   5.505  0.00  0.00    +0.159 HD
ATOM     21  H   UNL     1     -36.936  22.163   5.575  0.00  0.00    +0.159 HD
ENDBRANCH  14  17
ENDBRANCH   5  14
TORSDOF 3
ENDMDL
MODEL 7
REMARK VINA RESULT:      -5.0      4.067      7.179
REMARK  Name = 56051
REMARK  3 active torsions:
REMARK  status: ('A' for Active; 'I' for Inactive)
REMARK    1  A    between atoms: C_3  and  C_8
REMARK    2  A    between atoms: C_5  and  N_14
REMARK    3  A    between atoms: N_14  and  C_17
REMARK                            x       y       z     vdW  Elec       q    Type
REMARK                         _______ _______ _______ _____ _____    ______ ____
ROOT
ATOM      1  S   UNL     1     -35.503  22.493   3.680  0.00  0.00    -0.055 S 
ATOM      2  N   UNL     1     -37.413  24.200   4.027  0.00  0.00    -0.379 NA
ATOM      3  C   UNL     1     -37.779  23.381   2.972  0.00  0.00    +0.137 C 
ATOM      4  C   UNL     1     -36.866  22.396   2.642  0.00  0.00    +0.126 C 
ATOM      5  C   UNL     1     -36.235  23.825   4.475  0.00  0.00    +0.244 C 
ENDROOT
BRANCH   3   8
ATOM      6  N   UNL     1     -39.821  24.682   2.227  0.00  0.00    -0.316 N 
ATOM      7  N   UNL     1     -40.889  23.179   0.991  0.00  0.00    -0.317 N 
ATOM      8  C   UNL     1     -39.050  23.554   2.262  0.00  0.00    +0.087 C 
ATOM      9  C   UNL     1     -40.914  24.409   1.453  0.00  0.00    +0.144 C 
ATOM     10  C   UNL     1     -39.730  22.641   1.491  0.00  0.00    +0.076 C 
ATOM     11  C   UNL     1     -41.956  25.424   1.210  0.00  0.00    +0.044 C 
ATOM     12  H   UNL     1     -39.625  25.535   2.678  0.00  0.00    +0.148 HD
ATOM     13  H   UNL     1     -41.554  22.741   0.413  0.00  0.00    +0.148 HD
ENDBRANCH   3   8
BRANCH   5  14
ATOM     14  N   UNL     1     -35.559  24.397   5.503  0.00  0.00    -0.178 NA
BRANCH  14  17
ATOM     15  N   UNL     1     -36.494  26.621   5.330  0.00  0.00    -0.370 N 
ATOM     16  N   UNL     1     -34.275  26.328   5.772  0.00  0.00    -0.370 N 
ATOM     17  C   UNL     1     -35.479  25.707   5.526  0.00  0.00    +0.196 C 
ATOM     18  H   UNL     1     -37.408  26.308   5.144  0.00  0.00    +0.159 HD
ATOM     19  H   UNL     1     -36.303  27.586   5.374  0.00  0.00    +0.159 HD
ATOM     20  H   UNL     1     -33.467  25.788   5.929  0.00  0.00    +0.159 HD
ATOM     21  H   UNL     1     -34.222  27.310   5.788  0.00  0.00    +0.159 HD
ENDBRANCH  14  17
ENDBRANCH   5  14
TORSDOF 3
ENDMDL
MODEL 8
REMARK VINA RESULT:      -5.0      2.094      5.963
REMARK  Name = 56051
REMARK  3 active torsions:
REMARK  status: ('A' for Active; 'I' for Inactive)
REMARK    1  A    between atoms: C_3  and  C_8
REMARK    2  A    between atoms: C_5  and  N_14
REMARK    3  A    between atoms: N_14  and  C_17
REMARK                            x       y       z     vdW  Elec       q    Type
REMARK                         _______ _______ _______ _____ _____    ______ ____
ROOT
ATOM      1  S   UNL     1     -35.552  28.216   1.963  0.00  0.00    -0.055 S 
ATOM      2  N   UNL     1     -34.521  27.031   4.016  0.00  0.00    -0.379 NA
ATOM      3  C   UNL     1     -35.454  26.167   3.467  0.00  0.00    +0.137 C 
ATOM      4  C   UNL     1     -36.112  26.640   2.346  0.00  0.00    +0.126 C 
ATOM      5  C   UNL     1     -34.489  28.138   3.307  0.00  0.00    +0.244 C 
ENDROOT
BRANCH   3   8
ATOM      6  N   UNL     1     -35.089  24.280   5.117  0.00  0.00    -0.316 N 
ATOM      7  N   UNL     1     -36.578  22.783   4.429  0.00  0.00    -0.317 N 
ATOM      8  C   UNL     1     -35.716  24.844   4.042  0.00  0.00    +0.087 C 
ATOM      9  C   UNL     1     -35.639  23.044   5.311  0.00  0.00    +0.144 C 
ATOM     10  C   UNL     1     -36.630  23.901   3.635  0.00  0.00    +0.076 C 
ATOM     11  C   UNL     1     -35.183  22.163   6.402  0.00  0.00    +0.044 C 
ATOM     12  H   UNL     1     -34.372  24.689   5.653  0.00  0.00    +0.148 HD
ATOM     13  H   UNL     1     -37.122  21.967   4.354  0.00  0.00    +0.148 HD
ENDBRANCH   3   8
BRANCH   5  14
ATOM     14  N   UNL     1     -33.694  29.211   3.547  0.00  0.00    -0.178 NA
BRANCH  14  17
ATOM     15  N   UNL     1     -31.410  28.424   3.658  0.00  0.00    -0.370 N 
ATOM     16  N   UNL     1     -32.399  29.372   5.482  0.00  0.00    -0.370 N 
ATOM     17  C   UNL     1     -32.556  29.001   4.166  0.00  0.00    +0.196 C 
ATOM     18  H   UNL     1     -31.389  28.112   2.725  0.00  0.00    +0.159 HD
ATOM     19  H   UNL     1     -30.615  28.323   4.230  0.00  0.00    +0.159 HD
ATOM     20  H   UNL     1     -33.145  29.797   5.965  0.00  0.00    +0.159 HD
ATOM     21  H   UNL     1     -31.543  29.213   5.940  0.00  0.00    +0.159 HD
ENDBRANCH  14  17
ENDBRANCH   5  14
TORSDOF 3
ENDMDL
MODEL 9
REMARK VINA RESULT:      -5.0      4.518      8.209
REMARK  Name = 56051
REMARK  3 active torsions:
REMARK  status: ('A' for Active; 'I' for Inactive)
REMARK    1  A    between atoms: C_3  and  C_8
REMARK    2  A    between atoms: C_5  and  N_14
REMARK    3  A    between atoms: N_14  and  C_17
REMARK                            x       y       z     vdW  Elec       q    Type
REMARK                         _______ _______ _______ _____ _____    ______ ____
ROOT
ATOM      1  S   UNL     1     -35.231  22.760   1.649  0.00  0.00    -0.055 S 
ATOM      2  N   UNL     1     -35.179  20.473   2.851  0.00  0.00    -0.379 NA
ATOM      3  C   UNL     1     -34.552  20.309   1.627  0.00  0.00    +0.137 C 
ATOM      4  C   UNL     1     -34.486  21.444   0.839  0.00  0.00    +0.126 C 
ATOM      5  C   UNL     1     -35.576  21.720   2.969  0.00  0.00    +0.244 C 
ENDROOT
BRANCH   3   8
ATOM      6  N   UNL     1     -34.649  18.036   0.512  0.00  0.00    -0.316 N 
ATOM      7  N   UNL     1     -32.596  17.270   0.868  0.00  0.00    -0.317 N 
ATOM      8  C   UNL     1     -33.999  19.017   1.207  0.00  0.00    +0.087 C 
ATOM      9  C   UNL     1     -33.767  17.008   0.333  0.00  0.00    +0.144 C 
ATOM     10  C   UNL     1     -32.735  18.521   1.415  0.00  0.00    +0.076 C 
ATOM     11  C   UNL     1     -34.155  15.781  -0.387  0.00  0.00    +0.044 C 
ATOM     12  H   UNL     1     -35.582  18.066   0.198  0.00  0.00    +0.148 HD
ATOM     13  H   UNL     1     -31.797  16.696   0.876  0.00  0.00    +0.148 HD
ENDBRANCH   3   8
BRANCH   5  14
ATOM     14  N   UNL     1     -36.228  22.249   4.035  0.00  0.00    -0.178 NA
BRANCH  14  17
ATOM     15  N   UNL     1     -35.262  21.206   5.992  0.00  0.00    -0.370 N 
ATOM     16  N   UNL     1     -35.177  23.470   5.723  0.00  0.00    -0.370 N 
ATOM     17  C   UNL     1     -35.596  22.274   5.185  0.00  0.00    +0.196 C 
ATOM     18  H   UNL     1     -35.504  20.291   5.722  0.00  0.00    +0.159 HD
ATOM     19  H   UNL     1     -34.782  21.359   6.838  0.00  0.00    +0.159 HD
ATOM     20  H   UNL     1     -35.353  24.312   5.246  0.00  0.00    +0.159 HD
ATOM     21  H   UNL     1     -34.702  23.482   6.586  0.00  0.00    +0.159 HD
ENDBRANCH  14  17
ENDBRANCH   5  14
TORSDOF 3
ENDMDL
