MODEL 1
REMARK VINA RESULT:      -6.0      0.000      0.000
REMARK  Name = 60170335
REMARK  6 active torsions:
REMARK  status: ('A' for Active; 'I' for Inactive)
REMARK    1  A    between atoms: C_3  and  C_14
REMARK    2  A    between atoms: C_3  and  C_19
REMARK    3  A    between atoms: C_9  and  O_22
REMARK    4  A    between atoms: C_10  and  C_24
REMARK    5  A    between atoms: C_19  and  O_20
REMARK    6  A    between atoms: C_24  and  O_25
REMARK                            x       y       z     vdW  Elec       q    Type
REMARK                         _______ _______ _______ _____ _____    ______ ____
ROOT
ATOM      1  O   UNL     1     -32.718  25.811   3.609  0.00  0.00    -0.468 OA
ATOM      2  O   UNL     1     -36.026  27.891   2.346  0.00  0.00    -0.291 OA
ATOM      3  C   UNL     1     -32.581  27.168   3.192  0.00  0.00    +0.264 C 
ATOM      4  C   UNL     1     -33.654  27.590   2.188  0.00  0.00    +0.124 C 
ATOM      5  C   UNL     1     -35.033  27.268   2.703  0.00  0.00    +0.183 C 
ATOM      6  C   UNL     1     -33.978  25.440   3.994  0.00  0.00    +0.145 C 
ATOM      7  C   UNL     1     -35.138  26.115   3.614  0.00  0.00    +0.102 C 
ATOM      8  C   UNL     1     -34.072  24.303   4.801  0.00  0.00    +0.035 C 
ATOM      9  C   UNL     1     -36.388  25.678   4.060  0.00  0.00    +0.139 C 
ATOM     10  C   UNL     1     -35.318  23.864   5.245  0.00  0.00    +0.013 C 
ATOM     11  C   UNL     1     -36.474  24.553   4.880  0.00  0.00    +0.035 C 
ENDROOT
BRANCH   3  14
ATOM     12  O   UNL     1     -30.933  26.120   1.771  0.00  0.00    -0.448 OA
ATOM     13  O   UNL     1     -29.735  25.686  -0.138  0.00  0.00    -0.250 OA
ATOM     14  C   UNL     1     -31.211  27.290   2.553  0.00  0.00    +0.216 C 
ATOM     15  C   UNL     1     -31.110  28.433   1.568  0.00  0.00    +0.060 C 
ATOM     16  C   UNL     1     -30.012  27.963   0.645  0.00  0.00    +0.113 C 
ATOM     17  C   UNL     1     -30.196  26.474   0.674  0.00  0.00    +0.317 C 
ENDBRANCH   3  14
BRANCH   3  19
ATOM     18  O   UNL     1     -33.133  29.153   4.458  0.00  0.00    -0.246 OA
ATOM     19  C   UNL     1     -32.570  28.068   4.405  0.00  0.00    +0.358 C 
BRANCH  19  20
ATOM     20  O   UNL     1     -31.846  27.482   5.401  0.00  0.00    -0.442 OA
ATOM     21  C   UNL     1     -32.462  27.487   6.693  0.00  0.00    +0.256 C 
ENDBRANCH  19  20
ENDBRANCH   3  19
BRANCH   9  22
ATOM     22  O   UNL     1     -37.549  26.312   3.734  0.00  0.00    -0.505 OA
ATOM     23  H   UNL     1     -38.292  26.251   4.302  0.00  0.00    +0.292 HD
ENDBRANCH   9  22
BRANCH  10  24
ATOM     24  C   UNL     1     -35.415  22.655   6.115  0.00  0.00    +0.164 C 
BRANCH  24  25
ATOM     25  O   UNL     1     -35.609  21.503   5.302  0.00  0.00    -0.377 OA
ATOM     26  H   UNL     1     -36.535  21.221   5.358  0.00  0.00    +0.211 HD
ENDBRANCH  24  25
ENDBRANCH  10  24
TORSDOF 6
ENDMDL
MODEL 2
REMARK VINA RESULT:      -6.0      4.215      6.834
REMARK  Name = 60170335
REMARK  6 active torsions:
REMARK  status: ('A' for Active; 'I' for Inactive)
REMARK    1  A    between atoms: C_3  and  C_14
REMARK    2  A    between atoms: C_3  and  C_19
REMARK    3  A    between atoms: C_9  and  O_22
REMARK    4  A    between atoms: C_10  and  C_24
REMARK    5  A    between atoms: C_19  and  O_20
REMARK    6  A    between atoms: C_24  and  O_25
REMARK                            x       y       z     vdW  Elec       q    Type
REMARK                         _______ _______ _______ _____ _____    ______ ____
ROOT
ATOM      1  O   UNL     1     -37.459  22.570   1.945  0.00  0.00    -0.468 OA
ATOM      2  O   UNL     1     -38.196  26.525   2.772  0.00  0.00    -0.291 OA
ATOM      3  C   UNL     1     -37.804  23.461   0.885  0.00  0.00    +0.264 C 
ATOM      4  C   UNL     1     -38.648  24.644   1.358  0.00  0.00    +0.124 C 
ATOM      5  C   UNL     1     -37.996  25.342   2.524  0.00  0.00    +0.183 C 
ATOM      6  C   UNL     1     -36.953  23.165   3.069  0.00  0.00    +0.145 C 
ATOM      7  C   UNL     1     -37.153  24.506   3.396  0.00  0.00    +0.102 C 
ATOM      8  C   UNL     1     -36.213  22.347   3.926  0.00  0.00    +0.035 C 
ATOM      9  C   UNL     1     -36.592  25.041   4.560  0.00  0.00    +0.139 C 
ATOM     10  C   UNL     1     -35.655  22.877   5.089  0.00  0.00    +0.013 C 
ATOM     11  C   UNL     1     -35.840  24.223   5.403  0.00  0.00    +0.035 C 
ENDROOT
BRANCH   3  14
ATOM     12  O   UNL     1     -39.363  21.646   0.550  0.00  0.00    -0.448 OA
ATOM     13  O   UNL     1     -41.376  20.613   0.168  0.00  0.00    -0.250 OA
ATOM     14  C   UNL     1     -38.590  22.648  -0.126  0.00  0.00    +0.216 C 
ATOM     15  C   UNL     1     -39.612  23.464  -0.885  0.00  0.00    +0.060 C 
ATOM     16  C   UNL     1     -40.634  22.421  -1.267  0.00  0.00    +0.113 C 
ATOM     17  C   UNL     1     -40.543  21.459  -0.118  0.00  0.00    +0.317 C 
ENDBRANCH   3  14
BRANCH   3  19
ATOM     18  O   UNL     1     -36.329  25.076  -0.145  0.00  0.00    -0.246 OA
ATOM     19  C   UNL     1     -36.547  23.918   0.184  0.00  0.00    +0.358 C 
BRANCH  19  20
ATOM     20  O   UNL     1     -35.721  22.851  -0.013  0.00  0.00    -0.442 OA
ATOM     21  C   UNL     1     -34.355  23.054   0.361  0.00  0.00    +0.256 C 
ENDBRANCH  19  20
ENDBRANCH   3  19
BRANCH   9  22
ATOM     22  O   UNL     1     -36.740  26.348   4.915  0.00  0.00    -0.505 OA
ATOM     23  H   UNL     1     -36.140  26.741   5.518  0.00  0.00    +0.292 HD
ENDBRANCH   9  22
BRANCH  10  24
ATOM     24  C   UNL     1     -34.857  22.003   5.998  0.00  0.00    +0.164 C 
BRANCH  24  25
ATOM     25  O   UNL     1     -35.227  20.645   5.792  0.00  0.00    -0.377 OA
ATOM     26  H   UNL     1     -35.606  20.545   4.905  0.00  0.00    +0.211 HD
ENDBRANCH  24  25
ENDBRANCH  10  24
TORSDOF 6
ENDMDL
MODEL 3
REMARK VINA RESULT:      -5.8      4.051      5.951
REMARK  Name = 60170335
REMARK  6 active torsions:
REMARK  status: ('A' for Active; 'I' for Inactive)
REMARK    1  A    between atoms: C_3  and  C_14
REMARK    2  A    between atoms: C_3  and  C_19
REMARK    3  A    between atoms: C_9  and  O_22
REMARK    4  A    between atoms: C_10  and  C_24
REMARK    5  A    between atoms: C_19  and  O_20
REMARK    6  A    between atoms: C_24  and  O_25
REMARK                            x       y       z     vdW  Elec       q    Type
REMARK                         _______ _______ _______ _____ _____    ______ ____
ROOT
ATOM      1  O   UNL     1     -34.780  22.576   2.488  0.00  0.00    -0.468 OA
ATOM      2  O   UNL     1     -38.847  23.148   2.502  0.00  0.00    -0.291 OA
ATOM      3  C   UNL     1     -35.555  22.159   1.366  0.00  0.00    +0.264 C 
ATOM      4  C   UNL     1     -37.000  21.826   1.735  0.00  0.00    +0.124 C 
ATOM      5  C   UNL     1     -37.636  22.957   2.502  0.00  0.00    +0.183 C 
ATOM      6  C   UNL     1     -35.358  23.534   3.277  0.00  0.00    +0.145 C 
ATOM      7  C   UNL     1     -36.729  23.788   3.312  0.00  0.00    +0.102 C 
ATOM      8  C   UNL     1     -34.496  24.270   4.094  0.00  0.00    +0.035 C 
ATOM      9  C   UNL     1     -37.240  24.793   4.138  0.00  0.00    +0.139 C 
ATOM     10  C   UNL     1     -35.003  25.271   4.921  0.00  0.00    +0.013 C 
ATOM     11  C   UNL     1     -36.373  25.536   4.939  0.00  0.00    +0.035 C 
ENDROOT
BRANCH   3  14
ATOM     12  O   UNL     1     -33.570  21.263   0.321  0.00  0.00    -0.448 OA
ATOM     13  O   UNL     1     -31.560  20.167   0.158  0.00  0.00    -0.250 OA
ATOM     14  C   UNL     1     -34.877  20.924   0.805  0.00  0.00    +0.216 C 
ATOM     15  C   UNL     1     -34.626  19.855   1.846  0.00  0.00    +0.060 C 
ATOM     16  C   UNL     1     -33.442  19.118   1.268  0.00  0.00    +0.113 C 
ATOM     17  C   UNL     1     -32.721  20.211   0.536  0.00  0.00    +0.317 C 
ENDBRANCH   3  14
BRANCH   3  19
ATOM     18  O   UNL     1     -34.768  24.203   0.343  0.00  0.00    -0.246 OA
ATOM     19  C   UNL     1     -35.485  23.214   0.287  0.00  0.00    +0.358 C 
BRANCH  19  20
ATOM     20  O   UNL     1     -36.332  22.883  -0.729  0.00  0.00    -0.442 OA
ATOM     21  C   UNL     1     -35.870  23.208  -2.044  0.00  0.00    +0.256 C 
ENDBRANCH  19  20
ENDBRANCH   3  19
BRANCH   9  22
ATOM     22  O   UNL     1     -38.567  25.095   4.196  0.00  0.00    -0.505 OA
ATOM     23  H   UNL     1     -39.042  25.275   3.409  0.00  0.00    +0.292 HD
ENDBRANCH   9  22
BRANCH  10  24
ATOM     24  C   UNL     1     -34.080  26.062   5.786  0.00  0.00    +0.164 C 
BRANCH  24  25
ATOM     25  O   UNL     1     -33.700  27.253   5.106  0.00  0.00    -0.377 OA
ATOM     26  H   UNL     1     -33.865  27.149   4.156  0.00  0.00    +0.211 HD
ENDBRANCH  24  25
ENDBRANCH  10  24
TORSDOF 6
ENDMDL
MODEL 4
REMARK VINA RESULT:      -5.8      1.938      3.142
REMARK  Name = 60170335
REMARK  6 active torsions:
REMARK  status: ('A' for Active; 'I' for Inactive)
REMARK    1  A    between atoms: C_3  and  C_14
REMARK    2  A    between atoms: C_3  and  C_19
REMARK    3  A    between atoms: C_9  and  O_22
REMARK    4  A    between atoms: C_10  and  C_24
REMARK    5  A    between atoms: C_19  and  O_20
REMARK    6  A    between atoms: C_24  and  O_25
REMARK                            x       y       z     vdW  Elec       q    Type
REMARK                         _______ _______ _______ _____ _____    ______ ____
ROOT
ATOM      1  O   UNL     1     -33.289  25.873   4.325  0.00  0.00    -0.468 OA
ATOM      2  O   UNL     1     -34.361  24.745   0.524  0.00  0.00    -0.291 OA
ATOM      3  C   UNL     1     -33.329  26.848   3.284  0.00  0.00    +0.264 C 
ATOM      4  C   UNL     1     -33.095  26.246   1.899  0.00  0.00    +0.124 C 
ATOM      5  C   UNL     1     -34.021  25.082   1.652  0.00  0.00    +0.183 C 
ATOM      6  C   UNL     1     -34.037  24.748   4.104  0.00  0.00    +0.145 C 
ATOM      7  C   UNL     1     -34.448  24.323   2.840  0.00  0.00    +0.102 C 
ATOM      8  C   UNL     1     -34.377  23.997   5.231  0.00  0.00    +0.035 C 
ATOM      9  C   UNL     1     -35.221  23.167   2.700  0.00  0.00    +0.139 C 
ATOM     10  C   UNL     1     -35.146  22.841   5.094  0.00  0.00    +0.013 C 
ATOM     11  C   UNL     1     -35.572  22.430   3.831  0.00  0.00    +0.035 C 
ENDROOT
BRANCH   3  14
ATOM     12  O   UNL     1     -31.818  27.718   4.956  0.00  0.00    -0.448 OA
ATOM     13  O   UNL     1     -29.847  28.024   6.090  0.00  0.00    -0.250 OA
ATOM     14  C   UNL     1     -32.238  27.855   3.591  0.00  0.00    +0.216 C 
ATOM     15  C   UNL     1     -30.977  27.634   2.786  0.00  0.00    +0.060 C 
ATOM     16  C   UNL     1     -29.919  28.239   3.677  0.00  0.00    +0.113 C 
ATOM     17  C   UNL     1     -30.478  27.980   5.045  0.00  0.00    +0.317 C 
ENDBRANCH   3  14
BRANCH   3  19
ATOM     18  O   UNL     1     -35.479  27.434   4.224  0.00  0.00    -0.246 OA
ATOM     19  C   UNL     1     -34.638  27.599   3.351  0.00  0.00    +0.358 C 
BRANCH  19  20
ATOM     20  O   UNL     1     -34.719  28.467   2.303  0.00  0.00    -0.442 OA
ATOM     21  C   UNL     1     -35.981  28.502   1.630  0.00  0.00    +0.256 C 
ENDBRANCH  19  20
ENDBRANCH   3  19
BRANCH   9  22
ATOM     22  O   UNL     1     -35.663  22.719   1.492  0.00  0.00    -0.505 OA
ATOM     23  H   UNL     1     -35.291  21.947   1.114  0.00  0.00    +0.292 HD
ENDBRANCH   9  22
BRANCH  10  24
ATOM     24  C   UNL     1     -35.516  22.045   6.301  0.00  0.00    +0.164 C 
BRANCH  24  25
ATOM     25  O   UNL     1     -35.494  20.660   5.978  0.00  0.00    -0.377 OA
ATOM     26  H   UNL     1     -36.218  20.209   6.439  0.00  0.00    +0.211 HD
ENDBRANCH  24  25
ENDBRANCH  10  24
TORSDOF 6
ENDMDL
MODEL 5
REMARK VINA RESULT:      -5.7      2.680      4.714
REMARK  Name = 60170335
REMARK  6 active torsions:
REMARK  status: ('A' for Active; 'I' for Inactive)
REMARK    1  A    between atoms: C_3  and  C_14
REMARK    2  A    between atoms: C_3  and  C_19
REMARK    3  A    between atoms: C_9  and  O_22
REMARK    4  A    between atoms: C_10  and  C_24
REMARK    5  A    between atoms: C_19  and  O_20
REMARK    6  A    between atoms: C_24  and  O_25
REMARK                            x       y       z     vdW  Elec       q    Type
REMARK                         _______ _______ _______ _____ _____    ______ ____
ROOT
ATOM      1  O   UNL     1     -35.544  24.753   2.314  0.00  0.00    -0.468 OA
ATOM      2  O   UNL     1     -35.847  23.050   6.039  0.00  0.00    -0.291 OA
ATOM      3  C   UNL     1     -35.263  25.536   3.472  0.00  0.00    +0.264 C 
ATOM      4  C   UNL     1     -36.004  25.042   4.715  0.00  0.00    +0.124 C 
ATOM      5  C   UNL     1     -35.775  23.568   4.931  0.00  0.00    +0.183 C 
ATOM      6  C   UNL     1     -35.447  23.398   2.484  0.00  0.00    +0.145 C 
ATOM      7  C   UNL     1     -35.524  22.762   3.723  0.00  0.00    +0.102 C 
ATOM      8  C   UNL     1     -35.279  22.636   1.324  0.00  0.00    +0.035 C 
ATOM      9  C   UNL     1     -35.404  21.372   3.813  0.00  0.00    +0.139 C 
ATOM     10  C   UNL     1     -35.162  21.249   1.411  0.00  0.00    +0.013 C 
ATOM     11  C   UNL     1     -35.219  20.619   2.654  0.00  0.00    +0.035 C 
ENDROOT
BRANCH   3  14
ATOM     12  O   UNL     1     -34.827  27.888   3.810  0.00  0.00    -0.448 OA
ATOM     13  O   UNL     1     -34.056  29.998   3.343  0.00  0.00    -0.250 OA
ATOM     14  C   UNL     1     -35.696  26.954   3.153  0.00  0.00    +0.216 C 
ATOM     15  C   UNL     1     -35.577  27.299   1.685  0.00  0.00    +0.060 C 
ATOM     16  C   UNL     1     -35.401  28.798   1.723  0.00  0.00    +0.113 C 
ATOM     17  C   UNL     1     -34.672  28.994   3.020  0.00  0.00    +0.317 C 
ENDBRANCH   3  14
BRANCH   3  19
ATOM     18  O   UNL     1     -33.246  25.675   4.798  0.00  0.00    -0.246 OA
ATOM     19  C   UNL     1     -33.770  25.583   3.697  0.00  0.00    +0.358 C 
BRANCH  19  20
ATOM     20  O   UNL     1     -33.127  25.508   2.497  0.00  0.00    -0.442 OA
ATOM     21  C   UNL     1     -31.996  26.373   2.351  0.00  0.00    +0.256 C 
ENDBRANCH  19  20
ENDBRANCH   3  19
BRANCH   9  22
ATOM     22  O   UNL     1     -35.452  20.704   4.999  0.00  0.00    -0.505 OA
ATOM     23  H   UNL     1     -34.690  20.658   5.543  0.00  0.00    +0.292 HD
ENDBRANCH   9  22
BRANCH  10  24
ATOM     24  C   UNL     1     -34.973  20.439   0.172  0.00  0.00    +0.164 C 
BRANCH  24  25
ATOM     25  O   UNL     1     -35.060  19.056   0.495  0.00  0.00    -0.377 OA
ATOM     26  H   UNL     1     -34.627  18.536  -0.199  0.00  0.00    +0.211 HD
ENDBRANCH  24  25
ENDBRANCH  10  24
TORSDOF 6
ENDMDL
MODEL 6
REMARK VINA RESULT:      -5.7      3.618      6.261
REMARK  Name = 60170335
REMARK  6 active torsions:
REMARK  status: ('A' for Active; 'I' for Inactive)
REMARK    1  A    between atoms: C_3  and  C_14
REMARK    2  A    between atoms: C_3  and  C_19
REMARK    3  A    between atoms: C_9  and  O_22
REMARK    4  A    between atoms: C_10  and  C_24
REMARK    5  A    between atoms: C_19  and  O_20
REMARK    6  A    between atoms: C_24  and  O_25
REMARK                            x       y       z     vdW  Elec       q    Type
REMARK                         _______ _______ _______ _____ _____    ______ ____
ROOT
ATOM      1  O   UNL     1     -34.804  23.390   1.736  0.00  0.00    -0.468 OA
ATOM      2  O   UNL     1     -36.309  22.805   5.513  0.00  0.00    -0.291 OA
ATOM      3  C   UNL     1     -35.556  22.211   2.022  0.00  0.00    +0.264 C 
ATOM      4  C   UNL     1     -35.486  21.807   3.494  0.00  0.00    +0.124 C 
ATOM      5  C   UNL     1     -35.845  22.966   4.390  0.00  0.00    +0.183 C 
ATOM      6  C   UNL     1     -35.020  24.442   2.584  0.00  0.00    +0.145 C 
ATOM      7  C   UNL     1     -35.545  24.311   3.870  0.00  0.00    +0.102 C 
ATOM      8  C   UNL     1     -34.666  25.707   2.107  0.00  0.00    +0.035 C 
ATOM      9  C   UNL     1     -35.745  25.439   4.670  0.00  0.00    +0.139 C 
ATOM     10  C   UNL     1     -34.863  26.834   2.904  0.00  0.00    +0.013 C 
ATOM     11  C   UNL     1     -35.406  26.701   4.182  0.00  0.00    +0.035 C 
ENDROOT
BRANCH   3  14
ATOM     12  O   UNL     1     -33.756  21.556   0.549  0.00  0.00    -0.448 OA
ATOM     13  O   UNL     1     -31.794  20.559  -0.102  0.00  0.00    -0.250 OA
ATOM     14  C   UNL     1     -34.971  21.105   1.164  0.00  0.00    +0.216 C 
ATOM     15  C   UNL     1     -34.560  19.886   1.959  0.00  0.00    +0.060 C 
ATOM     16  C   UNL     1     -33.479  19.288   1.091  0.00  0.00    +0.113 C 
ATOM     17  C   UNL     1     -32.883  20.508   0.451  0.00  0.00    +0.317 C 
ENDBRANCH   3  14
BRANCH   3  19
ATOM     18  O   UNL     1     -37.327  23.218   0.720  0.00  0.00    -0.246 OA
ATOM     19  C   UNL     1     -36.982  22.401   1.563  0.00  0.00    +0.358 C 
BRANCH  19  20
ATOM     20  O   UNL     1     -37.795  21.534   2.230  0.00  0.00    -0.442 OA
ATOM     21  C   UNL     1     -39.184  21.613   1.895  0.00  0.00    +0.256 C 
ENDBRANCH  19  20
ENDBRANCH   3  19
BRANCH   9  22
ATOM     22  O   UNL     1     -36.272  25.368   5.924  0.00  0.00    -0.505 OA
ATOM     23  H   UNL     1     -35.757  25.623   6.664  0.00  0.00    +0.292 HD
ENDBRANCH   9  22
BRANCH  10  24
ATOM     24  C   UNL     1     -34.493  28.185   2.389  0.00  0.00    +0.164 C 
BRANCH  24  25
ATOM     25  O   UNL     1     -35.185  29.180   3.134  0.00  0.00    -0.377 OA
ATOM     26  H   UNL     1     -34.556  29.657   3.697  0.00  0.00    +0.211 HD
ENDBRANCH  24  25
ENDBRANCH  10  24
TORSDOF 6
ENDMDL
MODEL 7
REMARK VINA RESULT:      -5.7      2.289      4.252
REMARK  Name = 60170335
REMARK  6 active torsions:
REMARK  status: ('A' for Active; 'I' for Inactive)
REMARK    1  A    between atoms: C_3  and  C_14
REMARK    2  A    between atoms: C_3  and  C_19
REMARK    3  A    between atoms: C_9  and  O_22
REMARK    4  A    between atoms: C_10  and  C_24
REMARK    5  A    between atoms: C_19  and  O_20
REMARK    6  A    between atoms: C_24  and  O_25
REMARK                            x       y       z     vdW  Elec       q    Type
REMARK                         _______ _______ _______ _____ _____    ______ ____
ROOT
ATOM      1  O   UNL     1     -35.186  25.222   2.107  0.00  0.00    -0.468 OA
ATOM      2  O   UNL     1     -35.648  25.375   6.185  0.00  0.00    -0.291 OA
ATOM      3  C   UNL     1     -34.713  26.358   2.829  0.00  0.00    +0.264 C 
ATOM      4  C   UNL     1     -35.481  26.595   4.129  0.00  0.00    +0.124 C 
ATOM      5  C   UNL     1     -35.526  25.343   4.966  0.00  0.00    +0.183 C 
ATOM      6  C   UNL     1     -35.340  24.080   2.846  0.00  0.00    +0.145 C 
ATOM      7  C   UNL     1     -35.483  24.065   4.234  0.00  0.00    +0.102 C 
ATOM      8  C   UNL     1     -35.368  22.878   2.135  0.00  0.00    +0.035 C 
ATOM      9  C   UNL     1     -35.625  22.854   4.917  0.00  0.00    +0.139 C 
ATOM     10  C   UNL     1     -35.512  21.668   2.813  0.00  0.00    +0.013 C 
ATOM     11  C   UNL     1     -35.635  21.656   4.202  0.00  0.00    +0.035 C 
ENDROOT
BRANCH   3  14
ATOM     12  O   UNL     1     -36.153  27.485   1.250  0.00  0.00    -0.448 OA
ATOM     13  O   UNL     1     -37.669  29.023   0.474  0.00  0.00    -0.250 OA
ATOM     14  C   UNL     1     -34.882  27.555   1.913  0.00  0.00    +0.216 C 
ATOM     15  C   UNL     1     -34.916  28.874   2.653  0.00  0.00    +0.060 C 
ATOM     16  C   UNL     1     -35.716  29.745   1.715  0.00  0.00    +0.113 C 
ATOM     17  C   UNL     1     -36.643  28.751   1.080  0.00  0.00    +0.317 C 
ENDBRANCH   3  14
BRANCH   3  19
ATOM     18  O   UNL     1     -32.676  26.526   4.121  0.00  0.00    -0.246 OA
ATOM     19  C   UNL     1     -33.230  26.214   3.076  0.00  0.00    +0.358 C 
BRANCH  19  20
ATOM     20  O   UNL     1     -32.632  25.691   1.968  0.00  0.00    -0.442 OA
ATOM     21  C   UNL     1     -31.405  26.317   1.579  0.00  0.00    +0.256 C 
ENDBRANCH  19  20
ENDBRANCH   3  19
BRANCH   9  22
ATOM     22  O   UNL     1     -35.749  22.783   6.271  0.00  0.00    -0.505 OA
ATOM     23  H   UNL     1     -35.058  22.415   6.787  0.00  0.00    +0.292 HD
ENDBRANCH   9  22
BRANCH  10  24
ATOM     24  C   UNL     1     -35.532  20.385   2.052  0.00  0.00    +0.164 C 
BRANCH  24  25
ATOM     25  O   UNL     1     -36.685  19.637   2.419  0.00  0.00    -0.377 OA
ATOM     26  H   UNL     1     -37.307  19.616   1.675  0.00  0.00    +0.211 HD
ENDBRANCH  24  25
ENDBRANCH  10  24
TORSDOF 6
ENDMDL
MODEL 8
REMARK VINA RESULT:      -5.7      3.205      4.881
REMARK  Name = 60170335
REMARK  6 active torsions:
REMARK  status: ('A' for Active; 'I' for Inactive)
REMARK    1  A    between atoms: C_3  and  C_14
REMARK    2  A    between atoms: C_3  and  C_19
REMARK    3  A    between atoms: C_9  and  O_22
REMARK    4  A    between atoms: C_10  and  C_24
REMARK    5  A    between atoms: C_19  and  O_20
REMARK    6  A    between atoms: C_24  and  O_25
REMARK                            x       y       z     vdW  Elec       q    Type
REMARK                         _______ _______ _______ _____ _____    ______ ____
ROOT
ATOM      1  O   UNL     1     -35.005  23.906   2.593  0.00  0.00    -0.468 OA
ATOM      2  O   UNL     1     -39.086  23.645   2.968  0.00  0.00    -0.291 OA
ATOM      3  C   UNL     1     -35.689  24.784   3.485  0.00  0.00    +0.264 C 
ATOM      4  C   UNL     1     -37.138  25.038   3.070  0.00  0.00    +0.124 C 
ATOM      5  C   UNL     1     -37.871  23.740   2.844  0.00  0.00    +0.183 C 
ATOM      6  C   UNL     1     -35.673  22.754   2.276  0.00  0.00    +0.145 C 
ATOM      7  C   UNL     1     -37.054  22.598   2.399  0.00  0.00    +0.102 C 
ATOM      8  C   UNL     1     -34.898  21.699   1.788  0.00  0.00    +0.035 C 
ATOM      9  C   UNL     1     -37.661  21.384   2.064  0.00  0.00    +0.139 C 
ATOM     10  C   UNL     1     -35.501  20.488   1.451  0.00  0.00    +0.013 C 
ATOM     11  C   UNL     1     -36.879  20.328   1.593  0.00  0.00    +0.035 C 
ENDROOT
BRANCH   3  14
ATOM     12  O   UNL     1     -34.619  26.486   4.825  0.00  0.00    -0.448 OA
ATOM     13  O   UNL     1     -32.911  27.636   5.838  0.00  0.00    -0.250 OA
ATOM     14  C   UNL     1     -34.922  26.092   3.479  0.00  0.00    +0.216 C 
ATOM     15  C   UNL     1     -33.572  25.991   2.804  0.00  0.00    +0.060 C 
ATOM     16  C   UNL     1     -32.795  27.096   3.478  0.00  0.00    +0.113 C 
ATOM     17  C   UNL     1     -33.404  27.114   4.849  0.00  0.00    +0.317 C 
ENDBRANCH   3  14
BRANCH   3  19
ATOM     18  O   UNL     1     -36.364  24.551   5.795  0.00  0.00    -0.246 OA
ATOM     19  C   UNL     1     -35.600  24.241   4.892  0.00  0.00    +0.358 C 
BRANCH  19  20
ATOM     20  O   UNL     1     -34.552  23.373   4.979  0.00  0.00    -0.442 OA
ATOM     21  C   UNL     1     -34.768  22.232   5.817  0.00  0.00    +0.256 C 
ENDBRANCH  19  20
ENDBRANCH   3  19
BRANCH   9  22
ATOM     22  O   UNL     1     -39.001  21.172   2.183  0.00  0.00    -0.505 OA
ATOM     23  H   UNL     1     -39.368  20.343   1.947  0.00  0.00    +0.292 HD
ENDBRANCH   9  22
BRANCH  10  24
ATOM     24  C   UNL     1     -34.669  19.360   0.938  0.00  0.00    +0.164 C 
BRANCH  24  25
ATOM     25  O   UNL     1     -33.742  18.963   1.941  0.00  0.00    -0.377 OA
ATOM     26  H   UNL     1     -33.502  19.732   2.482  0.00  0.00    +0.211 HD
ENDBRANCH  24  25
ENDBRANCH  10  24
TORSDOF 6
ENDMDL
MODEL 9
REMARK VINA RESULT:      -5.7      3.685      6.811
REMARK  Name = 60170335
REMARK  6 active torsions:
REMARK  status: ('A' for Active; 'I' for Inactive)
REMARK    1  A    between atoms: C_3  and  C_14
REMARK    2  A    between atoms: C_3  and  C_19
REMARK    3  A    between atoms: C_9  and  O_22
REMARK    4  A    between atoms: C_10  and  C_24
REMARK    5  A    between atoms: C_19  and  O_20
REMARK    6  A    between atoms: C_24  and  O_25
REMARK                            x       y       z     vdW  Elec       q    Type
REMARK                         _______ _______ _______ _____ _____    ______ ____
ROOT
ATOM      1  O   UNL     1     -35.746  23.974   1.824  0.00  0.00    -0.468 OA
ATOM      2  O   UNL     1     -36.399  19.976   2.499  0.00  0.00    -0.291 OA
ATOM      3  C   UNL     1     -36.489  23.564   2.970  0.00  0.00    +0.264 C 
ATOM      4  C   UNL     1     -37.192  22.221   2.771  0.00  0.00    +0.124 C 
ATOM      5  C   UNL     1     -36.224  21.170   2.291  0.00  0.00    +0.183 C 
ATOM      6  C   UNL     1     -34.923  23.021   1.288  0.00  0.00    +0.145 C 
ATOM      7  C   UNL     1     -35.081  21.651   1.494  0.00  0.00    +0.102 C 
ATOM      8  C   UNL     1     -33.883  23.483   0.476  0.00  0.00    +0.035 C 
ATOM      9  C   UNL     1     -34.189  20.741   0.919  0.00  0.00    +0.139 C 
ATOM     10  C   UNL     1     -32.993  22.577  -0.101  0.00  0.00    +0.013 C 
ATOM     11  C   UNL     1     -33.143  21.209   0.124  0.00  0.00    +0.035 C 
ENDROOT
BRANCH   3  14
ATOM     12  O   UNL     1     -37.309  25.745   2.330  0.00  0.00    -0.448 OA
ATOM     13  O   UNL     1     -38.657  27.296   1.310  0.00  0.00    -0.250 OA
ATOM     14  C   UNL     1     -37.522  24.645   3.226  0.00  0.00    +0.216 C 
ATOM     15  C   UNL     1     -38.939  24.197   2.941  0.00  0.00    +0.060 C 
ATOM     16  C   UNL     1     -39.627  25.501   2.618  0.00  0.00    +0.113 C 
ATOM     17  C   UNL     1     -38.516  26.293   1.993  0.00  0.00    +0.317 C 
ENDBRANCH   3  14
BRANCH   3  19
ATOM     18  O   UNL     1     -34.452  24.014   4.192  0.00  0.00    -0.246 OA
ATOM     19  C   UNL     1     -35.582  23.544   4.177  0.00  0.00    +0.358 C 
BRANCH  19  20
ATOM     20  O   UNL     1     -36.218  22.930   5.215  0.00  0.00    -0.442 OA
ATOM     21  C   UNL     1     -35.379  22.153   6.076  0.00  0.00    +0.256 C 
ENDBRANCH  19  20
ENDBRANCH   3  19
BRANCH   9  22
ATOM     22  O   UNL     1     -34.288  19.395   1.105  0.00  0.00    -0.505 OA
ATOM     23  H   UNL     1     -34.405  19.048   1.967  0.00  0.00    +0.292 HD
ENDBRANCH   9  22
BRANCH  10  24
ATOM     24  C   UNL     1     -31.878  23.074  -0.960  0.00  0.00    +0.164 C 
BRANCH  24  25
ATOM     25  O   UNL     1     -31.299  24.227  -0.361  0.00  0.00    -0.377 OA
ATOM     26  H   UNL     1     -31.647  25.023  -0.792  0.00  0.00    +0.211 HD
ENDBRANCH  24  25
ENDBRANCH  10  24
TORSDOF 6
ENDMDL
