MODEL 1
REMARK VINA RESULT:      -7.0      0.000      0.000
REMARK  Name = 21122669
REMARK  13 active torsions:
REMARK  status: ('A' for Active; 'I' for Inactive)
REMARK    1  A    between atoms: C_6  and  O_21
REMARK    2  A    between atoms: C_6  and  C_26
REMARK    3  A    between atoms: C_9  and  O_23
REMARK    4  A    between atoms: C_26  and  C_27
REMARK    5  A    between atoms: C_27  and  O_28
REMARK    6  A    between atoms: O_28  and  C_30
REMARK    7  A    between atoms: C_30  and  C_31
REMARK    8  A    between atoms: C_31  and  N_32
REMARK    9  A    between atoms: C_31  and  C_36
REMARK   10  A    between atoms: C_36  and  C_37
REMARK   11  A    between atoms: C_37  and  C_38
REMARK   12  A    between atoms: C_38  and  C_39
REMARK   13  A    between atoms: C_39  and  N_40
REMARK                            x       y       z     vdW  Elec       q    Type
REMARK                         _______ _______ _______ _____ _____    ______ ____
ROOT
ATOM      1  O   UNL     1     -39.576  36.012   1.521  0.00  0.00    -0.291 OA
ATOM      2  C   UNL     1     -33.456  30.341   2.854  0.00  0.00    +0.031 C 
ATOM      3  C   UNL     1     -33.339  31.882   2.865  0.00  0.00    +0.003 C 
ATOM      4  C   UNL     1     -34.222  32.573   1.815  0.00  0.00    +0.003 C 
ATOM      5  C   UNL     1     -35.716  32.202   2.091  0.00  0.00    +0.030 C 
ATOM      6  C   UNL     1     -32.412  29.998   3.954  0.00  0.00    +0.143 C 
ATOM      7  C   UNL     1     -34.921  29.986   3.178  0.00  0.00    +0.032 C 
ATOM      8  C   UNL     1     -36.725  32.952   1.127  0.00  0.00    +0.018 C 
ATOM      9  C   UNL     1     -35.933  30.662   2.226  0.00  0.00    +0.111 C 
ATOM     10  C   UNL     1     -31.832  32.122   2.835  0.00  0.00    +0.003 C 
ATOM     11  C   UNL     1     -31.248  30.980   3.692  0.00  0.00    +0.034 C 
ATOM     12  C   UNL     1     -34.030  34.096   1.875  0.00  0.00    +0.004 C 
ATOM     13  C   UNL     1     -33.019  29.703   1.506  0.00  0.00    +0.003 C 
ATOM     14  C   UNL     1     -36.398  34.451   1.124  0.00  0.00    -0.042 C 
ATOM     15  C   UNL     1     -34.952  34.821   0.906  0.00  0.00    +0.022 C 
ATOM     16  C   UNL     1     -38.167  32.722   1.667  0.00  0.00    +0.012 C 
ATOM     17  C   UNL     1     -36.655  32.468  -0.339  0.00  0.00    +0.004 C 
ATOM     18  C   UNL     1     -39.191  33.688   1.092  0.00  0.00    +0.069 C 
ATOM     19  C   UNL     1     -37.316  35.423   1.264  0.00  0.00    +0.029 C 
ATOM     20  C   UNL     1     -38.762  35.109   1.338  0.00  0.00    +0.173 C 
ENDROOT
BRANCH   6  21
ATOM     21  O   UNL     1     -32.941  30.232   5.256  0.00  0.00    -0.380 OA
ATOM     22  H   UNL     1     -33.824  30.627   5.181  0.00  0.00    +0.211 HD
ENDBRANCH   6  21
BRANCH   9  23
ATOM     23  O   UNL     1     -35.892  30.020   0.960  0.00  0.00    -0.384 OA
ATOM     24  H   UNL     1     -35.280  29.269   0.999  0.00  0.00    +0.210 HD
ENDBRANCH   9  23
BRANCH   6  26
ATOM     25  O   UNL     1     -31.224  28.113   3.110  0.00  0.00    -0.290 OA
ATOM     26  C   UNL     1     -31.993  28.559   3.961  0.00  0.00    +0.218 C 
BRANCH  26  27
ATOM     27  C   UNL     1     -32.566  27.698   5.066  0.00  0.00    +0.274 C 
BRANCH  27  28
ATOM     28  O   UNL     1     -33.859  27.244   4.725  0.00  0.00    -0.442 OA
BRANCH  28  30
ATOM     29  O   UNL     1     -33.316  25.052   4.265  0.00  0.00    -0.252 OA
ATOM     30  C   UNL     1     -34.058  25.884   4.772  0.00  0.00    +0.297 C 
BRANCH  30  31
ATOM     31  C   UNL     1     -35.337  25.573   5.531  0.00  0.00    +0.036 C 
BRANCH  31  32
ATOM     32  N   UNL     1     -36.311  26.625   5.240  0.00  0.00    +0.389 N 
ATOM     33  H   UNL     1     -35.821  27.501   5.061  0.00  0.00    -0.088 HD
ATOM     34  H   UNL     1     -36.935  26.740   6.038  0.00  0.00    -0.088 HD
ATOM     35  H   UNL     1     -36.855  26.365   4.417  0.00  0.00    -0.088 HD
ENDBRANCH  31  32
BRANCH  31  36
ATOM     36  C   UNL     1     -35.892  24.183   5.188  0.00  0.00    -0.011 C 
BRANCH  36  37
ATOM     37  C   UNL     1     -35.278  23.034   6.001  0.00  0.00    -0.004 C 
BRANCH  37  38
ATOM     38  C   UNL     1     -35.174  21.758   5.157  0.00  0.00    -0.024 C 
BRANCH  38  39
ATOM     39  C   UNL     1     -35.571  21.971   3.695  0.00  0.00    -0.086 C 
BRANCH  39  40
ATOM     40  N   UNL     1     -36.041  20.740   3.072  0.00  0.00    +0.380 N 
ATOM     41  H   UNL     1     -37.031  20.608   3.283  0.00  0.00    -0.089 HD
ATOM     42  H   UNL     1     -35.508  19.950   3.435  0.00  0.00    -0.089 HD
ATOM     43  H   UNL     1     -35.914  20.800   2.061  0.00  0.00    -0.089 HD
ENDBRANCH  39  40
ENDBRANCH  38  39
ENDBRANCH  37  38
ENDBRANCH  36  37
ENDBRANCH  31  36
ENDBRANCH  30  31
ENDBRANCH  28  30
ENDBRANCH  27  28
ENDBRANCH  26  27
ENDBRANCH   6  26
TORSDOF 13
ENDMDL
MODEL 2
REMARK VINA RESULT:      -6.6      2.054      3.038
REMARK  Name = 21122669
REMARK  13 active torsions:
REMARK  status: ('A' for Active; 'I' for Inactive)
REMARK    1  A    between atoms: C_6  and  O_21
REMARK    2  A    between atoms: C_6  and  C_26
REMARK    3  A    between atoms: C_9  and  O_23
REMARK    4  A    between atoms: C_26  and  C_27
REMARK    5  A    between atoms: C_27  and  O_28
REMARK    6  A    between atoms: O_28  and  C_30
REMARK    7  A    between atoms: C_30  and  C_31
REMARK    8  A    between atoms: C_31  and  N_32
REMARK    9  A    between atoms: C_31  and  C_36
REMARK   10  A    between atoms: C_36  and  C_37
REMARK   11  A    between atoms: C_37  and  C_38
REMARK   12  A    between atoms: C_38  and  C_39
REMARK   13  A    between atoms: C_39  and  N_40
REMARK                            x       y       z     vdW  Elec       q    Type
REMARK                         _______ _______ _______ _____ _____    ______ ____
ROOT
ATOM      1  O   UNL     1     -34.800  39.925   0.744  0.00  0.00    -0.291 OA
ATOM      2  C   UNL     1     -34.537  31.550   1.828  0.00  0.00    +0.031 C 
ATOM      3  C   UNL     1     -33.629  32.619   2.475  0.00  0.00    +0.003 C 
ATOM      4  C   UNL     1     -33.291  33.788   1.539  0.00  0.00    +0.003 C 
ATOM      5  C   UNL     1     -34.621  34.488   1.106  0.00  0.00    +0.030 C 
ATOM      6  C   UNL     1     -34.607  30.530   2.998  0.00  0.00    +0.143 C 
ATOM      7  C   UNL     1     -35.865  32.238   1.451  0.00  0.00    +0.032 C 
ATOM      8  C   UNL     1     -34.378  35.779   0.222  0.00  0.00    +0.018 C 
ATOM      9  C   UNL     1     -35.671  33.477   0.547  0.00  0.00    +0.111 C 
ATOM     10  C   UNL     1     -32.488  31.798   3.072  0.00  0.00    +0.003 C 
ATOM     11  C   UNL     1     -33.169  30.504   3.565  0.00  0.00    +0.034 C 
ATOM     12  C   UNL     1     -32.367  34.790   2.249  0.00  0.00    +0.004 C 
ATOM     13  C   UNL     1     -33.896  30.873   0.585  0.00  0.00    +0.003 C 
ATOM     14  C   UNL     1     -33.346  36.678   0.916  0.00  0.00    -0.042 C 
ATOM     15  C   UNL     1     -32.078  36.005   1.381  0.00  0.00    +0.022 C 
ATOM     16  C   UNL     1     -35.734  36.531   0.086  0.00  0.00    +0.012 C 
ATOM     17  C   UNL     1     -33.833  35.467  -1.191  0.00  0.00    +0.004 C 
ATOM     18  C   UNL     1     -35.587  37.968  -0.389  0.00  0.00    +0.069 C 
ATOM     19  C   UNL     1     -33.496  38.002   1.090  0.00  0.00    +0.029 C 
ATOM     20  C   UNL     1     -34.658  38.724   0.523  0.00  0.00    +0.173 C 
ENDROOT
BRANCH   6  21
ATOM     21  O   UNL     1     -35.504  30.970   4.012  0.00  0.00    -0.380 OA
ATOM     22  H   UNL     1     -35.055  31.609   4.588  0.00  0.00    +0.211 HD
ENDBRANCH   6  21
BRANCH   9  23
ATOM     23  O   UNL     1     -35.335  33.054  -0.766  0.00  0.00    -0.384 OA
ATOM     24  H   UNL     1     -36.116  32.668  -1.191  0.00  0.00    +0.210 HD
ENDBRANCH   9  23
BRANCH   6  26
ATOM     25  O   UNL     1     -36.181  29.052   1.990  0.00  0.00    -0.290 OA
ATOM     26  C   UNL     1     -35.116  29.179   2.592  0.00  0.00    +0.218 C 
BRANCH  26  27
ATOM     27  C   UNL     1     -34.248  27.996   2.965  0.00  0.00    +0.274 C 
BRANCH  27  28
ATOM     28  O   UNL     1     -34.551  27.547   4.270  0.00  0.00    -0.442 OA
BRANCH  28  30
ATOM     29  O   UNL     1     -33.342  25.593   4.103  0.00  0.00    -0.252 OA
ATOM     30  C   UNL     1     -34.303  26.219   4.530  0.00  0.00    +0.297 C 
BRANCH  30  31
ATOM     31  C   UNL     1     -35.402  25.650   5.411  0.00  0.00    +0.036 C 
BRANCH  31  32
ATOM     32  N   UNL     1     -36.523  26.590   5.412  0.00  0.00    +0.389 N 
ATOM     33  H   UNL     1     -36.314  27.367   4.787  0.00  0.00    -0.088 HD
ATOM     34  H   UNL     1     -36.669  26.942   6.358  0.00  0.00    -0.088 HD
ATOM     35  H   UNL     1     -37.366  26.112   5.092  0.00  0.00    -0.088 HD
ENDBRANCH  31  32
BRANCH  31  36
ATOM     36  C   UNL     1     -35.843  24.250   4.955  0.00  0.00    -0.011 C 
BRANCH  36  37
ATOM     37  C   UNL     1     -35.323  23.102   5.833  0.00  0.00    -0.004 C 
BRANCH  37  38
ATOM     38  C   UNL     1     -35.238  21.796   5.035  0.00  0.00    -0.024 C 
BRANCH  38  39
ATOM     39  C   UNL     1     -35.765  21.931   3.606  0.00  0.00    -0.086 C 
BRANCH  39  40
ATOM     40  N   UNL     1     -35.806  20.646   2.916  0.00  0.00    +0.380 N 
ATOM     41  H   UNL     1     -36.390  19.996   3.442  0.00  0.00    -0.089 HD
ATOM     42  H   UNL     1     -34.861  20.271   2.840  0.00  0.00    -0.089 HD
ATOM     43  H   UNL     1     -36.197  20.774   1.981  0.00  0.00    -0.089 HD
ENDBRANCH  39  40
ENDBRANCH  38  39
ENDBRANCH  37  38
ENDBRANCH  36  37
ENDBRANCH  31  36
ENDBRANCH  30  31
ENDBRANCH  28  30
ENDBRANCH  27  28
ENDBRANCH  26  27
ENDBRANCH   6  26
TORSDOF 13
ENDMDL
MODEL 3
REMARK VINA RESULT:      -6.5      6.432     11.808
REMARK  Name = 21122669
REMARK  13 active torsions:
REMARK  status: ('A' for Active; 'I' for Inactive)
REMARK    1  A    between atoms: C_6  and  O_21
REMARK    2  A    between atoms: C_6  and  C_26
REMARK    3  A    between atoms: C_9  and  O_23
REMARK    4  A    between atoms: C_26  and  C_27
REMARK    5  A    between atoms: C_27  and  O_28
REMARK    6  A    between atoms: O_28  and  C_30
REMARK    7  A    between atoms: C_30  and  C_31
REMARK    8  A    between atoms: C_31  and  N_32
REMARK    9  A    between atoms: C_31  and  C_36
REMARK   10  A    between atoms: C_36  and  C_37
REMARK   11  A    between atoms: C_37  and  C_38
REMARK   12  A    between atoms: C_38  and  C_39
REMARK   13  A    between atoms: C_39  and  N_40
REMARK                            x       y       z     vdW  Elec       q    Type
REMARK                         _______ _______ _______ _____ _____    ______ ____
ROOT
ATOM      1  O   UNL     1     -31.920  15.467   0.383  0.00  0.00    -0.291 OA
ATOM      2  C   UNL     1     -37.694  21.628   0.687  0.00  0.00    +0.031 C 
ATOM      3  C   UNL     1     -37.787  20.277  -0.058  0.00  0.00    +0.003 C 
ATOM      4  C   UNL     1     -36.454  19.816  -0.665  0.00  0.00    +0.003 C 
ATOM      5  C   UNL     1     -35.404  19.660   0.483  0.00  0.00    +0.030 C 
ATOM      6  C   UNL     1     -39.185  21.800   1.091  0.00  0.00    +0.143 C 
ATOM      7  C   UNL     1     -36.696  21.448   1.848  0.00  0.00    +0.032 C 
ATOM      8  C   UNL     1     -34.019  19.083  -0.023  0.00  0.00    +0.018 C 
ATOM      9  C   UNL     1     -35.314  20.931   1.385  0.00  0.00    +0.111 C 
ATOM     10  C   UNL     1     -38.992  20.463  -0.977  0.00  0.00    +0.003 C 
ATOM     11  C   UNL     1     -39.972  21.319  -0.149  0.00  0.00    +0.034 C 
ATOM     12  C   UNL     1     -36.638  18.483  -1.406  0.00  0.00    +0.004 C 
ATOM     13  C   UNL     1     -37.265  22.805  -0.232  0.00  0.00    +0.003 C 
ATOM     14  C   UNL     1     -34.275  17.828  -0.869  0.00  0.00    -0.042 C 
ATOM     15  C   UNL     1     -35.320  17.952  -1.950  0.00  0.00    +0.022 C 
ATOM     16  C   UNL     1     -33.164  18.718   1.226  0.00  0.00    +0.012 C 
ATOM     17  C   UNL     1     -33.222  20.071  -0.904  0.00  0.00    +0.004 C 
ATOM     18  C   UNL     1     -31.993  17.801   0.914  0.00  0.00    +0.069 C 
ATOM     19  C   UNL     1     -33.607  16.672  -0.722  0.00  0.00    +0.029 C 
ATOM     20  C   UNL     1     -32.478  16.551   0.229  0.00  0.00    +0.173 C 
ENDROOT
BRANCH   6  21
ATOM     21  O   UNL     1     -39.515  20.978   2.206  0.00  0.00    -0.380 OA
ATOM     22  H   UNL     1     -39.111  21.343   3.009  0.00  0.00    +0.211 HD
ENDBRANCH   6  21
BRANCH   9  23
ATOM     23  O   UNL     1     -34.612  21.979   0.735  0.00  0.00    -0.384 OA
ATOM     24  H   UNL     1     -34.227  21.647  -0.091  0.00  0.00    +0.210 HD
ENDBRANCH   9  23
BRANCH   6  26
ATOM     25  O   UNL     1     -39.985  24.015   0.723  0.00  0.00    -0.290 OA
ATOM     26  C   UNL     1     -39.537  23.193   1.522  0.00  0.00    +0.218 C 
BRANCH  26  27
ATOM     27  C   UNL     1     -39.310  23.521   2.982  0.00  0.00    +0.274 C 
BRANCH  27  28
ATOM     28  O   UNL     1     -38.009  24.033   3.182  0.00  0.00    -0.442 OA
BRANCH  28  30
ATOM     29  O   UNL     1     -38.826  26.187   3.120  0.00  0.00    -0.252 OA
ATOM     30  C   UNL     1     -37.903  25.400   3.290  0.00  0.00    +0.297 C 
BRANCH  30  31
ATOM     31  C   UNL     1     -36.475  25.784   3.638  0.00  0.00    +0.036 C 
BRANCH  31  32
ATOM     32  N   UNL     1     -36.493  26.534   4.893  0.00  0.00    +0.389 N 
ATOM     33  H   UNL     1     -36.584  25.886   5.675  0.00  0.00    -0.088 HD
ATOM     34  H   UNL     1     -37.284  27.179   4.891  0.00  0.00    -0.088 HD
ATOM     35  H   UNL     1     -35.624  27.061   4.986  0.00  0.00    -0.088 HD
ENDBRANCH  31  32
BRANCH  31  36
ATOM     36  C   UNL     1     -35.552  24.559   3.729  0.00  0.00    -0.011 C 
BRANCH  36  37
ATOM     37  C   UNL     1     -34.680  24.513   4.993  0.00  0.00    -0.004 C 
BRANCH  37  38
ATOM     38  C   UNL     1     -35.171  23.427   5.959  0.00  0.00    -0.024 C 
BRANCH  38  39
ATOM     39  C   UNL     1     -35.734  22.198   5.245  0.00  0.00    -0.086 C 
BRANCH  39  40
ATOM     40  N   UNL     1     -35.031  20.978   5.624  0.00  0.00    +0.380 N 
ATOM     41  H   UNL     1     -35.076  20.860   6.636  0.00  0.00    -0.089 HD
ATOM     42  H   UNL     1     -34.057  21.041   5.331  0.00  0.00    -0.089 HD
ATOM     43  H   UNL     1     -35.471  20.177   5.169  0.00  0.00    -0.089 HD
ENDBRANCH  39  40
ENDBRANCH  38  39
ENDBRANCH  37  38
ENDBRANCH  36  37
ENDBRANCH  31  36
ENDBRANCH  30  31
ENDBRANCH  28  30
ENDBRANCH  27  28
ENDBRANCH  26  27
ENDBRANCH   6  26
TORSDOF 13
ENDMDL
MODEL 4
REMARK VINA RESULT:      -6.5      7.218     12.925
REMARK  Name = 21122669
REMARK  13 active torsions:
REMARK  status: ('A' for Active; 'I' for Inactive)
REMARK    1  A    between atoms: C_6  and  O_21
REMARK    2  A    between atoms: C_6  and  C_26
REMARK    3  A    between atoms: C_9  and  O_23
REMARK    4  A    between atoms: C_26  and  C_27
REMARK    5  A    between atoms: C_27  and  O_28
REMARK    6  A    between atoms: O_28  and  C_30
REMARK    7  A    between atoms: C_30  and  C_31
REMARK    8  A    between atoms: C_31  and  N_32
REMARK    9  A    between atoms: C_31  and  C_36
REMARK   10  A    between atoms: C_36  and  C_37
REMARK   11  A    between atoms: C_37  and  C_38
REMARK   12  A    between atoms: C_38  and  C_39
REMARK   13  A    between atoms: C_39  and  N_40
REMARK                            x       y       z     vdW  Elec       q    Type
REMARK                         _______ _______ _______ _____ _____    ______ ____
ROOT
ATOM      1  O   UNL     1     -28.738  14.769   0.708  0.00  0.00    -0.291 OA
ATOM      2  C   UNL     1     -35.348  20.016   0.303  0.00  0.00    +0.031 C 
ATOM      3  C   UNL     1     -35.335  18.488   0.076  0.00  0.00    +0.003 C 
ATOM      4  C   UNL     1     -34.071  17.982  -0.635  0.00  0.00    +0.003 C 
ATOM      5  C   UNL     1     -32.824  18.349   0.233  0.00  0.00    +0.030 C 
ATOM      6  C   UNL     1     -36.750  20.167   0.955  0.00  0.00    +0.143 C 
ATOM      7  C   UNL     1     -34.144  20.360   1.202  0.00  0.00    +0.032 C 
ATOM      8  C   UNL     1     -31.471  17.775  -0.358  0.00  0.00    +0.018 C 
ATOM      9  C   UNL     1     -32.798  19.857   0.632  0.00  0.00    +0.111 C 
ATOM     10  C   UNL     1     -36.698  18.214  -0.557  0.00  0.00    +0.003 C 
ATOM     11  C   UNL     1     -37.649  19.202   0.149  0.00  0.00    +0.034 C 
ATOM     12  C   UNL     1     -34.149  16.462  -0.844  0.00  0.00    +0.004 C 
ATOM     13  C   UNL     1     -35.299  20.832  -1.019  0.00  0.00    +0.003 C 
ATOM     14  C   UNL     1     -31.652  16.284  -0.672  0.00  0.00    -0.042 C 
ATOM     15  C   UNL     1     -32.877  15.911  -1.470  0.00  0.00    +0.022 C 
ATOM     16  C   UNL     1     -30.359  17.963   0.715  0.00  0.00    +0.012 C 
ATOM     17  C   UNL     1     -31.027  18.466  -1.667  0.00  0.00    +0.004 C 
ATOM     18  C   UNL     1     -29.120  17.119   0.459  0.00  0.00    +0.069 C 
ATOM     19  C   UNL     1     -30.777  15.328  -0.315  0.00  0.00    +0.029 C 
ATOM     20  C   UNL     1     -29.495  15.666   0.342  0.00  0.00    +0.173 C 
ENDROOT
BRANCH   6  21
ATOM     21  O   UNL     1     -36.730  19.760   2.320  0.00  0.00    -0.380 OA
ATOM     22  H   UNL     1     -37.597  19.400   2.564  0.00  0.00    +0.211 HD
ENDBRANCH   6  21
BRANCH   9  23
ATOM     23  O   UNL     1     -32.415  20.676  -0.463  0.00  0.00    -0.384 OA
ATOM     24  H   UNL     1     -31.904  20.149  -1.097  0.00  0.00    +0.210 HD
ENDBRANCH   9  23
BRANCH   6  26
ATOM     25  O   UNL     1     -38.125  21.960   0.197  0.00  0.00    -0.290 OA
ATOM     26  C   UNL     1     -37.257  21.578   0.981  0.00  0.00    +0.218 C 
BRANCH  26  27
ATOM     27  C   UNL     1     -36.642  22.492   2.019  0.00  0.00    +0.274 C 
BRANCH  27  28
ATOM     28  O   UNL     1     -37.522  22.674   3.108  0.00  0.00    -0.442 OA
BRANCH  28  30
ATOM     29  O   UNL     1     -39.101  24.329   3.387  0.00  0.00    -0.252 OA
ATOM     30  C   UNL     1     -37.933  23.965   3.350  0.00  0.00    +0.297 C 
BRANCH  30  31
ATOM     31  C   UNL     1     -36.725  24.864   3.550  0.00  0.00    +0.036 C 
BRANCH  31  32
ATOM     32  N   UNL     1     -37.103  26.229   3.187  0.00  0.00    +0.389 N 
ATOM     33  H   UNL     1     -36.964  26.844   3.988  0.00  0.00    -0.088 HD
ATOM     34  H   UNL     1     -38.085  26.247   2.911  0.00  0.00    -0.088 HD
ATOM     35  H   UNL     1     -36.525  26.546   2.409  0.00  0.00    -0.088 HD
ENDBRANCH  31  32
BRANCH  31  36
ATOM     36  C   UNL     1     -36.182  24.794   4.986  0.00  0.00    -0.011 C 
BRANCH  36  37
ATOM     37  C   UNL     1     -34.989  23.845   5.169  0.00  0.00    -0.004 C 
BRANCH  37  38
ATOM     38  C   UNL     1     -35.203  22.920   6.374  0.00  0.00    -0.024 C 
BRANCH  38  39
ATOM     39  C   UNL     1     -35.186  21.437   6.001  0.00  0.00    -0.086 C 
BRANCH  39  40
ATOM     40  N   UNL     1     -35.399  21.231   4.573  0.00  0.00    +0.380 N 
ATOM     41  H   UNL     1     -35.525  20.235   4.388  0.00  0.00    -0.089 HD
ATOM     42  H   UNL     1     -34.590  21.574   4.056  0.00  0.00    -0.089 HD
ATOM     43  H   UNL     1     -36.232  21.740   4.276  0.00  0.00    -0.089 HD
ENDBRANCH  39  40
ENDBRANCH  38  39
ENDBRANCH  37  38
ENDBRANCH  36  37
ENDBRANCH  31  36
ENDBRANCH  30  31
ENDBRANCH  28  30
ENDBRANCH  27  28
ENDBRANCH  26  27
ENDBRANCH   6  26
TORSDOF 13
ENDMDL
MODEL 5
REMARK VINA RESULT:      -6.5      5.377     11.549
REMARK  Name = 21122669
REMARK  13 active torsions:
REMARK  status: ('A' for Active; 'I' for Inactive)
REMARK    1  A    between atoms: C_6  and  O_21
REMARK    2  A    between atoms: C_6  and  C_26
REMARK    3  A    between atoms: C_9  and  O_23
REMARK    4  A    between atoms: C_26  and  C_27
REMARK    5  A    between atoms: C_27  and  O_28
REMARK    6  A    between atoms: O_28  and  C_30
REMARK    7  A    between atoms: C_30  and  C_31
REMARK    8  A    between atoms: C_31  and  N_32
REMARK    9  A    between atoms: C_31  and  C_36
REMARK   10  A    between atoms: C_36  and  C_37
REMARK   11  A    between atoms: C_37  and  C_38
REMARK   12  A    between atoms: C_38  and  C_39
REMARK   13  A    between atoms: C_39  and  N_40
REMARK                            x       y       z     vdW  Elec       q    Type
REMARK                         _______ _______ _______ _____ _____    ______ ____
ROOT
ATOM      1  O   UNL     1     -27.166  18.028   0.665  0.00  0.00    -0.291 OA
ATOM      2  C   UNL     1     -34.739  21.754   0.284  0.00  0.00    +0.031 C 
ATOM      3  C   UNL     1     -34.309  20.570   1.178  0.00  0.00    +0.003 C 
ATOM      4  C   UNL     1     -33.335  19.602   0.490  0.00  0.00    +0.003 C 
ATOM      5  C   UNL     1     -32.047  20.388   0.082  0.00  0.00    +0.030 C 
ATOM      6  C   UNL     1     -35.737  22.454   1.248  0.00  0.00    +0.143 C 
ATOM      7  C   UNL     1     -33.468  22.552  -0.069  0.00  0.00    +0.032 C 
ATOM      8  C   UNL     1     -30.928  19.457  -0.540  0.00  0.00    +0.018 C 
ATOM      9  C   UNL     1     -32.370  21.684  -0.725  0.00  0.00    +0.111 C 
ATOM     10  C   UNL     1     -35.634  20.030   1.710  0.00  0.00    +0.003 C 
ATOM     11  C   UNL     1     -36.503  21.288   1.913  0.00  0.00    +0.034 C 
ATOM     12  C   UNL     1     -32.979  18.443   1.434  0.00  0.00    +0.004 C 
ATOM     13  C   UNL     1     -35.487  21.309  -1.004  0.00  0.00    +0.003 C 
ATOM     14  C   UNL     1     -30.709  18.247   0.379  0.00  0.00    -0.042 C 
ATOM     15  C   UNL     1     -31.949  17.508   0.818  0.00  0.00    +0.022 C 
ATOM     16  C   UNL     1     -29.615  20.287  -0.649  0.00  0.00    +0.012 C 
ATOM     17  C   UNL     1     -31.289  18.906  -1.938  0.00  0.00    +0.004 C 
ATOM     18  C   UNL     1     -28.372  19.435  -0.851  0.00  0.00    +0.069 C 
ATOM     19  C   UNL     1     -29.502  17.806   0.770  0.00  0.00    +0.029 C 
ATOM     20  C   UNL     1     -28.256  18.414   0.249  0.00  0.00    +0.173 C 
ENDROOT
BRANCH   6  21
ATOM     21  O   UNL     1     -35.049  23.197   2.250  0.00  0.00    -0.380 OA
ATOM     22  H   UNL     1     -35.671  23.448   2.952  0.00  0.00    +0.211 HD
ENDBRANCH   6  21
BRANCH   9  23
ATOM     23  O   UNL     1     -32.743  21.382  -2.062  0.00  0.00    -0.384 OA
ATOM     24  H   UNL     1     -32.498  22.121  -2.640  0.00  0.00    +0.210 HD
ENDBRANCH   9  23
BRANCH   6  26
ATOM     25  O   UNL     1     -37.740  23.132   0.150  0.00  0.00    -0.290 OA
ATOM     26  C   UNL     1     -36.630  23.452   0.574  0.00  0.00    +0.218 C 
BRANCH  26  27
ATOM     27  C   UNL     1     -36.089  24.860   0.449  0.00  0.00    +0.274 C 
BRANCH  27  28
ATOM     28  O   UNL     1     -36.438  25.630   1.581  0.00  0.00    -0.442 OA
BRANCH  28  30
ATOM     29  O   UNL     1     -35.205  27.502   1.044  0.00  0.00    -0.252 OA
ATOM     30  C   UNL     1     -35.616  26.696   1.868  0.00  0.00    +0.297 C 
BRANCH  30  31
ATOM     31  C   UNL     1     -35.289  26.711   3.352  0.00  0.00    +0.036 C 
BRANCH  31  32
ATOM     32  N   UNL     1     -35.085  28.101   3.762  0.00  0.00    +0.389 N 
ATOM     33  H   UNL     1     -35.589  28.275   4.631  0.00  0.00    -0.088 HD
ATOM     34  H   UNL     1     -35.435  28.724   3.035  0.00  0.00    -0.088 HD
ATOM     35  H   UNL     1     -34.089  28.270   3.906  0.00  0.00    -0.088 HD
ENDBRANCH  31  32
BRANCH  31  36
ATOM     36  C   UNL     1     -36.379  26.031   4.193  0.00  0.00    -0.011 C 
BRANCH  36  37
ATOM     37  C   UNL     1     -35.913  25.562   5.579  0.00  0.00    -0.004 C 
BRANCH  37  38
ATOM     38  C   UNL     1     -34.678  24.659   5.467  0.00  0.00    -0.024 C 
BRANCH  38  39
ATOM     39  C   UNL     1     -35.000  23.176   5.652  0.00  0.00    -0.086 C 
BRANCH  39  40
ATOM     40  N   UNL     1     -36.322  22.837   5.138  0.00  0.00    +0.380 N 
ATOM     41  H   UNL     1     -36.959  23.619   5.295  0.00  0.00    -0.089 HD
ATOM     42  H   UNL     1     -36.673  22.010   5.621  0.00  0.00    -0.089 HD
ATOM     43  H   UNL     1     -36.259  22.644   4.138  0.00  0.00    -0.089 HD
ENDBRANCH  39  40
ENDBRANCH  38  39
ENDBRANCH  37  38
ENDBRANCH  36  37
ENDBRANCH  31  36
ENDBRANCH  30  31
ENDBRANCH  28  30
ENDBRANCH  27  28
ENDBRANCH  26  27
ENDBRANCH   6  26
TORSDOF 13
ENDMDL
MODEL 6
REMARK VINA RESULT:      -6.5      4.386     10.293
REMARK  Name = 21122669
REMARK  13 active torsions:
REMARK  status: ('A' for Active; 'I' for Inactive)
REMARK    1  A    between atoms: C_6  and  O_21
REMARK    2  A    between atoms: C_6  and  C_26
REMARK    3  A    between atoms: C_9  and  O_23
REMARK    4  A    between atoms: C_26  and  C_27
REMARK    5  A    between atoms: C_27  and  O_28
REMARK    6  A    between atoms: O_28  and  C_30
REMARK    7  A    between atoms: C_30  and  C_31
REMARK    8  A    between atoms: C_31  and  N_32
REMARK    9  A    between atoms: C_31  and  C_36
REMARK   10  A    between atoms: C_36  and  C_37
REMARK   11  A    between atoms: C_37  and  C_38
REMARK   12  A    between atoms: C_38  and  C_39
REMARK   13  A    between atoms: C_39  and  N_40
REMARK                            x       y       z     vdW  Elec       q    Type
REMARK                         _______ _______ _______ _____ _____    ______ ____
ROOT
ATOM      1  O   UNL     1     -31.202  17.492   1.087  0.00  0.00    -0.291 OA
ATOM      2  C   UNL     1     -35.737  24.605   1.569  0.00  0.00    +0.031 C 
ATOM      3  C   UNL     1     -35.981  23.273   2.312  0.00  0.00    +0.003 C 
ATOM      4  C   UNL     1     -35.655  22.030   1.471  0.00  0.00    +0.003 C 
ATOM      5  C   UNL     1     -34.148  22.080   1.059  0.00  0.00    +0.030 C 
ATOM      6  C   UNL     1     -36.221  25.599   2.661  0.00  0.00    +0.143 C 
ATOM      7  C   UNL     1     -34.238  24.668   1.214  0.00  0.00    +0.032 C 
ATOM      8  C   UNL     1     -33.679  20.787   0.276  0.00  0.00    +0.018 C 
ATOM      9  C   UNL     1     -33.754  23.442   0.406  0.00  0.00    +0.111 C 
ATOM     10  C   UNL     1     -37.391  23.435   2.874  0.00  0.00    +0.003 C 
ATOM     11  C   UNL     1     -37.478  24.926   3.257  0.00  0.00    +0.034 C 
ATOM     12  C   UNL     1     -35.948  20.751   2.271  0.00  0.00    +0.004 C 
ATOM     13  C   UNL     1     -36.613  24.765   0.296  0.00  0.00    +0.003 C 
ATOM     14  C   UNL     1     -34.117  19.539   1.056  0.00  0.00    -0.042 C 
ATOM     15  C   UNL     1     -35.558  19.500   1.500  0.00  0.00    +0.022 C 
ATOM     16  C   UNL     1     -32.127  20.827   0.165  0.00  0.00    +0.012 C 
ATOM     17  C   UNL     1     -34.280  20.670  -1.143  0.00  0.00    +0.004 C 
ATOM     18  C   UNL     1     -31.508  19.487  -0.201  0.00  0.00    +0.069 C 
ATOM     19  C   UNL     1     -33.312  18.496   1.322  0.00  0.00    +0.029 C 
ATOM     20  C   UNL     1     -31.935  18.431   0.783  0.00  0.00    +0.173 C 
ENDROOT
BRANCH   6  21
ATOM     21  O   UNL     1     -35.243  25.757   3.685  0.00  0.00    -0.380 OA
ATOM     22  H   UNL     1     -34.377  25.926   3.282  0.00  0.00    +0.211 HD
ENDBRANCH   6  21
BRANCH   9  23
ATOM     23  O   UNL     1     -34.235  23.536  -0.926  0.00  0.00    -0.384 OA
ATOM     24  H   UNL     1     -35.201  23.451  -0.928  0.00  0.00    +0.210 HD
ENDBRANCH   9  23
BRANCH   6  26
ATOM     25  O   UNL     1     -37.604  27.373   1.875  0.00  0.00    -0.290 OA
ATOM     26  C   UNL     1     -36.468  26.986   2.148  0.00  0.00    +0.218 C 
BRANCH  26  27
ATOM     27  C   UNL     1     -35.250  27.870   1.990  0.00  0.00    +0.274 C 
BRANCH  27  28
ATOM     28  O   UNL     1     -34.867  28.420   3.233  0.00  0.00    -0.442 OA
BRANCH  28  30
ATOM     29  O   UNL     1     -32.867  27.420   3.788  0.00  0.00    -0.252 OA
ATOM     30  C   UNL     1     -33.520  28.418   3.511  0.00  0.00    +0.297 C 
BRANCH  30  31
ATOM     31  C   UNL     1     -32.973  29.833   3.435  0.00  0.00    +0.036 C 
BRANCH  31  32
ATOM     32  N   UNL     1     -34.005  30.750   3.919  0.00  0.00    +0.389 N 
ATOM     33  H   UNL     1     -33.629  31.698   3.949  0.00  0.00    -0.088 HD
ATOM     34  H   UNL     1     -34.297  30.469   4.855  0.00  0.00    -0.088 HD
ATOM     35  H   UNL     1     -34.807  30.721   3.289  0.00  0.00    -0.088 HD
ENDBRANCH  31  32
BRANCH  31  36
ATOM     36  C   UNL     1     -31.665  29.992   4.225  0.00  0.00    -0.011 C 
BRANCH  36  37
ATOM     37  C   UNL     1     -31.786  30.860   5.487  0.00  0.00    -0.004 C 
BRANCH  37  38
ATOM     38  C   UNL     1     -31.812  29.992   6.750  0.00  0.00    -0.024 C 
BRANCH  38  39
ATOM     39  C   UNL     1     -31.256  28.586   6.523  0.00  0.00    -0.086 C 
BRANCH  39  40
ATOM     40  N   UNL     1     -32.212  27.553   6.906  0.00  0.00    +0.380 N 
ATOM     41  H   UNL     1     -32.930  27.959   7.506  0.00  0.00    -0.089 HD
ATOM     42  H   UNL     1     -31.727  26.811   7.410  0.00  0.00    -0.089 HD
ATOM     43  H   UNL     1     -32.648  27.165   6.068  0.00  0.00    -0.089 HD
ENDBRANCH  39  40
ENDBRANCH  38  39
ENDBRANCH  37  38
ENDBRANCH  36  37
ENDBRANCH  31  36
ENDBRANCH  30  31
ENDBRANCH  28  30
ENDBRANCH  27  28
ENDBRANCH  26  27
ENDBRANCH   6  26
TORSDOF 13
ENDMDL
MODEL 7
REMARK VINA RESULT:      -6.3      3.700      9.255
REMARK  Name = 21122669
REMARK  13 active torsions:
REMARK  status: ('A' for Active; 'I' for Inactive)
REMARK    1  A    between atoms: C_6  and  O_21
REMARK    2  A    between atoms: C_6  and  C_26
REMARK    3  A    between atoms: C_9  and  O_23
REMARK    4  A    between atoms: C_26  and  C_27
REMARK    5  A    between atoms: C_27  and  O_28
REMARK    6  A    between atoms: O_28  and  C_30
REMARK    7  A    between atoms: C_30  and  C_31
REMARK    8  A    between atoms: C_31  and  N_32
REMARK    9  A    between atoms: C_31  and  C_36
REMARK   10  A    between atoms: C_36  and  C_37
REMARK   11  A    between atoms: C_37  and  C_38
REMARK   12  A    between atoms: C_38  and  C_39
REMARK   13  A    between atoms: C_39  and  N_40
REMARK                            x       y       z     vdW  Elec       q    Type
REMARK                         _______ _______ _______ _____ _____    ______ ____
ROOT
ATOM      1  O   UNL     1     -35.297  21.002   4.354  0.00  0.00    -0.291 OA
ATOM      2  C   UNL     1     -34.431  29.047   1.920  0.00  0.00    +0.031 C 
ATOM      3  C   UNL     1     -33.609  28.284   2.983  0.00  0.00    +0.003 C 
ATOM      4  C   UNL     1     -34.440  27.290   3.807  0.00  0.00    +0.003 C 
ATOM      5  C   UNL     1     -35.070  26.236   2.840  0.00  0.00    +0.030 C 
ATOM      6  C   UNL     1     -33.320  29.973   1.353  0.00  0.00    +0.143 C 
ATOM      7  C   UNL     1     -35.005  28.002   0.942  0.00  0.00    +0.032 C 
ATOM      8  C   UNL     1     -35.862  25.096   3.602  0.00  0.00    +0.018 C 
ATOM      9  C   UNL     1     -35.827  26.899   1.647  0.00  0.00    +0.111 C 
ATOM     10  C   UNL     1     -32.853  29.394   3.708  0.00  0.00    +0.003 C 
ATOM     11  C   UNL     1     -32.520  30.414   2.600  0.00  0.00    +0.034 C 
ATOM     12  C   UNL     1     -33.556  26.595   4.854  0.00  0.00    +0.004 C 
ATOM     13  C   UNL     1     -35.568  29.913   2.532  0.00  0.00    +0.003 C 
ATOM     14  C   UNL     1     -34.978  24.531   4.722  0.00  0.00    -0.042 C 
ATOM     15  C   UNL     1     -34.326  25.541   5.635  0.00  0.00    +0.022 C 
ATOM     16  C   UNL     1     -36.202  23.976   2.576  0.00  0.00    +0.012 C 
ATOM     17  C   UNL     1     -37.172  25.587   4.260  0.00  0.00    +0.004 C 
ATOM     18  C   UNL     1     -36.602  22.660   3.223  0.00  0.00    +0.069 C 
ATOM     19  C   UNL     1     -34.793  23.219   4.947  0.00  0.00    +0.029 C 
ATOM     20  C   UNL     1     -35.526  22.195   4.166  0.00  0.00    +0.173 C 
ENDROOT
BRANCH   6  21
ATOM     21  O   UNL     1     -32.458  29.262   0.469  0.00  0.00    -0.380 OA
ATOM     22  H   UNL     1     -32.160  29.855  -0.239  0.00  0.00    +0.211 HD
ENDBRANCH   6  21
BRANCH   9  23
ATOM     23  O   UNL     1     -37.077  27.432   2.059  0.00  0.00    -0.384 OA
ATOM     24  H   UNL     1     -37.019  28.400   2.093  0.00  0.00    +0.210 HD
ENDBRANCH   9  23
BRANCH   6  26
ATOM     25  O   UNL     1     -34.260  30.953  -0.606  0.00  0.00    -0.290 OA
ATOM     26  C   UNL     1     -33.844  31.119   0.540  0.00  0.00    +0.218 C 
BRANCH  26  27
ATOM     27  C   UNL     1     -33.832  32.477   1.210  0.00  0.00    +0.274 C 
BRANCH  27  28
ATOM     28  O   UNL     1     -34.878  33.287   0.714  0.00  0.00    -0.442 OA
BRANCH  28  30
ATOM     29  O   UNL     1     -34.148  35.052   2.003  0.00  0.00    -0.252 OA
ATOM     30  C   UNL     1     -34.963  34.557   1.235  0.00  0.00    +0.297 C 
BRANCH  30  31
ATOM     31  C   UNL     1     -36.220  35.242   0.727  0.00  0.00    +0.036 C 
BRANCH  31  32
ATOM     32  N   UNL     1     -36.415  34.864  -0.673  0.00  0.00    +0.389 N 
ATOM     33  H   UNL     1     -37.408  34.909  -0.902  0.00  0.00    -0.088 HD
ATOM     34  H   UNL     1     -36.074  33.914  -0.818  0.00  0.00    -0.088 HD
ATOM     35  H   UNL     1     -35.898  35.507  -1.273  0.00  0.00    -0.088 HD
ENDBRANCH  31  32
BRANCH  31  36
ATOM     36  C   UNL     1     -37.452  34.898   1.578  0.00  0.00    -0.011 C 
BRANCH  36  37
ATOM     37  C   UNL     1     -38.507  36.012   1.649  0.00  0.00    -0.004 C 
BRANCH  37  38
ATOM     38  C   UNL     1     -39.328  35.910   2.941  0.00  0.00    -0.024 C 
BRANCH  38  39
ATOM     39  C   UNL     1     -40.811  35.639   2.688  0.00  0.00    -0.086 C 
BRANCH  39  40
ATOM     40  N   UNL     1     -41.606  35.782   3.903  0.00  0.00    +0.380 N 
ATOM     41  H   UNL     1     -41.689  36.770   4.140  0.00  0.00    -0.089 HD
ATOM     42  H   UNL     1     -41.151  35.285   4.668  0.00  0.00    -0.089 HD
ATOM     43  H   UNL     1     -42.536  35.390   3.749  0.00  0.00    -0.089 HD
ENDBRANCH  39  40
ENDBRANCH  38  39
ENDBRANCH  37  38
ENDBRANCH  36  37
ENDBRANCH  31  36
ENDBRANCH  30  31
ENDBRANCH  28  30
ENDBRANCH  27  28
ENDBRANCH  26  27
ENDBRANCH   6  26
TORSDOF 13
ENDMDL
MODEL 8
REMARK VINA RESULT:      -6.3      1.326      1.585
REMARK  Name = 21122669
REMARK  13 active torsions:
REMARK  status: ('A' for Active; 'I' for Inactive)
REMARK    1  A    between atoms: C_6  and  O_21
REMARK    2  A    between atoms: C_6  and  C_26
REMARK    3  A    between atoms: C_9  and  O_23
REMARK    4  A    between atoms: C_26  and  C_27
REMARK    5  A    between atoms: C_27  and  O_28
REMARK    6  A    between atoms: O_28  and  C_30
REMARK    7  A    between atoms: C_30  and  C_31
REMARK    8  A    between atoms: C_31  and  N_32
REMARK    9  A    between atoms: C_31  and  C_36
REMARK   10  A    between atoms: C_36  and  C_37
REMARK   11  A    between atoms: C_37  and  C_38
REMARK   12  A    between atoms: C_38  and  C_39
REMARK   13  A    between atoms: C_39  and  N_40
REMARK                            x       y       z     vdW  Elec       q    Type
REMARK                         _______ _______ _______ _____ _____    ______ ____
ROOT
ATOM      1  O   UNL     1     -37.671  36.443   0.771  0.00  0.00    -0.291 OA
ATOM      2  C   UNL     1     -32.416  30.392   3.446  0.00  0.00    +0.031 C 
ATOM      3  C   UNL     1     -32.196  31.921   3.478  0.00  0.00    +0.003 C 
ATOM      4  C   UNL     1     -32.773  32.652   2.256  0.00  0.00    +0.003 C 
ATOM      5  C   UNL     1     -34.314  32.389   2.194  0.00  0.00    +0.030 C 
ATOM      6  C   UNL     1     -31.669  29.999   4.751  0.00  0.00    +0.143 C 
ATOM      7  C   UNL     1     -33.937  30.144   3.437  0.00  0.00    +0.032 C 
ATOM      8  C   UNL     1     -35.028  33.188   1.029  0.00  0.00    +0.018 C 
ATOM      9  C   UNL     1     -34.664  30.871   2.282  0.00  0.00    +0.111 C 
ATOM     10  C   UNL     1     -30.706  32.058   3.783  0.00  0.00    +0.003 C 
ATOM     11  C   UNL     1     -30.409  30.894   4.752  0.00  0.00    +0.034 C 
ATOM     12  C   UNL     1     -32.491  34.159   2.353  0.00  0.00    +0.004 C 
ATOM     13  C   UNL     1     -31.737  29.702   2.230  0.00  0.00    +0.003 C 
ATOM     14  C   UNL     1     -34.603  34.662   1.094  0.00  0.00    -0.042 C 
ATOM     15  C   UNL     1     -33.122  34.927   1.202  0.00  0.00    +0.022 C 
ATOM     16  C   UNL     1     -36.566  33.068   1.234  0.00  0.00    +0.012 C 
ATOM     17  C   UNL     1     -34.669  32.674  -0.384  0.00  0.00    +0.004 C 
ATOM     18  C   UNL     1     -37.367  34.090   0.444  0.00  0.00    +0.069 C 
ATOM     19  C   UNL     1     -35.458  35.696   1.024  0.00  0.00    +0.029 C 
ATOM     20  C   UNL     1     -36.903  35.483   0.775  0.00  0.00    +0.173 C 
ENDROOT
BRANCH   6  21
ATOM     21  O   UNL     1     -32.455  30.292   5.902  0.00  0.00    -0.380 OA
ATOM     22  H   UNL     1     -32.374  29.568   6.543  0.00  0.00    +0.211 HD
ENDBRANCH   6  21
BRANCH   9  23
ATOM     23  O   UNL     1     -34.388  30.204   1.058  0.00  0.00    -0.384 OA
ATOM     24  H   UNL     1     -33.946  29.361   1.242  0.00  0.00    +0.210 HD
ENDBRANCH   9  23
BRANCH   6  26
ATOM     25  O   UNL     1     -30.231  28.102   4.651  0.00  0.00    -0.290 OA
ATOM     26  C   UNL     1     -31.364  28.534   4.855  0.00  0.00    +0.218 C 
BRANCH  26  27
ATOM     27  C   UNL     1     -32.523  27.633   5.222  0.00  0.00    +0.274 C 
BRANCH  27  28
ATOM     28  O   UNL     1     -32.883  26.814   4.128  0.00  0.00    -0.442 OA
BRANCH  28  30
ATOM     29  O   UNL     1     -34.863  26.674   2.957  0.00  0.00    -0.252 OA
ATOM     30  C   UNL     1     -34.224  26.536   3.992  0.00  0.00    +0.297 C 
BRANCH  30  31
ATOM     31  C   UNL     1     -34.789  26.048   5.315  0.00  0.00    +0.036 C 
BRANCH  31  32
ATOM     32  N   UNL     1     -36.229  26.307   5.322  0.00  0.00    +0.389 N 
ATOM     33  H   UNL     1     -36.428  27.135   4.762  0.00  0.00    -0.088 HD
ATOM     34  H   UNL     1     -36.540  26.461   6.281  0.00  0.00    -0.088 HD
ATOM     35  H   UNL     1     -36.720  25.504   4.930  0.00  0.00    -0.088 HD
ENDBRANCH  31  32
BRANCH  31  36
ATOM     36  C   UNL     1     -34.484  24.563   5.563  0.00  0.00    -0.011 C 
BRANCH  36  37
ATOM     37  C   UNL     1     -35.712  23.642   5.497  0.00  0.00    -0.004 C 
BRANCH  37  38
ATOM     38  C   UNL     1     -35.567  22.613   4.369  0.00  0.00    -0.024 C 
BRANCH  38  39
ATOM     39  C   UNL     1     -36.626  22.768   3.277  0.00  0.00    -0.086 C 
BRANCH  39  40
ATOM     40  N   UNL     1     -36.522  24.054   2.595  0.00  0.00    +0.380 N 
ATOM     41  H   UNL     1     -36.209  24.765   3.257  0.00  0.00    -0.089 HD
ATOM     42  H   UNL     1     -37.434  24.315   2.222  0.00  0.00    -0.089 HD
ATOM     43  H   UNL     1     -35.850  23.980   1.831  0.00  0.00    -0.089 HD
ENDBRANCH  39  40
ENDBRANCH  38  39
ENDBRANCH  37  38
ENDBRANCH  36  37
ENDBRANCH  31  36
ENDBRANCH  30  31
ENDBRANCH  28  30
ENDBRANCH  27  28
ENDBRANCH  26  27
ENDBRANCH   6  26
TORSDOF 13
ENDMDL
MODEL 9
REMARK VINA RESULT:      -6.3      5.689     12.032
REMARK  Name = 21122669
REMARK  13 active torsions:
REMARK  status: ('A' for Active; 'I' for Inactive)
REMARK    1  A    between atoms: C_6  and  O_21
REMARK    2  A    between atoms: C_6  and  C_26
REMARK    3  A    between atoms: C_9  and  O_23
REMARK    4  A    between atoms: C_26  and  C_27
REMARK    5  A    between atoms: C_27  and  O_28
REMARK    6  A    between atoms: O_28  and  C_30
REMARK    7  A    between atoms: C_30  and  C_31
REMARK    8  A    between atoms: C_31  and  N_32
REMARK    9  A    between atoms: C_31  and  C_36
REMARK   10  A    between atoms: C_36  and  C_37
REMARK   11  A    between atoms: C_37  and  C_38
REMARK   12  A    between atoms: C_38  and  C_39
REMARK   13  A    between atoms: C_39  and  N_40
REMARK                            x       y       z     vdW  Elec       q    Type
REMARK                         _______ _______ _______ _____ _____    ______ ____
ROOT
ATOM      1  O   UNL     1     -33.895  13.951  -1.966  0.00  0.00    -0.291 OA
ATOM      2  C   UNL     1     -36.644  21.343   1.066  0.00  0.00    +0.031 C 
ATOM      3  C   UNL     1     -37.168  20.569  -0.164  0.00  0.00    +0.003 C 
ATOM      4  C   UNL     1     -36.064  19.855  -0.958  0.00  0.00    +0.003 C 
ATOM      5  C   UNL     1     -35.348  18.832  -0.016  0.00  0.00    +0.030 C 
ATOM      6  C   UNL     1     -37.978  21.969   1.561  0.00  0.00    +0.143 C 
ATOM      7  C   UNL     1     -35.987  20.317   2.011  0.00  0.00    +0.032 C 
ATOM      8  C   UNL     1     -34.260  17.960  -0.767  0.00  0.00    +0.018 C 
ATOM      9  C   UNL     1     -34.884  19.480   1.325  0.00  0.00    +0.111 C 
ATOM     10  C   UNL     1     -38.045  21.595  -0.880  0.00  0.00    +0.003 C 
ATOM     11  C   UNL     1     -38.702  22.395   0.264  0.00  0.00    +0.034 C 
ATOM     12  C   UNL     1     -36.663  19.133  -2.175  0.00  0.00    +0.004 C 
ATOM     13  C   UNL     1     -35.644  22.474   0.698  0.00  0.00    +0.003 C 
ATOM     14  C   UNL     1     -34.877  17.375  -2.044  0.00  0.00    -0.042 C 
ATOM     15  C   UNL     1     -35.610  18.344  -2.938  0.00  0.00    +0.022 C 
ATOM     16  C   UNL     1     -33.820  16.812   0.188  0.00  0.00    +0.012 C 
ATOM     17  C   UNL     1     -33.010  18.765  -1.192  0.00  0.00    +0.004 C 
ATOM     18  C   UNL     1     -33.090  15.681  -0.519  0.00  0.00    +0.069 C 
ATOM     19  C   UNL     1     -34.765  16.087  -2.413  0.00  0.00    +0.029 C 
ATOM     20  C   UNL     1     -33.935  15.136  -1.639  0.00  0.00    +0.173 C 
ENDROOT
BRANCH   6  21
ATOM     21  O   UNL     1     -38.773  21.009   2.250  0.00  0.00    -0.380 OA
ATOM     22  H   UNL     1     -38.356  20.135   2.184  0.00  0.00    +0.211 HD
ENDBRANCH   6  21
BRANCH   9  23
ATOM     23  O   UNL     1     -33.729  20.285   1.138  0.00  0.00    -0.384 OA
ATOM     24  H   UNL     1     -33.202  19.930   0.406  0.00  0.00    +0.210 HD
ENDBRANCH   9  23
BRANCH   6  26
ATOM     25  O   UNL     1     -37.430  22.874   3.696  0.00  0.00    -0.290 OA
ATOM     26  C   UNL     1     -37.793  23.089   2.540  0.00  0.00    +0.218 C 
BRANCH  26  27
ATOM     27  C   UNL     1     -38.075  24.484   2.025  0.00  0.00    +0.274 C 
BRANCH  27  28
ATOM     28  O   UNL     1     -37.858  25.444   3.038  0.00  0.00    -0.442 OA
BRANCH  28  30
ATOM     29  O   UNL     1     -37.229  27.331   1.875  0.00  0.00    -0.252 OA
ATOM     30  C   UNL     1     -37.006  26.478   2.724  0.00  0.00    +0.297 C 
BRANCH  30  31
ATOM     31  C   UNL     1     -35.751  26.392   3.576  0.00  0.00    +0.036 C 
BRANCH  31  32
ATOM     32  N   UNL     1     -35.188  27.737   3.700  0.00  0.00    +0.389 N 
ATOM     33  H   UNL     1     -35.219  28.028   4.677  0.00  0.00    -0.088 HD
ATOM     34  H   UNL     1     -35.734  28.386   3.133  0.00  0.00    -0.088 HD
ATOM     35  H   UNL     1     -34.221  27.731   3.376  0.00  0.00    -0.088 HD
ENDBRANCH  31  32
BRANCH  31  36
ATOM     36  C   UNL     1     -36.027  25.769   4.953  0.00  0.00    -0.011 C 
BRANCH  36  37
ATOM     37  C   UNL     1     -34.797  25.141   5.624  0.00  0.00    -0.004 C 
BRANCH  37  38
ATOM     38  C   UNL     1     -34.679  23.653   5.270  0.00  0.00    -0.024 C 
BRANCH  38  39
ATOM     39  C   UNL     1     -35.196  22.731   6.375  0.00  0.00    -0.086 C 
BRANCH  39  40
ATOM     40  N   UNL     1     -35.874  21.559   5.835  0.00  0.00    +0.380 N 
ATOM     41  H   UNL     1     -35.795  20.785   6.495  0.00  0.00    -0.089 HD
ATOM     42  H   UNL     1     -35.444  21.295   4.948  0.00  0.00    -0.089 HD
ATOM     43  H   UNL     1     -36.860  21.776   5.682  0.00  0.00    -0.089 HD
ENDBRANCH  39  40
ENDBRANCH  38  39
ENDBRANCH  37  38
ENDBRANCH  36  37
ENDBRANCH  31  36
ENDBRANCH  30  31
ENDBRANCH  28  30
ENDBRANCH  27  28
ENDBRANCH  26  27
ENDBRANCH   6  26
TORSDOF 13
ENDMDL
