MODEL 1
REMARK VINA RESULT:      -6.4      0.000      0.000
REMARK  Name = 5316860
REMARK  12 active torsions:
REMARK  status: ('A' for Active; 'I' for Inactive)
REMARK    1  A    between atoms: O_1  and  C_7
REMARK    2  A    between atoms: O_1  and  C_17
REMARK    3  A    between atoms: C_3  and  O_8
REMARK    4  A    between atoms: C_4  and  O_10
REMARK    5  A    between atoms: C_5  and  O_12
REMARK    6  A    between atoms: C_6  and  C_14
REMARK    7  A    between atoms: C_14  and  O_15
REMARK    8  A    between atoms: C_18  and  O_23
REMARK    9  A    between atoms: C_19  and  O_25
REMARK   10  A    between atoms: C_22  and  C_27
REMARK   11  A    between atoms: C_28  and  C_29
REMARK   12  A    between atoms: C_29  and  O_30
REMARK                            x       y       z     vdW  Elec       q    Type
REMARK                         _______ _______ _______ _____ _____    ______ ____
ROOT
ATOM      1  O   UNL     1     -35.838  22.601   2.899  0.00  0.00    -0.444 OA
ENDROOT
BRANCH   1   7
ATOM      2  O   UNL     1     -37.613  24.104   2.728  0.00  0.00    -0.316 OA
ATOM      3  C   UNL     1     -39.366  22.053   1.742  0.00  0.00    +0.173 C 
ATOM      4  C   UNL     1     -39.880  23.411   2.220  0.00  0.00    +0.169 C 
ATOM      5  C   UNL     1     -37.997  21.737   2.345  0.00  0.00    +0.210 C 
ATOM      6  C   UNL     1     -38.808  24.490   2.046  0.00  0.00    +0.177 C 
ATOM      7  C   UNL     1     -37.037  22.916   2.192  0.00  0.00    +0.318 C 
BRANCH   3   8
ATOM      8  O   UNL     1     -40.307  21.058   2.148  0.00  0.00    -0.379 OA
ATOM      9  H   UNL     1     -40.048  20.198   1.781  0.00  0.00    +0.211 HD
ENDBRANCH   3   8
BRANCH   4  10
ATOM     10  O   UNL     1     -41.035  23.770   1.466  0.00  0.00    -0.379 OA
ATOM     11  H   UNL     1     -40.830  24.532   0.903  0.00  0.00    +0.211 HD
ENDBRANCH   4  10
BRANCH   5  12
ATOM     12  O   UNL     1     -37.433  20.611   1.673  0.00  0.00    -0.377 OA
ATOM     13  H   UNL     1     -36.557  20.419   2.044  0.00  0.00    +0.211 HD
ENDBRANCH   5  12
BRANCH   6  14
ATOM     14  C   UNL     1     -39.255  25.829   2.623  0.00  0.00    +0.169 C 
BRANCH  14  15
ATOM     15  O   UNL     1     -38.247  26.302   3.499  0.00  0.00    -0.379 OA
ATOM     16  H   UNL     1     -38.083  25.642   4.190  0.00  0.00    +0.211 HD
ENDBRANCH  14  15
ENDBRANCH   6  14
ENDBRANCH   1   7
BRANCH   1  17
ATOM     17  C   UNL     1     -35.230  23.630   3.564  0.00  0.00    +0.209 C 
ATOM     18  C   UNL     1     -34.443  24.540   2.862  0.00  0.00    +0.176 C 
ATOM     19  C   UNL     1     -35.402  23.764   4.940  0.00  0.00    +0.176 C 
ATOM     20  C   UNL     1     -33.824  25.590   3.540  0.00  0.00    +0.040 C 
ATOM     21  C   UNL     1     -34.783  24.815   5.618  0.00  0.00    +0.040 C 
ATOM     22  C   UNL     1     -33.994  25.728   4.918  0.00  0.00    +0.006 C 
BRANCH  18  23
ATOM     23  O   UNL     1     -34.269  24.417   1.517  0.00  0.00    -0.468 OA
ATOM     24  C   UNL     1     -34.757  25.480   0.701  0.00  0.00    +0.253 C 
ENDBRANCH  18  23
BRANCH  19  25
ATOM     25  O   UNL     1     -36.170  22.880   5.635  0.00  0.00    -0.468 OA
ATOM     26  C   UNL     1     -35.488  21.855   6.355  0.00  0.00    +0.253 C 
ENDBRANCH  19  25
BRANCH  22  27
ATOM     27  C   UNL     1     -33.350  26.823   5.625  0.00  0.00    -0.002 C 
ATOM     28  C   UNL     1     -32.556  27.767   5.070  0.00  0.00    +0.005 C 
BRANCH  28  29
ATOM     29  C   UNL     1     -31.928  28.887   5.836  0.00  0.00    +0.163 C 
BRANCH  29  30
ATOM     30  O   UNL     1     -31.995  28.583   7.223  0.00  0.00    -0.377 OA
ATOM     31  H   UNL     1     -32.258  29.378   7.715  0.00  0.00    +0.211 HD
ENDBRANCH  29  30
ENDBRANCH  28  29
ENDBRANCH  22  27
ENDBRANCH   1  17
TORSDOF 12
ENDMDL
MODEL 2
REMARK VINA RESULT:      -6.4      0.403      2.527
REMARK  Name = 5316860
REMARK  12 active torsions:
REMARK  status: ('A' for Active; 'I' for Inactive)
REMARK    1  A    between atoms: O_1  and  C_7
REMARK    2  A    between atoms: O_1  and  C_17
REMARK    3  A    between atoms: C_3  and  O_8
REMARK    4  A    between atoms: C_4  and  O_10
REMARK    5  A    between atoms: C_5  and  O_12
REMARK    6  A    between atoms: C_6  and  C_14
REMARK    7  A    between atoms: C_14  and  O_15
REMARK    8  A    between atoms: C_18  and  O_23
REMARK    9  A    between atoms: C_19  and  O_25
REMARK   10  A    between atoms: C_22  and  C_27
REMARK   11  A    between atoms: C_28  and  C_29
REMARK   12  A    between atoms: C_29  and  O_30
REMARK                            x       y       z     vdW  Elec       q    Type
REMARK                         _______ _______ _______ _____ _____    ______ ____
ROOT
ATOM      1  O   UNL     1     -35.806  22.593   2.785  0.00  0.00    -0.444 OA
ENDROOT
BRANCH   1   7
ATOM      2  O   UNL     1     -37.598  24.081   2.668  0.00  0.00    -0.316 OA
ATOM      3  C   UNL     1     -39.360  22.018   1.724  0.00  0.00    +0.173 C 
ATOM      4  C   UNL     1     -39.873  23.371   2.220  0.00  0.00    +0.169 C 
ATOM      5  C   UNL     1     -37.973  21.712   2.288  0.00  0.00    +0.210 C 
ATOM      6  C   UNL     1     -38.815  24.458   2.020  0.00  0.00    +0.177 C 
ATOM      7  C   UNL     1     -37.027  22.900   2.113  0.00  0.00    +0.318 C 
BRANCH   3   8
ATOM      8  O   UNL     1     -40.281  21.014   2.154  0.00  0.00    -0.379 OA
ATOM      9  H   UNL     1     -40.456  21.119   3.102  0.00  0.00    +0.211 HD
ENDBRANCH   3   8
BRANCH   4  10
ATOM     10  O   UNL     1     -41.051  23.722   1.499  0.00  0.00    -0.379 OA
ATOM     11  H   UNL     1     -41.050  23.273   0.640  0.00  0.00    +0.211 HD
ENDBRANCH   4  10
BRANCH   5  12
ATOM     12  O   UNL     1     -37.418  20.592   1.598  0.00  0.00    -0.377 OA
ATOM     13  H   UNL     1     -37.509  20.726   0.641  0.00  0.00    +0.211 HD
ENDBRANCH   5  12
BRANCH   6  14
ATOM     14  C   UNL     1     -39.257  25.792   2.613  0.00  0.00    +0.169 C 
BRANCH  14  15
ATOM     15  O   UNL     1     -40.095  25.536   3.725  0.00  0.00    -0.379 OA
ATOM     16  H   UNL     1     -40.540  26.357   3.990  0.00  0.00    +0.211 HD
ENDBRANCH  14  15
ENDBRANCH   6  14
ENDBRANCH   1   7
BRANCH   1  17
ATOM     17  C   UNL     1     -35.216  23.613   3.479  0.00  0.00    +0.209 C 
ATOM     18  C   UNL     1     -35.404  23.716   4.855  0.00  0.00    +0.176 C 
ATOM     19  C   UNL     1     -34.428  24.544   2.805  0.00  0.00    +0.176 C 
ATOM     20  C   UNL     1     -34.800  24.756   5.563  0.00  0.00    +0.040 C 
ATOM     21  C   UNL     1     -33.825  25.584   3.513  0.00  0.00    +0.040 C 
ATOM     22  C   UNL     1     -34.011  25.690   4.892  0.00  0.00    +0.006 C 
BRANCH  18  23
ATOM     23  O   UNL     1     -36.172  22.810   5.522  0.00  0.00    -0.468 OA
ATOM     24  C   UNL     1     -35.498  21.911   6.400  0.00  0.00    +0.253 C 
ENDBRANCH  18  23
BRANCH  19  25
ATOM     25  O   UNL     1     -34.238  24.452   1.460  0.00  0.00    -0.468 OA
ATOM     26  C   UNL     1     -34.628  25.575   0.672  0.00  0.00    +0.253 C 
ENDBRANCH  19  25
BRANCH  22  27
ATOM     27  C   UNL     1     -33.381  26.774   5.628  0.00  0.00    -0.002 C 
ATOM     28  C   UNL     1     -32.555  27.710   5.108  0.00  0.00    +0.005 C 
BRANCH  28  29
ATOM     29  C   UNL     1     -31.942  28.818   5.903  0.00  0.00    +0.163 C 
BRANCH  29  30
ATOM     30  O   UNL     1     -32.022  28.486   7.283  0.00  0.00    -0.377 OA
ATOM     31  H   UNL     1     -32.953  28.407   7.543  0.00  0.00    +0.211 HD
ENDBRANCH  29  30
ENDBRANCH  28  29
ENDBRANCH  22  27
ENDBRANCH   1  17
TORSDOF 12
ENDMDL
MODEL 3
REMARK VINA RESULT:      -6.0      1.992      3.391
REMARK  Name = 5316860
REMARK  12 active torsions:
REMARK  status: ('A' for Active; 'I' for Inactive)
REMARK    1  A    between atoms: O_1  and  C_7
REMARK    2  A    between atoms: O_1  and  C_17
REMARK    3  A    between atoms: C_3  and  O_8
REMARK    4  A    between atoms: C_4  and  O_10
REMARK    5  A    between atoms: C_5  and  O_12
REMARK    6  A    between atoms: C_6  and  C_14
REMARK    7  A    between atoms: C_14  and  O_15
REMARK    8  A    between atoms: C_18  and  O_23
REMARK    9  A    between atoms: C_19  and  O_25
REMARK   10  A    between atoms: C_22  and  C_27
REMARK   11  A    between atoms: C_28  and  C_29
REMARK   12  A    between atoms: C_29  and  O_30
REMARK                            x       y       z     vdW  Elec       q    Type
REMARK                         _______ _______ _______ _____ _____    ______ ____
ROOT
ATOM      1  O   UNL     1     -37.458  23.030   3.375  0.00  0.00    -0.444 OA
ENDROOT
BRANCH   1   7
ATOM      2  O   UNL     1     -37.799  23.312   1.085  0.00  0.00    -0.316 OA
ATOM      3  C   UNL     1     -37.176  20.557   0.566  0.00  0.00    +0.173 C 
ATOM      4  C   UNL     1     -37.829  21.461  -0.480  0.00  0.00    +0.169 C 
ATOM      5  C   UNL     1     -37.410  21.089   1.979  0.00  0.00    +0.210 C 
ATOM      6  C   UNL     1     -37.450  22.925  -0.245  0.00  0.00    +0.177 C 
ATOM      7  C   UNL     1     -37.082  22.579   2.074  0.00  0.00    +0.318 C 
BRANCH   3   8
ATOM      8  O   UNL     1     -37.753  19.256   0.445  0.00  0.00    -0.379 OA
ATOM      9  H   UNL     1     -37.137  18.595   0.798  0.00  0.00    +0.211 HD
ENDBRANCH   3   8
BRANCH   4  10
ATOM     10  O   UNL     1     -37.400  21.066  -1.780  0.00  0.00    -0.379 OA
ATOM     11  H   UNL     1     -36.834  20.281  -1.709  0.00  0.00    +0.211 HD
ENDBRANCH   4  10
BRANCH   5  12
ATOM     12  O   UNL     1     -36.567  20.387   2.894  0.00  0.00    -0.377 OA
ATOM     13  H   UNL     1     -37.110  19.810   3.454  0.00  0.00    +0.211 HD
ENDBRANCH   5  12
BRANCH   6  14
ATOM     14  C   UNL     1     -38.182  23.859  -1.204  0.00  0.00    +0.169 C 
BRANCH  14  15
ATOM     15  O   UNL     1     -37.449  23.929  -2.414  0.00  0.00    -0.379 OA
ATOM     16  H   UNL     1     -37.830  23.313  -3.059  0.00  0.00    +0.211 HD
ENDBRANCH  14  15
ENDBRANCH   6  14
ENDBRANCH   1   7
BRANCH   1  17
ATOM     17  C   UNL     1     -36.573  23.851   4.018  0.00  0.00    +0.209 C 
ATOM     18  C   UNL     1     -35.494  23.303   4.707  0.00  0.00    +0.176 C 
ATOM     19  C   UNL     1     -36.755  25.232   3.980  0.00  0.00    +0.176 C 
ATOM     20  C   UNL     1     -34.591  24.140   5.362  0.00  0.00    +0.040 C 
ATOM     21  C   UNL     1     -35.852  26.069   4.635  0.00  0.00    +0.040 C 
ATOM     22  C   UNL     1     -34.770  25.523   5.326  0.00  0.00    +0.006 C 
BRANCH  18  23
ATOM     23  O   UNL     1     -35.308  21.954   4.749  0.00  0.00    -0.468 OA
ATOM     24  C   UNL     1     -35.206  21.354   6.038  0.00  0.00    +0.253 C 
ENDBRANCH  18  23
BRANCH  19  25
ATOM     25  O   UNL     1     -37.808  25.777   3.309  0.00  0.00    -0.468 OA
ATOM     26  C   UNL     1     -37.507  26.542   2.144  0.00  0.00    +0.253 C 
ENDBRANCH  19  25
BRANCH  22  27
ATOM     27  C   UNL     1     -33.828  26.397   6.008  0.00  0.00    -0.002 C 
ATOM     28  C   UNL     1     -32.981  27.267   5.412  0.00  0.00    +0.005 C 
BRANCH  28  29
ATOM     29  C   UNL     1     -32.041  28.159   6.157  0.00  0.00    +0.163 C 
BRANCH  29  30
ATOM     30  O   UNL     1     -31.098  27.352   6.848  0.00  0.00    -0.377 OA
ATOM     31  H   UNL     1     -30.481  27.921   7.336  0.00  0.00    +0.211 HD
ENDBRANCH  29  30
ENDBRANCH  28  29
ENDBRANCH  22  27
ENDBRANCH   1  17
TORSDOF 12
ENDMDL
MODEL 4
REMARK VINA RESULT:      -6.0      2.053      3.077
REMARK  Name = 5316860
REMARK  12 active torsions:
REMARK  status: ('A' for Active; 'I' for Inactive)
REMARK    1  A    between atoms: O_1  and  C_7
REMARK    2  A    between atoms: O_1  and  C_17
REMARK    3  A    between atoms: C_3  and  O_8
REMARK    4  A    between atoms: C_4  and  O_10
REMARK    5  A    between atoms: C_5  and  O_12
REMARK    6  A    between atoms: C_6  and  C_14
REMARK    7  A    between atoms: C_14  and  O_15
REMARK    8  A    between atoms: C_18  and  O_23
REMARK    9  A    between atoms: C_19  and  O_25
REMARK   10  A    between atoms: C_22  and  C_27
REMARK   11  A    between atoms: C_28  and  C_29
REMARK   12  A    between atoms: C_29  and  O_30
REMARK                            x       y       z     vdW  Elec       q    Type
REMARK                         _______ _______ _______ _____ _____    ______ ____
ROOT
ATOM      1  O   UNL     1     -37.008  23.259   2.959  0.00  0.00    -0.444 OA
ENDROOT
BRANCH   1   7
ATOM      2  O   UNL     1     -36.814  22.970   0.652  0.00  0.00    -0.316 OA
ATOM      3  C   UNL     1     -36.283  20.164   0.964  0.00  0.00    +0.173 C 
ATOM      4  C   UNL     1     -36.625  20.789  -0.389  0.00  0.00    +0.169 C 
ATOM      5  C   UNL     1     -36.786  21.033   2.117  0.00  0.00    +0.210 C 
ATOM      6  C   UNL     1     -36.207  22.260  -0.429  0.00  0.00    +0.177 C 
ATOM      7  C   UNL     1     -36.386  22.496   1.926  0.00  0.00    +0.318 C 
BRANCH   3   8
ATOM      8  O   UNL     1     -36.906  18.881   1.027  0.00  0.00    -0.379 OA
ATOM      9  H   UNL     1     -36.620  18.420   1.832  0.00  0.00    +0.211 HD
ENDBRANCH   3   8
BRANCH   4  10
ATOM     10  O   UNL     1     -35.946  20.078  -1.422  0.00  0.00    -0.379 OA
ATOM     11  H   UNL     1     -35.484  19.316  -1.039  0.00  0.00    +0.211 HD
ENDBRANCH   4  10
BRANCH   5  12
ATOM     12  O   UNL     1     -36.217  20.569   3.342  0.00  0.00    -0.377 OA
ATOM     13  H   UNL     1     -36.922  20.433   3.994  0.00  0.00    +0.211 HD
ENDBRANCH   5  12
BRANCH   6  14
ATOM     14  C   UNL     1     -36.643  22.937  -1.725  0.00  0.00    +0.169 C 
BRANCH  14  15
ATOM     15  O   UNL     1     -37.772  22.251  -2.234  0.00  0.00    -0.379 OA
ATOM     16  H   UNL     1     -38.581  22.705  -1.951  0.00  0.00    +0.211 HD
ENDBRANCH  14  15
ENDBRANCH   6  14
ENDBRANCH   1   7
BRANCH   1  17
ATOM     17  C   UNL     1     -36.192  24.071   3.698  0.00  0.00    +0.209 C 
ATOM     18  C   UNL     1     -35.818  25.317   3.200  0.00  0.00    +0.176 C 
ATOM     19  C   UNL     1     -35.738  23.647   4.945  0.00  0.00    +0.176 C 
ATOM     20  C   UNL     1     -34.986  26.145   3.954  0.00  0.00    +0.040 C 
ATOM     21  C   UNL     1     -34.907  24.475   5.699  0.00  0.00    +0.040 C 
ATOM     22  C   UNL     1     -34.531  25.724   5.203  0.00  0.00    +0.006 C 
BRANCH  18  23
ATOM     23  O   UNL     1     -36.257  25.739   1.981  0.00  0.00    -0.468 OA
ATOM     24  C   UNL     1     -37.356  26.648   1.968  0.00  0.00    +0.253 C 
ENDBRANCH  18  23
BRANCH  19  25
ATOM     25  O   UNL     1     -36.098  22.430   5.440  0.00  0.00    -0.468 OA
ATOM     26  C   UNL     1     -35.174  21.788   6.316  0.00  0.00    +0.253 C 
ENDBRANCH  19  25
BRANCH  22  27
ATOM     27  C   UNL     1     -33.664  26.587   5.991  0.00  0.00    -0.002 C 
ATOM     28  C   UNL     1     -32.740  27.444   5.499  0.00  0.00    +0.005 C 
BRANCH  28  29
ATOM     29  C   UNL     1     -31.883  28.325   6.349  0.00  0.00    +0.163 C 
BRANCH  29  30
ATOM     30  O   UNL     1     -30.676  27.637   6.646  0.00  0.00    -0.377 OA
ATOM     31  H   UNL     1     -30.747  26.715   6.348  0.00  0.00    +0.211 HD
ENDBRANCH  29  30
ENDBRANCH  28  29
ENDBRANCH  22  27
ENDBRANCH   1  17
TORSDOF 12
ENDMDL
MODEL 5
REMARK VINA RESULT:      -5.8      2.376      3.952
REMARK  Name = 5316860
REMARK  12 active torsions:
REMARK  status: ('A' for Active; 'I' for Inactive)
REMARK    1  A    between atoms: O_1  and  C_7
REMARK    2  A    between atoms: O_1  and  C_17
REMARK    3  A    between atoms: C_3  and  O_8
REMARK    4  A    between atoms: C_4  and  O_10
REMARK    5  A    between atoms: C_5  and  O_12
REMARK    6  A    between atoms: C_6  and  C_14
REMARK    7  A    between atoms: C_14  and  O_15
REMARK    8  A    between atoms: C_18  and  O_23
REMARK    9  A    between atoms: C_19  and  O_25
REMARK   10  A    between atoms: C_22  and  C_27
REMARK   11  A    between atoms: C_28  and  C_29
REMARK   12  A    between atoms: C_29  and  O_30
REMARK                            x       y       z     vdW  Elec       q    Type
REMARK                         _______ _______ _______ _____ _____    ______ ____
ROOT
ATOM      1  O   UNL     1     -35.977  23.183   2.134  0.00  0.00    -0.444 OA
ENDROOT
BRANCH   1   7
ATOM      2  O   UNL     1     -34.407  21.739   1.190  0.00  0.00    -0.316 OA
ATOM      3  C   UNL     1     -36.205  19.509   1.401  0.00  0.00    +0.173 C 
ATOM      4  C   UNL     1     -34.928  19.457   0.561  0.00  0.00    +0.169 C 
ATOM      5  C   UNL     1     -36.663  20.951   1.621  0.00  0.00    +0.210 C 
ATOM      6  C   UNL     1     -33.873  20.416   1.117  0.00  0.00    +0.177 C 
ATOM      7  C   UNL     1     -35.508  21.836   2.089  0.00  0.00    +0.318 C 
BRANCH   3   8
ATOM      8  O   UNL     1     -37.221  18.788   0.703  0.00  0.00    -0.379 OA
ATOM      9  H   UNL     1     -37.888  19.408   0.370  0.00  0.00    +0.211 HD
ENDBRANCH   3   8
BRANCH   4  10
ATOM     10  O   UNL     1     -34.410  18.129   0.573  0.00  0.00    -0.379 OA
ATOM     11  H   UNL     1     -35.087  17.521   0.908  0.00  0.00    +0.211 HD
ENDBRANCH   4  10
BRANCH   5  12
ATOM     12  O   UNL     1     -37.680  20.976   2.622  0.00  0.00    -0.377 OA
ATOM     13  H   UNL     1     -37.710  20.118   3.074  0.00  0.00    +0.211 HD
ENDBRANCH   5  12
BRANCH   6  14
ATOM     14  C   UNL     1     -32.634  20.469   0.229  0.00  0.00    +0.169 C 
BRANCH  14  15
ATOM     15  O   UNL     1     -31.742  19.447   0.638  0.00  0.00    -0.379 OA
ATOM     16  H   UNL     1     -30.911  19.846   0.941  0.00  0.00    +0.211 HD
ENDBRANCH  14  15
ENDBRANCH   6  14
ENDBRANCH   1   7
BRANCH   1  17
ATOM     17  C   UNL     1     -35.356  24.018   3.022  0.00  0.00    +0.209 C 
ATOM     18  C   UNL     1     -34.604  25.093   2.553  0.00  0.00    +0.176 C 
ATOM     19  C   UNL     1     -35.481  23.791   4.391  0.00  0.00    +0.176 C 
ATOM     20  C   UNL     1     -33.972  25.945   3.459  0.00  0.00    +0.040 C 
ATOM     21  C   UNL     1     -34.849  24.643   5.296  0.00  0.00    +0.040 C 
ATOM     22  C   UNL     1     -34.095  25.721   4.830  0.00  0.00    +0.006 C 
BRANCH  18  23
ATOM     23  O   UNL     1     -34.478  25.323   1.216  0.00  0.00    -0.468 OA
ATOM     24  C   UNL     1     -33.988  26.603   0.823  0.00  0.00    +0.253 C 
ENDBRANCH  18  23
BRANCH  19  25
ATOM     25  O   UNL     1     -36.214  22.743   4.858  0.00  0.00    -0.468 OA
ATOM     26  C   UNL     1     -35.622  21.941   5.879  0.00  0.00    +0.253 C 
ENDBRANCH  19  25
BRANCH  22  27
ATOM     27  C   UNL     1     -33.438  26.610   5.775  0.00  0.00    -0.002 C 
ATOM     28  C   UNL     1     -32.571  27.600   5.460  0.00  0.00    +0.005 C 
BRANCH  28  29
ATOM     29  C   UNL     1     -31.932  28.502   6.467  0.00  0.00    +0.163 C 
BRANCH  29  30
ATOM     30  O   UNL     1     -32.221  29.849   6.120  0.00  0.00    -0.377 OA
ATOM     31  H   UNL     1     -31.813  30.444   6.769  0.00  0.00    +0.211 HD
ENDBRANCH  29  30
ENDBRANCH  28  29
ENDBRANCH  22  27
ENDBRANCH   1  17
TORSDOF 12
ENDMDL
MODEL 6
REMARK VINA RESULT:      -5.7      2.611      7.919
REMARK  Name = 5316860
REMARK  12 active torsions:
REMARK  status: ('A' for Active; 'I' for Inactive)
REMARK    1  A    between atoms: O_1  and  C_7
REMARK    2  A    between atoms: O_1  and  C_17
REMARK    3  A    between atoms: C_3  and  O_8
REMARK    4  A    between atoms: C_4  and  O_10
REMARK    5  A    between atoms: C_5  and  O_12
REMARK    6  A    between atoms: C_6  and  C_14
REMARK    7  A    between atoms: C_14  and  O_15
REMARK    8  A    between atoms: C_18  and  O_23
REMARK    9  A    between atoms: C_19  and  O_25
REMARK   10  A    between atoms: C_22  and  C_27
REMARK   11  A    between atoms: C_28  and  C_29
REMARK   12  A    between atoms: C_29  and  O_30
REMARK                            x       y       z     vdW  Elec       q    Type
REMARK                         _______ _______ _______ _____ _____    ______ ____
ROOT
ATOM      1  O   UNL     1     -38.904  24.532   3.795  0.00  0.00    -0.444 OA
ENDROOT
BRANCH   1   7
ATOM      2  O   UNL     1     -36.890  23.708   4.635  0.00  0.00    -0.316 OA
ATOM      3  C   UNL     1     -35.492  26.094   3.861  0.00  0.00    +0.173 C 
ATOM      4  C   UNL     1     -34.884  25.058   4.806  0.00  0.00    +0.169 C 
ATOM      5  C   UNL     1     -37.017  26.001   3.845  0.00  0.00    +0.210 C 
ATOM      6  C   UNL     1     -35.466  23.668   4.535  0.00  0.00    +0.177 C 
ATOM      7  C   UNL     1     -37.484  24.557   3.657  0.00  0.00    +0.318 C 
BRANCH   3   8
ATOM      8  O   UNL     1     -35.099  27.390   4.316  0.00  0.00    -0.379 OA
ATOM      9  H   UNL     1     -35.344  28.054   3.653  0.00  0.00    +0.211 HD
ENDBRANCH   3   8
BRANCH   4  10
ATOM     10  O   UNL     1     -33.471  25.021   4.621  0.00  0.00    -0.379 OA
ATOM     11  H   UNL     1     -33.032  25.347   5.421  0.00  0.00    +0.211 HD
ENDBRANCH   4  10
BRANCH   5  12
ATOM     12  O   UNL     1     -37.528  26.780   2.763  0.00  0.00    -0.377 OA
ATOM     13  H   UNL     1     -38.458  26.548   2.609  0.00  0.00    +0.211 HD
ENDBRANCH   5  12
BRANCH   6  14
ATOM     14  C   UNL     1     -34.962  22.639   5.541  0.00  0.00    +0.169 C 
BRANCH  14  15
ATOM     15  O   UNL     1     -36.080  22.044   6.176  0.00  0.00    -0.379 OA
ATOM     16  H   UNL     1     -36.535  21.459   5.549  0.00  0.00    +0.211 HD
ENDBRANCH  14  15
ENDBRANCH   6  14
ENDBRANCH   1   7
BRANCH   1  17
ATOM     17  C   UNL     1     -39.627  24.331   2.652  0.00  0.00    +0.209 C 
ATOM     18  C   UNL     1     -40.449  25.344   2.163  0.00  0.00    +0.176 C 
ATOM     19  C   UNL     1     -39.539  23.113   1.981  0.00  0.00    +0.176 C 
ATOM     20  C   UNL     1     -41.186  25.139   0.997  0.00  0.00    +0.040 C 
ATOM     21  C   UNL     1     -40.276  22.907   0.815  0.00  0.00    +0.040 C 
ATOM     22  C   UNL     1     -41.099  23.921   0.323  0.00  0.00    +0.006 C 
BRANCH  18  23
ATOM     23  O   UNL     1     -40.541  26.538   2.812  0.00  0.00    -0.468 OA
ATOM     24  C   UNL     1     -41.680  26.735   3.648  0.00  0.00    +0.253 C 
ENDBRANCH  18  23
BRANCH  19  25
ATOM     25  O   UNL     1     -38.739  22.116   2.451  0.00  0.00    -0.468 OA
ATOM     26  C   UNL     1     -38.046  21.330   1.484  0.00  0.00    +0.253 C 
ENDBRANCH  19  25
BRANCH  22  27
ATOM     27  C   UNL     1     -41.866  23.706  -0.894  0.00  0.00    -0.002 C 
ATOM     28  C   UNL     1     -42.602  22.609  -1.184  0.00  0.00    +0.005 C 
BRANCH  28  29
ATOM     29  C   UNL     1     -43.389  22.439  -2.444  0.00  0.00    +0.163 C 
BRANCH  29  30
ATOM     30  O   UNL     1     -44.766  22.340  -2.110  0.00  0.00    -0.377 OA
ATOM     31  H   UNL     1     -45.274  22.979  -2.637  0.00  0.00    +0.211 HD
ENDBRANCH  29  30
ENDBRANCH  28  29
ENDBRANCH  22  27
ENDBRANCH   1  17
TORSDOF 12
ENDMDL
MODEL 7
REMARK VINA RESULT:      -5.6      2.813      6.502
REMARK  Name = 5316860
REMARK  12 active torsions:
REMARK  status: ('A' for Active; 'I' for Inactive)
REMARK    1  A    between atoms: O_1  and  C_7
REMARK    2  A    between atoms: O_1  and  C_17
REMARK    3  A    between atoms: C_3  and  O_8
REMARK    4  A    between atoms: C_4  and  O_10
REMARK    5  A    between atoms: C_5  and  O_12
REMARK    6  A    between atoms: C_6  and  C_14
REMARK    7  A    between atoms: C_14  and  O_15
REMARK    8  A    between atoms: C_18  and  O_23
REMARK    9  A    between atoms: C_19  and  O_25
REMARK   10  A    between atoms: C_22  and  C_27
REMARK   11  A    between atoms: C_28  and  C_29
REMARK   12  A    between atoms: C_29  and  O_30
REMARK                            x       y       z     vdW  Elec       q    Type
REMARK                         _______ _______ _______ _____ _____    ______ ____
ROOT
ATOM      1  O   UNL     1     -36.782  24.636   3.307  0.00  0.00    -0.444 OA
ENDROOT
BRANCH   1   7
ATOM      2  O   UNL     1     -34.674  25.376   2.634  0.00  0.00    -0.316 OA
ATOM      3  C   UNL     1     -34.281  26.776   5.110  0.00  0.00    +0.173 C 
ATOM      4  C   UNL     1     -33.141  26.516   4.125  0.00  0.00    +0.169 C 
ATOM      5  C   UNL     1     -35.424  25.783   4.907  0.00  0.00    +0.210 C 
ATOM      6  C   UNL     1     -33.675  26.395   2.696  0.00  0.00    +0.177 C 
ATOM      7  C   UNL     1     -35.815  25.678   3.433  0.00  0.00    +0.318 C 
BRANCH   3   8
ATOM      8  O   UNL     1     -33.760  26.638   6.433  0.00  0.00    -0.379 OA
ATOM      9  H   UNL     1     -34.056  27.385   6.977  0.00  0.00    +0.211 HD
ENDBRANCH   3   8
BRANCH   4  10
ATOM     10  O   UNL     1     -32.207  27.591   4.190  0.00  0.00    -0.379 OA
ATOM     11  H   UNL     1     -32.649  28.382   4.534  0.00  0.00    +0.211 HD
ENDBRANCH   4  10
BRANCH   5  12
ATOM     12  O   UNL     1     -36.568  26.220   5.642  0.00  0.00    -0.377 OA
ATOM     13  H   UNL     1     -37.104  25.451   5.892  0.00  0.00    +0.211 HD
ENDBRANCH   5  12
BRANCH   6  14
ATOM     14  C   UNL     1     -32.573  26.019   1.711  0.00  0.00    +0.169 C 
BRANCH  14  15
ATOM     15  O   UNL     1     -31.404  25.697   2.443  0.00  0.00    -0.379 OA
ATOM     16  H   UNL     1     -31.573  24.918   2.995  0.00  0.00    +0.211 HD
ENDBRANCH  14  15
ENDBRANCH   6  14
ENDBRANCH   1   7
BRANCH   1  17
ATOM     17  C   UNL     1     -36.325  23.427   2.859  0.00  0.00    +0.209 C 
ATOM     18  C   UNL     1     -36.243  23.181   1.490  0.00  0.00    +0.176 C 
ATOM     19  C   UNL     1     -35.943  22.448   3.773  0.00  0.00    +0.176 C 
ATOM     20  C   UNL     1     -35.776  21.949   1.033  0.00  0.00    +0.040 C 
ATOM     21  C   UNL     1     -35.477  21.216   3.317  0.00  0.00    +0.040 C 
ATOM     22  C   UNL     1     -35.393  20.966   1.946  0.00  0.00    +0.006 C 
BRANCH  18  23
ATOM     23  O   UNL     1     -36.613  24.133   0.589  0.00  0.00    -0.468 OA
ATOM     24  C   UNL     1     -37.857  23.941  -0.082  0.00  0.00    +0.253 C 
ENDBRANCH  18  23
BRANCH  19  25
ATOM     25  O   UNL     1     -36.021  22.679   5.113  0.00  0.00    -0.468 OA
ATOM     26  C   UNL     1     -35.257  21.826   5.964  0.00  0.00    +0.253 C 
ENDBRANCH  19  25
BRANCH  22  27
ATOM     27  C   UNL     1     -34.905  19.681   1.471  0.00  0.00    -0.002 C 
ATOM     28  C   UNL     1     -33.613  19.280   1.457  0.00  0.00    +0.005 C 
BRANCH  28  29
ATOM     29  C   UNL     1     -33.160  17.940   0.973  0.00  0.00    +0.163 C 
BRANCH  29  30
ATOM     30  O   UNL     1     -31.919  17.629   1.590  0.00  0.00    -0.377 OA
ATOM     31  H   UNL     1     -32.073  17.049   2.353  0.00  0.00    +0.211 HD
ENDBRANCH  29  30
ENDBRANCH  28  29
ENDBRANCH  22  27
ENDBRANCH   1  17
TORSDOF 12
ENDMDL
MODEL 8
REMARK VINA RESULT:      -5.6      2.447      4.665
REMARK  Name = 5316860
REMARK  12 active torsions:
REMARK  status: ('A' for Active; 'I' for Inactive)
REMARK    1  A    between atoms: O_1  and  C_7
REMARK    2  A    between atoms: O_1  and  C_17
REMARK    3  A    between atoms: C_3  and  O_8
REMARK    4  A    between atoms: C_4  and  O_10
REMARK    5  A    between atoms: C_5  and  O_12
REMARK    6  A    between atoms: C_6  and  C_14
REMARK    7  A    between atoms: C_14  and  O_15
REMARK    8  A    between atoms: C_18  and  O_23
REMARK    9  A    between atoms: C_19  and  O_25
REMARK   10  A    between atoms: C_22  and  C_27
REMARK   11  A    between atoms: C_28  and  C_29
REMARK   12  A    between atoms: C_29  and  O_30
REMARK                            x       y       z     vdW  Elec       q    Type
REMARK                         _______ _______ _______ _____ _____    ______ ____
ROOT
ATOM      1  O   UNL     1     -35.875  22.972   2.302  0.00  0.00    -0.444 OA
ENDROOT
BRANCH   1   7
ATOM      2  O   UNL     1     -34.344  22.156   0.743  0.00  0.00    -0.316 OA
ATOM      3  C   UNL     1     -35.274  19.464   1.113  0.00  0.00    +0.173 C 
ATOM      4  C   UNL     1     -34.369  19.866  -0.052  0.00  0.00    +0.169 C 
ATOM      5  C   UNL     1     -36.027  20.671   1.670  0.00  0.00    +0.210 C 
ATOM      6  C   UNL     1     -33.509  21.076   0.321  0.00  0.00    +0.177 C 
ATOM      7  C   UNL     1     -35.084  21.847   1.921  0.00  0.00    +0.318 C 
BRANCH   3   8
ATOM      8  O   UNL     1     -36.210  18.499   0.631  0.00  0.00    -0.379 OA
ATOM      9  H   UNL     1     -36.299  17.782   1.278  0.00  0.00    +0.211 HD
ENDBRANCH   3   8
BRANCH   4  10
ATOM     10  O   UNL     1     -33.520  18.771  -0.389  0.00  0.00    -0.379 OA
ATOM     11  H   UNL     1     -34.060  18.028  -0.699  0.00  0.00    +0.211 HD
ENDBRANCH   4  10
BRANCH   5  12
ATOM     12  O   UNL     1     -36.638  20.316   2.911  0.00  0.00    -0.377 OA
ATOM     13  H   UNL     1     -37.393  19.730   2.742  0.00  0.00    +0.211 HD
ENDBRANCH   5  12
BRANCH   6  14
ATOM     14  C   UNL     1     -32.683  21.569  -0.863  0.00  0.00    +0.169 C 
BRANCH  14  15
ATOM     15  O   UNL     1     -31.784  22.562  -0.404  0.00  0.00    -0.379 OA
ATOM     16  H   UNL     1     -31.035  22.628  -1.016  0.00  0.00    +0.211 HD
ENDBRANCH  14  15
ENDBRANCH   6  14
ENDBRANCH   1   7
BRANCH   1  17
ATOM     17  C   UNL     1     -35.308  23.851   3.183  0.00  0.00    +0.209 C 
ATOM     18  C   UNL     1     -35.390  23.609   4.552  0.00  0.00    +0.176 C 
ATOM     19  C   UNL     1     -34.650  24.983   2.707  0.00  0.00    +0.176 C 
ATOM     20  C   UNL     1     -34.810  24.505   5.451  0.00  0.00    +0.040 C 
ATOM     21  C   UNL     1     -34.070  25.878   3.606  0.00  0.00    +0.040 C 
ATOM     22  C   UNL     1     -34.151  25.639   4.978  0.00  0.00    +0.006 C 
BRANCH  18  23
ATOM     23  O   UNL     1     -36.031  22.505   5.027  0.00  0.00    -0.468 OA
ATOM     24  C   UNL     1     -35.426  21.827   6.125  0.00  0.00    +0.253 C 
ENDBRANCH  18  23
BRANCH  19  25
ATOM     25  O   UNL     1     -34.565  25.228   1.370  0.00  0.00    -0.468 OA
ATOM     26  C   UNL     1     -33.266  25.481   0.838  0.00  0.00    +0.253 C 
ENDBRANCH  19  25
BRANCH  22  27
ATOM     27  C   UNL     1     -33.545  26.573   5.915  0.00  0.00    -0.002 C 
ATOM     28  C   UNL     1     -32.616  27.508   5.612  0.00  0.00    +0.005 C 
BRANCH  28  29
ATOM     29  C   UNL     1     -32.033  28.459   6.607  0.00  0.00    +0.163 C 
BRANCH  29  30
ATOM     30  O   UNL     1     -32.185  29.783   6.115  0.00  0.00    -0.377 OA
ATOM     31  H   UNL     1     -32.707  29.766   5.296  0.00  0.00    +0.211 HD
ENDBRANCH  29  30
ENDBRANCH  28  29
ENDBRANCH  22  27
ENDBRANCH   1  17
TORSDOF 12
ENDMDL
MODEL 9
REMARK VINA RESULT:      -5.6      2.577      7.891
REMARK  Name = 5316860
REMARK  12 active torsions:
REMARK  status: ('A' for Active; 'I' for Inactive)
REMARK    1  A    between atoms: O_1  and  C_7
REMARK    2  A    between atoms: O_1  and  C_17
REMARK    3  A    between atoms: C_3  and  O_8
REMARK    4  A    between atoms: C_4  and  O_10
REMARK    5  A    between atoms: C_5  and  O_12
REMARK    6  A    between atoms: C_6  and  C_14
REMARK    7  A    between atoms: C_14  and  O_15
REMARK    8  A    between atoms: C_18  and  O_23
REMARK    9  A    between atoms: C_19  and  O_25
REMARK   10  A    between atoms: C_22  and  C_27
REMARK   11  A    between atoms: C_28  and  C_29
REMARK   12  A    between atoms: C_29  and  O_30
REMARK                            x       y       z     vdW  Elec       q    Type
REMARK                         _______ _______ _______ _____ _____    ______ ____
ROOT
ATOM      1  O   UNL     1     -38.917  24.507   3.773  0.00  0.00    -0.444 OA
ENDROOT
BRANCH   1   7
ATOM      2  O   UNL     1     -36.903  23.682   4.612  0.00  0.00    -0.316 OA
ATOM      3  C   UNL     1     -35.511  26.081   3.865  0.00  0.00    +0.173 C 
ATOM      4  C   UNL     1     -34.902  25.037   4.803  0.00  0.00    +0.169 C 
ATOM      5  C   UNL     1     -37.036  25.981   3.844  0.00  0.00    +0.210 C 
ATOM      6  C   UNL     1     -35.478  23.649   4.516  0.00  0.00    +0.177 C 
ATOM      7  C   UNL     1     -37.496  24.538   3.640  0.00  0.00    +0.318 C 
BRANCH   3   8
ATOM      8  O   UNL     1     -35.125  27.374   4.334  0.00  0.00    -0.379 OA
ATOM      9  H   UNL     1     -35.018  27.350   5.298  0.00  0.00    +0.211 HD
ENDBRANCH   3   8
BRANCH   4  10
ATOM     10  O   UNL     1     -33.489  25.008   4.622  0.00  0.00    -0.379 OA
ATOM     11  H   UNL     1     -33.056  24.879   5.480  0.00  0.00    +0.211 HD
ENDBRANCH   4  10
BRANCH   5  12
ATOM     12  O   UNL     1     -37.546  26.769   2.768  0.00  0.00    -0.377 OA
ATOM     13  H   UNL     1     -37.807  27.642   3.103  0.00  0.00    +0.211 HD
ENDBRANCH   5  12
BRANCH   6  14
ATOM     14  C   UNL     1     -34.974  22.611   5.515  0.00  0.00    +0.169 C 
BRANCH  14  15
ATOM     15  O   UNL     1     -36.089  22.046   6.180  0.00  0.00    -0.379 OA
ATOM     16  H   UNL     1     -36.867  22.609   6.044  0.00  0.00    +0.211 HD
ENDBRANCH  14  15
ENDBRANCH   6  14
ENDBRANCH   1   7
BRANCH   1  17
ATOM     17  C   UNL     1     -39.636  24.307   2.627  0.00  0.00    +0.209 C 
ATOM     18  C   UNL     1     -39.558  23.085   1.963  0.00  0.00    +0.176 C 
ATOM     19  C   UNL     1     -40.443  25.327   2.129  0.00  0.00    +0.176 C 
ATOM     20  C   UNL     1     -40.292  22.881   0.795  0.00  0.00    +0.040 C 
ATOM     21  C   UNL     1     -41.177  25.124   0.960  0.00  0.00    +0.040 C 
ATOM     22  C   UNL     1     -41.101  23.900   0.293  0.00  0.00    +0.006 C 
BRANCH  18  23
ATOM     23  O   UNL     1     -38.771  22.082   2.444  0.00  0.00    -0.468 OA
ATOM     24  C   UNL     1     -37.883  21.457   1.520  0.00  0.00    +0.253 C 
ENDBRANCH  18  23
BRANCH  19  25
ATOM     25  O   UNL     1     -40.526  26.526   2.770  0.00  0.00    -0.468 OA
ATOM     26  C   UNL     1     -41.652  26.729   3.622  0.00  0.00    +0.253 C 
ENDBRANCH  19  25
BRANCH  22  27
ATOM     27  C   UNL     1     -41.868  23.688  -0.925  0.00  0.00    -0.002 C 
ATOM     28  C   UNL     1     -41.929  22.537  -1.632  0.00  0.00    +0.005 C 
BRANCH  28  29
ATOM     29  C   UNL     1     -42.746  22.361  -2.871  0.00  0.00    +0.163 C 
BRANCH  29  30
ATOM     30  O   UNL     1     -44.092  22.711  -2.583  0.00  0.00    -0.377 OA
ATOM     31  H   UNL     1     -44.117  23.279  -1.796  0.00  0.00    +0.211 HD
ENDBRANCH  29  30
ENDBRANCH  28  29
ENDBRANCH  22  27
ENDBRANCH   1  17
TORSDOF 12
ENDMDL
