MODEL 1
REMARK VINA RESULT:      -6.6      0.000      0.000
REMARK  Name = 54682566
REMARK  10 active torsions:
REMARK  status: ('A' for Active; 'I' for Inactive)
REMARK    1  A    between atoms: C_1  and  C_16
REMARK    2  A    between atoms: C_2  and  C_29
REMARK    3  A    between atoms: C_3  and  O_10
REMARK    4  A    between atoms: C_4  and  O_12
REMARK    5  A    between atoms: C_5  and  C_8
REMARK    6  A    between atoms: C_6  and  O_14
REMARK    7  A    between atoms: C_16  and  C_19
REMARK    8  A    between atoms: C_20  and  O_25
REMARK    9  A    between atoms: C_22  and  C_27
REMARK   10  A    between atoms: C_29  and  C_30
REMARK                            x       y       z     vdW  Elec       q    Type
REMARK                         _______ _______ _______ _____ _____    ______ ____
ROOT
ATOM      1  C   UNL     1     -34.369  21.200   0.803  0.00  0.00    +0.050 A 
ATOM      2  C   UNL     1     -32.683  19.470   0.853  0.00  0.00    +0.049 A 
ATOM      3  C   UNL     1     -33.939  19.944   1.231  0.00  0.00    +0.132 A 
ATOM      4  C   UNL     1     -33.542  21.982  -0.004  0.00  0.00    +0.138 A 
ATOM      5  C   UNL     1     -32.286  21.507  -0.382  0.00  0.00    +0.102 A 
ATOM      6  C   UNL     1     -31.857  20.251   0.046  0.00  0.00    +0.138 A 
ENDROOT
BRANCH   5   8
ATOM      7  O   UNL     1     -30.779  23.283  -0.757  0.00  0.00    -0.291 OA
ATOM      8  C   UNL     1     -31.422  22.326  -1.226  0.00  0.00    +0.179 C 
ATOM      9  C   UNL     1     -31.293  22.020  -2.712  0.00  0.00    +0.077 C 
ENDBRANCH   5   8
BRANCH   3  10
ATOM     10  O   UNL     1     -34.749  19.179   2.020  0.00  0.00    -0.506 OA
ATOM     11  H   UNL     1     -34.567  19.094   2.935  0.00  0.00    +0.292 HD
ENDBRANCH   3  10
BRANCH   4  12
ATOM     12  O   UNL     1     -33.965  23.210  -0.421  0.00  0.00    -0.506 OA
ATOM     13  H   UNL     1     -34.767  23.566  -0.091  0.00  0.00    +0.292 HD
ENDBRANCH   4  12
BRANCH   6  14
ATOM     14  O   UNL     1     -30.629  19.785  -0.322  0.00  0.00    -0.506 OA
ATOM     15  H   UNL     1     -29.946  19.709   0.316  0.00  0.00    +0.292 HD
ENDBRANCH   6  14
BRANCH   1  16
ATOM     16  C   UNL     1     -35.723  21.710   1.211  0.00  0.00    +0.068 C 
BRANCH  16  19
ATOM     17  O   UNL     1     -35.686  24.853   3.306  0.00  0.00    -0.426 OA
ATOM     18  O   UNL     1     -35.786  24.516   1.074  0.00  0.00    -0.245 OA
ATOM     19  C   UNL     1     -35.665  22.576   2.434  0.00  0.00    +0.092 A 
ATOM     20  C   UNL     1     -35.581  22.116   3.697  0.00  0.00    +0.135 A 
ATOM     21  C   UNL     1     -35.531  23.011   4.845  0.00  0.00    +0.042 A 
ATOM     22  C   UNL     1     -35.593  24.335   4.619  0.00  0.00    +0.125 A 
ATOM     23  C   UNL     1     -35.715  24.047   2.206  0.00  0.00    +0.345 A 
ATOM     24  C   UNL     1     -35.365  22.419   6.220  0.00  0.00    +0.037 C 
BRANCH  20  25
ATOM     25  O   UNL     1     -35.558  20.750   3.926  0.00  0.00    -0.506 OA
ATOM     26  H   UNL     1     -35.014  20.195   3.402  0.00  0.00    +0.292 HD
ENDBRANCH  20  25
BRANCH  22  27
ATOM     27  C   UNL     1     -35.592  25.417   5.655  0.00  0.00    +0.064 C 
ATOM     28  C   UNL     1     -34.218  26.043   5.813  0.00  0.00    +0.008 C 
ENDBRANCH  22  27
ENDBRANCH  16  19
ENDBRANCH   1  16
BRANCH   2  29
ATOM     29  C   UNL     1     -32.224  18.122   1.312  0.00  0.00    +0.058 C 
BRANCH  29  30
ATOM     30  C   UNL     1     -32.660  17.011   0.391  0.00  0.00    -0.030 C 
ATOM     31  C   UNL     1     -31.885  16.123  -0.263  0.00  0.00    -0.048 C 
ATOM     32  C   UNL     1     -32.386  15.037  -1.170  0.00  0.00    +0.026 C 
ATOM     33  C   UNL     1     -30.386  16.175  -0.126  0.00  0.00    +0.026 C 
ENDBRANCH  29  30
ENDBRANCH   2  29
TORSDOF 10
ENDMDL
MODEL 2
REMARK VINA RESULT:      -6.3      1.008      3.981
REMARK  Name = 54682566
REMARK  10 active torsions:
REMARK  status: ('A' for Active; 'I' for Inactive)
REMARK    1  A    between atoms: C_1  and  C_16
REMARK    2  A    between atoms: C_2  and  C_29
REMARK    3  A    between atoms: C_3  and  O_10
REMARK    4  A    between atoms: C_4  and  O_12
REMARK    5  A    between atoms: C_5  and  C_8
REMARK    6  A    between atoms: C_6  and  O_14
REMARK    7  A    between atoms: C_16  and  C_19
REMARK    8  A    between atoms: C_20  and  O_25
REMARK    9  A    between atoms: C_22  and  C_27
REMARK   10  A    between atoms: C_29  and  C_30
REMARK                            x       y       z     vdW  Elec       q    Type
REMARK                         _______ _______ _______ _____ _____    ______ ____
ROOT
ATOM      1  C   UNL     1     -34.442  21.277   0.809  0.00  0.00    +0.050 A 
ATOM      2  C   UNL     1     -32.305  21.520  -0.293  0.00  0.00    +0.049 A 
ATOM      3  C   UNL     1     -33.524  22.064   0.113  0.00  0.00    +0.132 A 
ATOM      4  C   UNL     1     -34.141  19.946   1.099  0.00  0.00    +0.138 A 
ATOM      5  C   UNL     1     -32.922  19.403   0.693  0.00  0.00    +0.102 A 
ATOM      6  C   UNL     1     -32.004  20.190  -0.003  0.00  0.00    +0.138 A 
ENDROOT
BRANCH   5   8
ATOM      7  O   UNL     1     -31.786  17.713   1.885  0.00  0.00    -0.291 OA
ATOM      8  C   UNL     1     -32.607  18.011   0.997  0.00  0.00    +0.179 C 
ATOM      9  C   UNL     1     -33.283  16.888   0.224  0.00  0.00    +0.077 C 
ENDBRANCH   5   8
BRANCH   3  10
ATOM     10  O   UNL     1     -33.820  23.366  -0.170  0.00  0.00    -0.506 OA
ATOM     11  H   UNL     1     -33.762  23.678  -1.051  0.00  0.00    +0.292 HD
ENDBRANCH   3  10
BRANCH   4  12
ATOM     12  O   UNL     1     -35.040  19.179   1.780  0.00  0.00    -0.506 OA
ATOM     13  H   UNL     1     -35.627  19.578   2.392  0.00  0.00    +0.292 HD
ENDBRANCH   4  12
BRANCH   6  14
ATOM     14  O   UNL     1     -30.811  19.661  -0.401  0.00  0.00    -0.506 OA
ATOM     15  H   UNL     1     -30.428  19.929  -1.213  0.00  0.00    +0.292 HD
ENDBRANCH   6  14
BRANCH   1  16
ATOM     16  C   UNL     1     -35.756  21.863   1.246  0.00  0.00    +0.068 C 
BRANCH  16  19
ATOM     17  O   UNL     1     -35.534  24.877   3.511  0.00  0.00    -0.426 OA
ATOM     18  O   UNL     1     -35.684  24.672   1.266  0.00  0.00    -0.245 OA
ATOM     19  C   UNL     1     -35.637  22.655   2.514  0.00  0.00    +0.092 A 
ATOM     20  C   UNL     1     -35.557  22.121   3.747  0.00  0.00    +0.135 A 
ATOM     21  C   UNL     1     -35.447  22.946   4.942  0.00  0.00    +0.042 A 
ATOM     22  C   UNL     1     -35.447  24.283   4.791  0.00  0.00    +0.125 A 
ATOM     23  C   UNL     1     -35.619  24.137   2.369  0.00  0.00    +0.345 A 
ATOM     24  C   UNL     1     -35.289  22.270   6.279  0.00  0.00    +0.037 C 
BRANCH  20  25
ATOM     25  O   UNL     1     -35.597  20.745   3.899  0.00  0.00    -0.506 OA
ATOM     26  H   UNL     1     -36.310  20.253   3.538  0.00  0.00    +0.292 HD
ENDBRANCH  20  25
BRANCH  22  27
ATOM     27  C   UNL     1     -35.378  25.303   5.886  0.00  0.00    +0.064 C 
ATOM     28  C   UNL     1     -34.126  26.154   5.782  0.00  0.00    +0.008 C 
ENDBRANCH  22  27
ENDBRANCH  16  19
ENDBRANCH   1  16
BRANCH   2  29
ATOM     29  C   UNL     1     -31.322  22.366  -1.038  0.00  0.00    +0.058 C 
BRANCH  29  30
ATOM     30  C   UNL     1     -31.518  22.312  -2.532  0.00  0.00    -0.030 C 
ATOM     31  C   UNL     1     -31.786  23.331  -3.371  0.00  0.00    -0.048 C 
ATOM     32  C   UNL     1     -31.971  23.206  -4.856  0.00  0.00    +0.026 C 
ATOM     33  C   UNL     1     -31.935  24.733  -2.843  0.00  0.00    +0.026 C 
ENDBRANCH  29  30
ENDBRANCH   2  29
TORSDOF 10
ENDMDL
MODEL 3
REMARK VINA RESULT:      -6.1      2.943      5.651
REMARK  Name = 54682566
REMARK  10 active torsions:
REMARK  status: ('A' for Active; 'I' for Inactive)
REMARK    1  A    between atoms: C_1  and  C_16
REMARK    2  A    between atoms: C_2  and  C_29
REMARK    3  A    between atoms: C_3  and  O_10
REMARK    4  A    between atoms: C_4  and  O_12
REMARK    5  A    between atoms: C_5  and  C_8
REMARK    6  A    between atoms: C_6  and  O_14
REMARK    7  A    between atoms: C_16  and  C_19
REMARK    8  A    between atoms: C_20  and  O_25
REMARK    9  A    between atoms: C_22  and  C_27
REMARK   10  A    between atoms: C_29  and  C_30
REMARK                            x       y       z     vdW  Elec       q    Type
REMARK                         _______ _______ _______ _____ _____    ______ ____
ROOT
ATOM      1  C   UNL     1     -36.839  23.513   3.642  0.00  0.00    +0.050 A 
ATOM      2  C   UNL     1     -36.128  21.444   2.616  0.00  0.00    +0.049 A 
ATOM      3  C   UNL     1     -35.860  22.540   3.436  0.00  0.00    +0.132 A 
ATOM      4  C   UNL     1     -38.085  23.389   3.028  0.00  0.00    +0.138 A 
ATOM      5  C   UNL     1     -38.352  22.292   2.209  0.00  0.00    +0.102 A 
ATOM      6  C   UNL     1     -37.374  21.319   2.003  0.00  0.00    +0.138 A 
ENDROOT
BRANCH   5   8
ATOM      7  O   UNL     1     -40.450  21.259   1.891  0.00  0.00    -0.291 OA
ATOM      8  C   UNL     1     -39.657  22.162   1.567  0.00  0.00    +0.179 C 
ATOM      9  C   UNL     1     -40.072  23.141   0.477  0.00  0.00    +0.077 C 
ENDBRANCH   5   8
BRANCH   3  10
ATOM     10  O   UNL     1     -34.641  22.662   4.038  0.00  0.00    -0.506 OA
ATOM     11  H   UNL     1     -34.134  21.897   4.227  0.00  0.00    +0.292 HD
ENDBRANCH   3  10
BRANCH   4  12
ATOM     12  O   UNL     1     -39.040  24.341   3.232  0.00  0.00    -0.506 OA
ATOM     13  H   UNL     1     -39.314  24.890   2.522  0.00  0.00    +0.292 HD
ENDBRANCH   4  12
BRANCH   6  14
ATOM     14  O   UNL     1     -37.633  20.246   1.201  0.00  0.00    -0.506 OA
ATOM     15  H   UNL     1     -37.507  19.377   1.528  0.00  0.00    +0.292 HD
ENDBRANCH   6  14
BRANCH   1  16
ATOM     16  C   UNL     1     -36.550  24.694   4.526  0.00  0.00    +0.068 C 
BRANCH  16  19
ATOM     17  O   UNL     1     -33.602  26.780   3.420  0.00  0.00    -0.426 OA
ATOM     18  O   UNL     1     -33.778  25.034   4.843  0.00  0.00    -0.245 OA
ATOM     19  C   UNL     1     -35.785  25.770   3.813  0.00  0.00    +0.092 A 
ATOM     20  C   UNL     1     -36.328  26.663   2.966  0.00  0.00    +0.135 A 
ATOM     21  C   UNL     1     -35.529  27.684   2.302  0.00  0.00    +0.042 A 
ATOM     22  C   UNL     1     -34.205  27.707   2.539  0.00  0.00    +0.125 A 
ATOM     23  C   UNL     1     -34.320  25.823   4.074  0.00  0.00    +0.345 A 
ATOM     24  C   UNL     1     -36.223  28.692   1.424  0.00  0.00    +0.037 C 
BRANCH  20  25
ATOM     25  O   UNL     1     -37.685  26.610   2.694  0.00  0.00    -0.506 OA
ATOM     26  H   UNL     1     -38.209  27.384   2.769  0.00  0.00    +0.292 HD
ENDBRANCH  20  25
BRANCH  22  27
ATOM     27  C   UNL     1     -33.207  28.645   1.934  0.00  0.00    +0.064 C 
ATOM     28  C   UNL     1     -32.685  29.642   2.952  0.00  0.00    +0.008 C 
ENDBRANCH  22  27
ENDBRANCH  16  19
ENDBRANCH   1  16
BRANCH   2  29
ATOM     29  C   UNL     1     -35.078  20.401   2.397  0.00  0.00    +0.058 C 
BRANCH  29  30
ATOM     30  C   UNL     1     -34.167  20.723   1.240  0.00  0.00    -0.030 C 
ATOM     31  C   UNL     1     -33.180  19.964   0.725  0.00  0.00    -0.048 C 
ATOM     32  C   UNL     1     -32.307  20.348  -0.435  0.00  0.00    +0.026 C 
ATOM     33  C   UNL     1     -32.867  18.616   1.318  0.00  0.00    +0.026 C 
ENDBRANCH  29  30
ENDBRANCH   2  29
TORSDOF 10
ENDMDL
MODEL 4
REMARK VINA RESULT:      -6.1      4.035      7.566
REMARK  Name = 54682566
REMARK  10 active torsions:
REMARK  status: ('A' for Active; 'I' for Inactive)
REMARK    1  A    between atoms: C_1  and  C_16
REMARK    2  A    between atoms: C_2  and  C_29
REMARK    3  A    between atoms: C_3  and  O_10
REMARK    4  A    between atoms: C_4  and  O_12
REMARK    5  A    between atoms: C_5  and  C_8
REMARK    6  A    between atoms: C_6  and  O_14
REMARK    7  A    between atoms: C_16  and  C_19
REMARK    8  A    between atoms: C_20  and  O_25
REMARK    9  A    between atoms: C_22  and  C_27
REMARK   10  A    between atoms: C_29  and  C_30
REMARK                            x       y       z     vdW  Elec       q    Type
REMARK                         _______ _______ _______ _____ _____    ______ ____
ROOT
ATOM      1  C   UNL     1     -36.498  24.899   4.372  0.00  0.00    +0.050 A 
ATOM      2  C   UNL     1     -38.195  23.855   3.005  0.00  0.00    +0.049 A 
ATOM      3  C   UNL     1     -37.711  24.972   3.688  0.00  0.00    +0.132 A 
ATOM      4  C   UNL     1     -35.769  23.710   4.374  0.00  0.00    +0.138 A 
ATOM      5  C   UNL     1     -36.253  22.594   3.691  0.00  0.00    +0.102 A 
ATOM      6  C   UNL     1     -37.467  22.667   3.007  0.00  0.00    +0.138 A 
ENDROOT
BRANCH   5   8
ATOM      7  O   UNL     1     -35.167  20.792   4.759  0.00  0.00    -0.291 OA
ATOM      8  C   UNL     1     -35.489  21.350   3.694  0.00  0.00    +0.179 C 
ATOM      9  C   UNL     1     -35.068  20.710   2.379  0.00  0.00    +0.077 C 
ENDBRANCH   5   8
BRANCH   3  10
ATOM     10  O   UNL     1     -38.424  26.136   3.686  0.00  0.00    -0.506 OA
ATOM     11  H   UNL     1     -39.320  26.137   3.959  0.00  0.00    +0.292 HD
ENDBRANCH   3  10
BRANCH   4  12
ATOM     12  O   UNL     1     -34.583  23.642   5.044  0.00  0.00    -0.506 OA
ATOM     13  H   UNL     1     -34.447  24.163   5.812  0.00  0.00    +0.292 HD
ENDBRANCH   4  12
BRANCH   6  14
ATOM     14  O   UNL     1     -37.943  21.577   2.339  0.00  0.00    -0.506 OA
ATOM     15  H   UNL     1     -38.745  21.636   1.858  0.00  0.00    +0.292 HD
ENDBRANCH   6  14
BRANCH   1  16
ATOM     16  C   UNL     1     -35.977  26.102   5.107  0.00  0.00    +0.068 C 
BRANCH  16  19
ATOM     17  O   UNL     1     -32.457  27.245   4.353  0.00  0.00    -0.426 OA
ATOM     18  O   UNL     1     -33.335  26.061   6.065  0.00  0.00    -0.245 OA
ATOM     19  C   UNL     1     -34.848  26.773   4.383  0.00  0.00    +0.092 A 
ATOM     20  C   UNL     1     -34.975  27.448   3.225  0.00  0.00    +0.135 A 
ATOM     21  C   UNL     1     -33.837  28.076   2.567  0.00  0.00    +0.042 A 
ATOM     22  C   UNL     1     -32.626  27.951   3.139  0.00  0.00    +0.125 A 
ATOM     23  C   UNL     1     -33.501  26.660   5.007  0.00  0.00    +0.345 A 
ATOM     24  C   UNL     1     -34.073  28.874   1.312  0.00  0.00    +0.037 C 
BRANCH  20  25
ATOM     25  O   UNL     1     -36.217  27.540   2.619  0.00  0.00    -0.506 OA
ATOM     26  H   UNL     1     -36.298  27.421   1.693  0.00  0.00    +0.292 HD
ENDBRANCH  20  25
BRANCH  22  27
ATOM     27  C   UNL     1     -31.331  28.487   2.612  0.00  0.00    +0.064 C 
ATOM     28  C   UNL     1     -30.455  27.385   2.045  0.00  0.00    +0.008 C 
ENDBRANCH  22  27
ENDBRANCH  16  19
ENDBRANCH   1  16
BRANCH   2  29
ATOM     29  C   UNL     1     -39.496  23.935   2.271  0.00  0.00    +0.058 C 
BRANCH  29  30
ATOM     30  C   UNL     1     -39.339  24.434   0.857  0.00  0.00    -0.030 C 
ATOM     31  C   UNL     1     -39.896  25.525   0.296  0.00  0.00    -0.048 C 
ATOM     32  C   UNL     1     -39.697  25.966  -1.126  0.00  0.00    +0.026 C 
ATOM     33  C   UNL     1     -40.811  26.412   1.099  0.00  0.00    +0.026 C 
ENDBRANCH  29  30
ENDBRANCH   2  29
TORSDOF 10
ENDMDL
MODEL 5
REMARK VINA RESULT:      -6.1      6.152      9.023
REMARK  Name = 54682566
REMARK  10 active torsions:
REMARK  status: ('A' for Active; 'I' for Inactive)
REMARK    1  A    between atoms: C_1  and  C_16
REMARK    2  A    between atoms: C_2  and  C_29
REMARK    3  A    between atoms: C_3  and  O_10
REMARK    4  A    between atoms: C_4  and  O_12
REMARK    5  A    between atoms: C_5  and  C_8
REMARK    6  A    between atoms: C_6  and  O_14
REMARK    7  A    between atoms: C_16  and  C_19
REMARK    8  A    between atoms: C_20  and  O_25
REMARK    9  A    between atoms: C_22  and  C_27
REMARK   10  A    between atoms: C_29  and  C_30
REMARK                            x       y       z     vdW  Elec       q    Type
REMARK                         _______ _______ _______ _____ _____    ______ ____
ROOT
ATOM      1  C   UNL     1     -40.261  25.180   1.833  0.00  0.00    +0.050 A 
ATOM      2  C   UNL     1     -38.365  24.377   3.097  0.00  0.00    +0.049 A 
ATOM      3  C   UNL     1     -39.229  25.413   2.742  0.00  0.00    +0.132 A 
ATOM      4  C   UNL     1     -40.429  23.911   1.279  0.00  0.00    +0.138 A 
ATOM      5  C   UNL     1     -39.565  22.875   1.634  0.00  0.00    +0.102 A 
ATOM      6  C   UNL     1     -38.533  23.108   2.544  0.00  0.00    +0.138 A 
ENDROOT
BRANCH   5   8
ATOM      7  O   UNL     1     -40.706  20.827   1.371  0.00  0.00    -0.291 OA
ATOM      8  C   UNL     1     -39.741  21.547   1.054  0.00  0.00    +0.179 C 
ATOM      9  C   UNL     1     -38.735  21.015   0.043  0.00  0.00    +0.077 C 
ENDBRANCH   5   8
BRANCH   3  10
ATOM     10  O   UNL     1     -39.065  26.655   3.285  0.00  0.00    -0.506 OA
ATOM     11  H   UNL     1     -38.727  27.353   2.761  0.00  0.00    +0.292 HD
ENDBRANCH   3  10
BRANCH   4  12
ATOM     12  O   UNL     1     -41.439  23.687   0.390  0.00  0.00    -0.506 OA
ATOM     13  H   UNL     1     -41.835  24.407  -0.061  0.00  0.00    +0.292 HD
ENDBRANCH   4  12
BRANCH   6  14
ATOM     14  O   UNL     1     -37.686  22.097   2.893  0.00  0.00    -0.506 OA
ATOM     15  H   UNL     1     -38.013  21.353   3.359  0.00  0.00    +0.292 HD
ENDBRANCH   6  14
BRANCH   1  16
ATOM     16  C   UNL     1     -41.191  26.297   1.451  0.00  0.00    +0.068 C 
BRANCH  16  19
ATOM     17  O   UNL     1     -43.710  26.877   4.205  0.00  0.00    -0.426 OA
ATOM     18  O   UNL     1     -41.535  27.452   3.990  0.00  0.00    -0.245 OA
ATOM     19  C   UNL     1     -42.494  26.237   2.191  0.00  0.00    +0.092 A 
ATOM     20  C   UNL     1     -43.611  25.642   1.732  0.00  0.00    +0.135 A 
ATOM     21  C   UNL     1     -44.848  25.621   2.499  0.00  0.00    +0.042 A 
ATOM     22  C   UNL     1     -44.863  26.239   3.694  0.00  0.00    +0.125 A 
ATOM     23  C   UNL     1     -42.529  26.901   3.524  0.00  0.00    +0.345 A 
ATOM     24  C   UNL     1     -46.033  24.873   1.947  0.00  0.00    +0.037 C 
BRANCH  20  25
ATOM     25  O   UNL     1     -43.601  25.043   0.483  0.00  0.00    -0.506 OA
ATOM     26  H   UNL     1     -44.403  24.927   0.012  0.00  0.00    +0.292 HD
ENDBRANCH  20  25
BRANCH  22  27
ATOM     27  C   UNL     1     -46.035  26.363   4.619  0.00  0.00    +0.064 C 
ATOM     28  C   UNL     1     -45.597  26.593   6.054  0.00  0.00    +0.008 C 
ENDBRANCH  22  27
ENDBRANCH  16  19
ENDBRANCH   1  16
BRANCH   2  29
ATOM     29  C   UNL     1     -37.259  24.628   4.073  0.00  0.00    +0.058 C 
BRANCH  29  30
ATOM     30  C   UNL     1     -35.950  24.956   3.402  0.00  0.00    -0.030 C 
ATOM     31  C   UNL     1     -34.794  25.336   3.979  0.00  0.00    -0.048 C 
ATOM     32  C   UNL     1     -33.521  25.650   3.247  0.00  0.00    +0.026 C 
ATOM     33  C   UNL     1     -34.704  25.489   5.474  0.00  0.00    +0.026 C 
ENDBRANCH  29  30
ENDBRANCH   2  29
TORSDOF 10
ENDMDL
MODEL 6
REMARK VINA RESULT:      -5.9      3.151      6.298
REMARK  Name = 54682566
REMARK  10 active torsions:
REMARK  status: ('A' for Active; 'I' for Inactive)
REMARK    1  A    between atoms: C_1  and  C_16
REMARK    2  A    between atoms: C_2  and  C_29
REMARK    3  A    between atoms: C_3  and  O_10
REMARK    4  A    between atoms: C_4  and  O_12
REMARK    5  A    between atoms: C_5  and  C_8
REMARK    6  A    between atoms: C_6  and  O_14
REMARK    7  A    between atoms: C_16  and  C_19
REMARK    8  A    between atoms: C_20  and  O_25
REMARK    9  A    between atoms: C_22  and  C_27
REMARK   10  A    between atoms: C_29  and  C_30
REMARK                            x       y       z     vdW  Elec       q    Type
REMARK                         _______ _______ _______ _____ _____    ______ ____
ROOT
ATOM      1  C   UNL     1     -36.777  24.858   3.893  0.00  0.00    +0.050 A 
ATOM      2  C   UNL     1     -36.542  22.737   2.760  0.00  0.00    +0.049 A 
ATOM      3  C   UNL     1     -36.060  23.683   3.665  0.00  0.00    +0.132 A 
ATOM      4  C   UNL     1     -37.975  25.087   3.216  0.00  0.00    +0.138 A 
ATOM      5  C   UNL     1     -38.456  24.140   2.311  0.00  0.00    +0.102 A 
ATOM      6  C   UNL     1     -37.739  22.966   2.083  0.00  0.00    +0.138 A 
ENDROOT
BRANCH   5   8
ATOM      7  O   UNL     1     -40.748  23.760   1.900  0.00  0.00    -0.291 OA
ATOM      8  C   UNL     1     -39.709  24.380   1.603  0.00  0.00    +0.179 C 
ATOM      9  C   UNL     1     -39.767  25.402   0.477  0.00  0.00    +0.077 C 
ENDBRANCH   5   8
BRANCH   3  10
ATOM     10  O   UNL     1     -34.888  23.460   4.328  0.00  0.00    -0.506 OA
ATOM     11  H   UNL     1     -34.371  22.707   4.124  0.00  0.00    +0.292 HD
ENDBRANCH   3  10
BRANCH   4  12
ATOM     12  O   UNL     1     -38.673  26.237   3.442  0.00  0.00    -0.506 OA
ATOM     13  H   UNL     1     -38.963  26.447   4.308  0.00  0.00    +0.292 HD
ENDBRANCH   4  12
BRANCH   6  14
ATOM     14  O   UNL     1     -38.207  22.039   1.198  0.00  0.00    -0.506 OA
ATOM     15  H   UNL     1     -38.522  22.310   0.359  0.00  0.00    +0.292 HD
ENDBRANCH   6  14
BRANCH   1  16
ATOM     16  C   UNL     1     -36.258  25.877   4.869  0.00  0.00    +0.068 C 
BRANCH  16  19
ATOM     17  O   UNL     1     -32.659  26.990   4.594  0.00  0.00    -0.426 OA
ATOM     18  O   UNL     1     -33.713  25.599   6.028  0.00  0.00    -0.245 OA
ATOM     19  C   UNL     1     -35.054  26.607   4.351  0.00  0.00    +0.092 A 
ATOM     20  C   UNL     1     -35.061  27.449   3.300  0.00  0.00    +0.135 A 
ATOM     21  C   UNL     1     -33.855  28.125   2.843  0.00  0.00    +0.042 A 
ATOM     22  C   UNL     1     -32.703  27.873   3.490  0.00  0.00    +0.125 A 
ATOM     23  C   UNL     1     -33.770  26.354   5.062  0.00  0.00    +0.345 A 
ATOM     24  C   UNL     1     -33.960  29.108   1.706  0.00  0.00    +0.037 C 
BRANCH  20  25
ATOM     25  O   UNL     1     -36.242  27.675   2.613  0.00  0.00    -0.506 OA
ATOM     26  H   UNL     1     -37.036  27.836   3.085  0.00  0.00    +0.292 HD
ENDBRANCH  20  25
BRANCH  22  27
ATOM     27  C   UNL     1     -31.353  28.433   3.160  0.00  0.00    +0.064 C 
ATOM     28  C   UNL     1     -30.466  27.402   2.487  0.00  0.00    +0.008 C 
ENDBRANCH  22  27
ENDBRANCH  16  19
ENDBRANCH   1  16
BRANCH   2  29
ATOM     29  C   UNL     1     -35.772  21.478   2.517  0.00  0.00    +0.058 C 
BRANCH  29  30
ATOM     30  C   UNL     1     -34.740  21.624   1.429  0.00  0.00    -0.030 C 
ATOM     31  C   UNL     1     -33.895  20.687   0.954  0.00  0.00    -0.048 C 
ATOM     32  C   UNL     1     -32.886  20.902  -0.136  0.00  0.00    +0.026 C 
ATOM     33  C   UNL     1     -33.904  19.295   1.527  0.00  0.00    +0.026 C 
ENDBRANCH  29  30
ENDBRANCH   2  29
TORSDOF 10
ENDMDL
MODEL 7
REMARK VINA RESULT:      -5.9      3.804      8.784
REMARK  Name = 54682566
REMARK  10 active torsions:
REMARK  status: ('A' for Active; 'I' for Inactive)
REMARK    1  A    between atoms: C_1  and  C_16
REMARK    2  A    between atoms: C_2  and  C_29
REMARK    3  A    between atoms: C_3  and  O_10
REMARK    4  A    between atoms: C_4  and  O_12
REMARK    5  A    between atoms: C_5  and  C_8
REMARK    6  A    between atoms: C_6  and  O_14
REMARK    7  A    between atoms: C_16  and  C_19
REMARK    8  A    between atoms: C_20  and  O_25
REMARK    9  A    between atoms: C_22  and  C_27
REMARK   10  A    between atoms: C_29  and  C_30
REMARK                            x       y       z     vdW  Elec       q    Type
REMARK                         _______ _______ _______ _____ _____    ______ ____
ROOT
ATOM      1  C   UNL     1     -35.038  26.709   4.569  0.00  0.00    +0.050 A 
ATOM      2  C   UNL     1     -34.481  28.205   2.755  0.00  0.00    +0.049 A 
ATOM      3  C   UNL     1     -35.367  27.309   3.353  0.00  0.00    +0.132 A 
ATOM      4  C   UNL     1     -33.822  27.005   5.186  0.00  0.00    +0.138 A 
ATOM      5  C   UNL     1     -32.937  27.901   4.587  0.00  0.00    +0.102 A 
ATOM      6  C   UNL     1     -33.266  28.501   3.371  0.00  0.00    +0.138 A 
ENDROOT
BRANCH   5   8
ATOM      7  O   UNL     1     -30.592  27.750   4.802  0.00  0.00    -0.291 OA
ATOM      8  C   UNL     1     -31.665  28.211   5.233  0.00  0.00    +0.179 C 
ATOM      9  C   UNL     1     -31.631  29.110   6.461  0.00  0.00    +0.077 C 
ENDBRANCH   5   8
BRANCH   3  10
ATOM     10  O   UNL     1     -36.557  27.019   2.750  0.00  0.00    -0.506 OA
ATOM     11  H   UNL     1     -37.350  27.396   3.075  0.00  0.00    +0.292 HD
ENDBRANCH   3  10
BRANCH   4  12
ATOM     12  O   UNL     1     -33.504  26.418   6.375  0.00  0.00    -0.506 OA
ATOM     13  H   UNL     1     -32.661  26.562   6.758  0.00  0.00    +0.292 HD
ENDBRANCH   4  12
BRANCH   6  14
ATOM     14  O   UNL     1     -32.401  29.377   2.783  0.00  0.00    -0.506 OA
ATOM     15  H   UNL     1     -31.893  29.107   2.043  0.00  0.00    +0.292 HD
ENDBRANCH   6  14
BRANCH   1  16
ATOM     16  C   UNL     1     -35.994  25.745   5.214  0.00  0.00    +0.068 C 
BRANCH  16  19
ATOM     17  O   UNL     1     -35.173  22.423   3.614  0.00  0.00    -0.426 OA
ATOM     18  O   UNL     1     -33.955  23.837   4.888  0.00  0.00    -0.245 OA
ATOM     19  C   UNL     1     -36.182  24.496   4.404  0.00  0.00    +0.092 A 
ATOM     20  C   UNL     1     -37.319  24.162   3.764  0.00  0.00    +0.135 A 
ATOM     21  C   UNL     1     -37.440  22.931   2.995  0.00  0.00    +0.042 A 
ATOM     22  C   UNL     1     -36.380  22.105   2.951  0.00  0.00    +0.125 A 
ATOM     23  C   UNL     1     -35.015  23.575   4.328  0.00  0.00    +0.345 A 
ATOM     24  C   UNL     1     -38.721  22.664   2.250  0.00  0.00    +0.037 C 
BRANCH  20  25
ATOM     25  O   UNL     1     -38.421  24.997   3.847  0.00  0.00    -0.506 OA
ATOM     26  H   UNL     1     -38.320  25.878   4.151  0.00  0.00    +0.292 HD
ENDBRANCH  20  25
BRANCH  22  27
ATOM     27  C   UNL     1     -36.309  20.782   2.250  0.00  0.00    +0.064 C 
ATOM     28  C   UNL     1     -34.888  20.250   2.198  0.00  0.00    +0.008 C 
ENDBRANCH  22  27
ENDBRANCH  16  19
ENDBRANCH   1  16
BRANCH   2  29
ATOM     29  C   UNL     1     -34.835  28.847   1.451  0.00  0.00    +0.058 C 
BRANCH  29  30
ATOM     30  C   UNL     1     -35.967  29.835   1.576  0.00  0.00    -0.030 C 
ATOM     31  C   UNL     1     -35.889  31.168   1.758  0.00  0.00    -0.048 C 
ATOM     32  C   UNL     1     -37.062  32.098   1.875  0.00  0.00    +0.026 C 
ATOM     33  C   UNL     1     -34.548  31.843   1.874  0.00  0.00    +0.026 C 
ENDBRANCH  29  30
ENDBRANCH   2  29
TORSDOF 10
ENDMDL
MODEL 8
REMARK VINA RESULT:      -5.8      2.842      5.600
REMARK  Name = 54682566
REMARK  10 active torsions:
REMARK  status: ('A' for Active; 'I' for Inactive)
REMARK    1  A    between atoms: C_1  and  C_16
REMARK    2  A    between atoms: C_2  and  C_29
REMARK    3  A    between atoms: C_3  and  O_10
REMARK    4  A    between atoms: C_4  and  O_12
REMARK    5  A    between atoms: C_5  and  C_8
REMARK    6  A    between atoms: C_6  and  O_14
REMARK    7  A    between atoms: C_16  and  C_19
REMARK    8  A    between atoms: C_20  and  O_25
REMARK    9  A    between atoms: C_22  and  C_27
REMARK   10  A    between atoms: C_29  and  C_30
REMARK                            x       y       z     vdW  Elec       q    Type
REMARK                         _______ _______ _______ _____ _____    ______ ____
ROOT
ATOM      1  C   UNL     1     -37.486  23.102   2.085  0.00  0.00    +0.050 A 
ATOM      2  C   UNL     1     -36.006  21.193   2.048  0.00  0.00    +0.049 A 
ATOM      3  C   UNL     1     -36.937  22.012   1.409  0.00  0.00    +0.132 A 
ATOM      4  C   UNL     1     -37.103  23.373   3.399  0.00  0.00    +0.138 A 
ATOM      5  C   UNL     1     -36.172  22.554   4.036  0.00  0.00    +0.102 A 
ATOM      6  C   UNL     1     -35.623  21.464   3.361  0.00  0.00    +0.138 A 
ENDROOT
BRANCH   5   8
ATOM      7  O   UNL     1     -36.109  22.093   6.349  0.00  0.00    -0.291 OA
ATOM      8  C   UNL     1     -35.771  22.838   5.411  0.00  0.00    +0.179 C 
ATOM      9  C   UNL     1     -34.927  24.066   5.722  0.00  0.00    +0.077 C 
ENDBRANCH   5   8
BRANCH   3  10
ATOM     10  O   UNL     1     -37.312  21.748   0.124  0.00  0.00    -0.506 OA
ATOM     11  H   UNL     1     -37.557  20.878  -0.123  0.00  0.00    +0.292 HD
ENDBRANCH   3  10
BRANCH   4  12
ATOM     12  O   UNL     1     -37.642  24.440   4.056  0.00  0.00    -0.506 OA
ATOM     13  H   UNL     1     -37.494  24.547   4.976  0.00  0.00    +0.292 HD
ENDBRANCH   4  12
BRANCH   6  14
ATOM     14  O   UNL     1     -34.712  20.661   3.982  0.00  0.00    -0.506 OA
ATOM     15  H   UNL     1     -34.482  19.834   3.605  0.00  0.00    +0.292 HD
ENDBRANCH   6  14
BRANCH   1  16
ATOM     16  C   UNL     1     -38.490  23.985   1.397  0.00  0.00    +0.068 C 
BRANCH  16  19
ATOM     17  O   UNL     1     -37.783  27.695   1.396  0.00  0.00    -0.426 OA
ATOM     18  O   UNL     1     -39.115  26.403   2.685  0.00  0.00    -0.245 OA
ATOM     19  C   UNL     1     -37.903  25.298   0.971  0.00  0.00    +0.092 A 
ATOM     20  C   UNL     1     -37.035  25.455  -0.046  0.00  0.00    +0.135 A 
ATOM     21  C   UNL     1     -36.498  26.760  -0.409  0.00  0.00    +0.042 A 
ATOM     22  C   UNL     1     -36.877  27.826   0.319  0.00  0.00    +0.125 A 
ATOM     23  C   UNL     1     -38.322  26.494   1.753  0.00  0.00    +0.345 A 
ATOM     24  C   UNL     1     -35.588  26.863  -1.604  0.00  0.00    +0.037 C 
BRANCH  20  25
ATOM     25  O   UNL     1     -36.618  24.349  -0.766  0.00  0.00    -0.506 OA
ATOM     26  H   UNL     1     -35.716  24.257  -1.005  0.00  0.00    +0.292 HD
ENDBRANCH  20  25
BRANCH  22  27
ATOM     27  C   UNL     1     -36.417  29.240   0.135  0.00  0.00    +0.064 C 
ATOM     28  C   UNL     1     -35.926  29.845   1.437  0.00  0.00    +0.008 C 
ENDBRANCH  22  27
ENDBRANCH  16  19
ENDBRANCH   1  16
BRANCH   2  29
ATOM     29  C   UNL     1     -35.417  20.025   1.322  0.00  0.00    +0.058 C 
BRANCH  29  30
ATOM     30  C   UNL     1     -34.101  20.349   0.663  0.00  0.00    -0.030 C 
ATOM     31  C   UNL     1     -32.954  19.643   0.707  0.00  0.00    -0.048 C 
ATOM     32  C   UNL     1     -31.673  20.026   0.024  0.00  0.00    +0.026 C 
ATOM     33  C   UNL     1     -32.879  18.363   1.496  0.00  0.00    +0.026 C 
ENDBRANCH  29  30
ENDBRANCH   2  29
TORSDOF 10
ENDMDL
MODEL 9
REMARK VINA RESULT:      -5.8      5.651      8.843
REMARK  Name = 54682566
REMARK  10 active torsions:
REMARK  status: ('A' for Active; 'I' for Inactive)
REMARK    1  A    between atoms: C_1  and  C_16
REMARK    2  A    between atoms: C_2  and  C_29
REMARK    3  A    between atoms: C_3  and  O_10
REMARK    4  A    between atoms: C_4  and  O_12
REMARK    5  A    between atoms: C_5  and  C_8
REMARK    6  A    between atoms: C_6  and  O_14
REMARK    7  A    between atoms: C_16  and  C_19
REMARK    8  A    between atoms: C_20  and  O_25
REMARK    9  A    between atoms: C_22  and  C_27
REMARK   10  A    between atoms: C_29  and  C_30
REMARK                            x       y       z     vdW  Elec       q    Type
REMARK                         _______ _______ _______ _____ _____    ______ ____
ROOT
ATOM      1  C   UNL     1     -33.498  27.918   3.107  0.00  0.00    +0.050 A 
ATOM      2  C   UNL     1     -34.411  26.657   4.955  0.00  0.00    +0.049 A 
ATOM      3  C   UNL     1     -34.489  27.087   3.630  0.00  0.00    +0.132 A 
ATOM      4  C   UNL     1     -32.429  28.320   3.908  0.00  0.00    +0.138 A 
ATOM      5  C   UNL     1     -32.352  27.889   5.233  0.00  0.00    +0.102 A 
ATOM      6  C   UNL     1     -33.343  27.058   5.756  0.00  0.00    +0.138 A 
ENDROOT
BRANCH   5   8
ATOM      7  O   UNL     1     -30.133  27.728   6.019  0.00  0.00    -0.291 OA
ATOM      8  C   UNL     1     -31.233  28.309   6.071  0.00  0.00    +0.179 C 
ATOM      9  C   UNL     1     -31.397  29.476   7.035  0.00  0.00    +0.077 C 
ENDBRANCH   5   8
BRANCH   3  10
ATOM     10  O   UNL     1     -35.534  26.695   2.845  0.00  0.00    -0.506 OA
ATOM     11  H   UNL     1     -35.783  25.792   2.813  0.00  0.00    +0.292 HD
ENDBRANCH   3  10
BRANCH   4  12
ATOM     12  O   UNL     1     -31.463  29.132   3.393  0.00  0.00    -0.506 OA
ATOM     13  H   UNL     1     -30.792  28.774   2.844  0.00  0.00    +0.292 HD
ENDBRANCH   4  12
BRANCH   6  14
ATOM     14  O   UNL     1     -33.269  26.637   7.052  0.00  0.00    -0.506 OA
ATOM     15  H   UNL     1     -33.369  25.727   7.254  0.00  0.00    +0.292 HD
ENDBRANCH   6  14
BRANCH   1  16
ATOM     16  C   UNL     1     -33.583  28.381   1.679  0.00  0.00    +0.068 C 
BRANCH  16  19
ATOM     17  O   UNL     1     -33.414  32.110   1.101  0.00  0.00    -0.426 OA
ATOM     18  O   UNL     1     -31.832  30.496   1.079  0.00  0.00    -0.245 OA
ATOM     19  C   UNL     1     -34.049  29.802   1.563  0.00  0.00    +0.092 A 
ATOM     20  C   UNL     1     -35.322  30.207   1.727  0.00  0.00    +0.135 A 
ATOM     21  C   UNL     1     -35.712  31.605   1.597  0.00  0.00    +0.042 A 
ATOM     22  C   UNL     1     -34.760  32.502   1.284  0.00  0.00    +0.125 A 
ATOM     23  C   UNL     1     -33.008  30.815   1.232  0.00  0.00    +0.345 A 
ATOM     24  C   UNL     1     -37.143  31.987   1.866  0.00  0.00    +0.037 C 
BRANCH  20  25
ATOM     25  O   UNL     1     -36.305  29.274   2.010  0.00  0.00    -0.506 OA
ATOM     26  H   UNL     1     -36.454  29.002   2.895  0.00  0.00    +0.292 HD
ENDBRANCH  20  25
BRANCH  22  27
ATOM     27  C   UNL     1     -34.955  33.972   1.071  0.00  0.00    +0.064 C 
ATOM     28  C   UNL     1     -33.918  34.790   1.818  0.00  0.00    +0.008 C 
ENDBRANCH  22  27
ENDBRANCH  16  19
ENDBRANCH   1  16
BRANCH   2  29
ATOM     29  C   UNL     1     -35.473  25.766   5.514  0.00  0.00    +0.058 C 
BRANCH  29  30
ATOM     30  C   UNL     1     -34.980  24.367   5.784  0.00  0.00    -0.030 C 
ATOM     31  C   UNL     1     -35.338  23.226   5.164  0.00  0.00    -0.048 C 
ATOM     32  C   UNL     1     -34.805  21.859   5.485  0.00  0.00    +0.026 C 
ATOM     33  C   UNL     1     -36.359  23.250   4.057  0.00  0.00    +0.026 C 
ENDBRANCH  29  30
ENDBRANCH   2  29
TORSDOF 10
ENDMDL
