MODEL 1
REMARK VINA RESULT:      -4.7      0.000      0.000
REMARK  Name = 5039
REMARK  10 active torsions:
REMARK  status: ('A' for Active; 'I' for Inactive)
REMARK    1  A    between atoms: S_1  and  C_2
REMARK    2  A    between atoms: S_1  and  C_13
REMARK    3  A    between atoms: C_2  and  C_5
REMARK    4  A    between atoms: C_4  and  C_8
REMARK    5  A    between atoms: C_8  and  N_9
REMARK    6  A    between atoms: C_13  and  C_14
REMARK    7  A    between atoms: C_14  and  N_15
REMARK    8  A    between atoms: N_15  and  C_17
REMARK    9  A    between atoms: C_17  and  N_22
REMARK   10  A    between atoms: C_18  and  N_21
REMARK                            x       y       z     vdW  Elec       q    Type
REMARK                         _______ _______ _______ _____ _____    ______ ____
ROOT
ATOM      1  S   UNL     1     -36.201  22.051   1.593  0.00  0.00    -0.130 S 
ENDROOT
BRANCH   1   2
ATOM      2  C   UNL     1     -35.634  21.004   2.953  0.00  0.00    +0.122 C 
BRANCH   2   5
ATOM      3  O   UNL     1     -35.651  23.137   4.119  0.00  0.00    -0.463 OA
ATOM      4  C   UNL     1     -35.493  23.646   5.370  0.00  0.00    +0.102 C 
ATOM      5  C   UNL     1     -35.500  21.791   4.225  0.00  0.00    +0.133 C 
ATOM      6  C   UNL     1     -35.245  22.638   6.272  0.00  0.00    +0.034 C 
ATOM      7  C   UNL     1     -35.249  21.434   5.530  0.00  0.00    +0.037 C 
BRANCH   4   8
ATOM      8  C   UNL     1     -35.615  25.104   5.498  0.00  0.00    -0.011 C 
BRANCH   8   9
ATOM      9  N   UNL     1     -34.419  25.811   5.011  0.00  0.00    +0.389 N 
ATOM     10  C   UNL     1     -33.698  26.406   6.132  0.00  0.00    -0.100 C 
ATOM     11  C   UNL     1     -34.801  26.830   4.039  0.00  0.00    -0.100 C 
ATOM     12  H   UNL     1     -33.801  25.144   4.550  0.00  0.00    -0.079 HD
ENDBRANCH   8   9
ENDBRANCH   4   8
ENDBRANCH   2   5
ENDBRANCH   1   2
BRANCH   1  13
ATOM     13  C   UNL     1     -37.853  21.321   1.375  0.00  0.00    +0.079 C 
BRANCH  13  14
ATOM     14  C   UNL     1     -38.919  22.046   2.188  0.00  0.00    +0.100 C 
BRANCH  14  15
ATOM     15  N   UNL     1     -38.383  23.226   2.825  0.00  0.00    -0.319 N 
ATOM     16  H   UNL     1     -37.633  23.091   3.449  0.00  0.00    +0.148 HD
BRANCH  15  17
ATOM     17  C   UNL     1     -38.821  24.540   2.646  0.00  0.00    +0.118 C 
ATOM     18  C   UNL     1     -40.131  24.870   2.636  0.00  0.00    +0.194 C 
BRANCH  18  21
ATOM     19  O   UNL     1     -40.804  26.877   3.467  0.00  0.00    -0.126 OA
ATOM     20  O   UNL     1     -40.578  26.646   1.287  0.00  0.00    -0.126 OA
ATOM     21  N   UNL     1     -40.531  26.219   2.451  0.00  0.00    +0.062 N 
ENDBRANCH  18  21
BRANCH  17  22
ATOM     22  N   UNL     1     -37.879  25.561   2.468  0.00  0.00    -0.319 N 
ATOM     23  C   UNL     1     -37.053  25.828   1.316  0.00  0.00    +0.109 C 
ATOM     24  H   UNL     1     -37.768  26.176   3.228  0.00  0.00    +0.148 HD
ENDBRANCH  17  22
ENDBRANCH  15  17
ENDBRANCH  14  15
ENDBRANCH  13  14
ENDBRANCH   1  13
TORSDOF 10
ENDMDL
MODEL 2
REMARK VINA RESULT:      -4.6      3.562      6.505
REMARK  Name = 5039
REMARK  10 active torsions:
REMARK  status: ('A' for Active; 'I' for Inactive)
REMARK    1  A    between atoms: S_1  and  C_2
REMARK    2  A    between atoms: S_1  and  C_13
REMARK    3  A    between atoms: C_2  and  C_5
REMARK    4  A    between atoms: C_4  and  C_8
REMARK    5  A    between atoms: C_8  and  N_9
REMARK    6  A    between atoms: C_13  and  C_14
REMARK    7  A    between atoms: C_14  and  N_15
REMARK    8  A    between atoms: N_15  and  C_17
REMARK    9  A    between atoms: C_17  and  N_22
REMARK   10  A    between atoms: C_18  and  N_21
REMARK                            x       y       z     vdW  Elec       q    Type
REMARK                         _______ _______ _______ _____ _____    ______ ____
ROOT
ATOM      1  S   UNL     1     -37.455  22.625   0.702  0.00  0.00    -0.130 S 
ENDROOT
BRANCH   1   2
ATOM      2  C   UNL     1     -37.353  21.210   1.821  0.00  0.00    +0.122 C 
BRANCH   2   5
ATOM      3  O   UNL     1     -36.144  19.484   0.607  0.00  0.00    -0.463 OA
ATOM      4  C   UNL     1     -34.919  18.899   0.567  0.00  0.00    +0.102 C 
ATOM      5  C   UNL     1     -36.095  20.423   1.589  0.00  0.00    +0.133 C 
ATOM      6  C   UNL     1     -34.087  19.455   1.510  0.00  0.00    +0.034 C 
ATOM      7  C   UNL     1     -34.850  20.444   2.174  0.00  0.00    +0.037 C 
BRANCH   4   8
ATOM      8  C   UNL     1     -34.738  17.838  -0.434  0.00  0.00    -0.011 C 
BRANCH   8   9
ATOM      9  N   UNL     1     -34.513  16.519   0.183  0.00  0.00    +0.389 N 
ATOM     10  C   UNL     1     -33.177  16.033  -0.149  0.00  0.00    -0.100 C 
ATOM     11  C   UNL     1     -35.534  15.578  -0.263  0.00  0.00    -0.100 C 
ATOM     12  H   UNL     1     -34.579  16.608   1.196  0.00  0.00    -0.079 HD
ENDBRANCH   8   9
ENDBRANCH   4   8
ENDBRANCH   2   5
ENDBRANCH   1   2
BRANCH   1  13
ATOM     13  C   UNL     1     -37.108  23.938   1.912  0.00  0.00    +0.079 C 
BRANCH  13  14
ATOM     14  C   UNL     1     -38.103  23.941   3.066  0.00  0.00    +0.100 C 
BRANCH  14  15
ATOM     15  N   UNL     1     -37.665  24.805   4.137  0.00  0.00    -0.319 N 
ATOM     16  H   UNL     1     -38.328  25.438   4.495  0.00  0.00    +0.148 HD
BRANCH  15  17
ATOM     17  C   UNL     1     -36.395  24.832   4.717  0.00  0.00    +0.118 C 
ATOM     18  C   UNL     1     -35.514  25.829   4.481  0.00  0.00    +0.194 C 
BRANCH  18  21
ATOM     19  O   UNL     1     -34.105  26.437   6.159  0.00  0.00    -0.126 OA
ATOM     20  O   UNL     1     -33.333  25.185   4.519  0.00  0.00    -0.126 OA
ATOM     21  N   UNL     1     -34.233  25.816   5.093  0.00  0.00    +0.062 N 
ENDBRANCH  18  21
BRANCH  17  22
ATOM     22  N   UNL     1     -36.007  23.795   5.574  0.00  0.00    -0.319 N 
ATOM     23  C   UNL     1     -35.535  22.476   5.229  0.00  0.00    +0.109 C 
ATOM     24  H   UNL     1     -36.062  23.992   6.536  0.00  0.00    +0.148 HD
ENDBRANCH  17  22
ENDBRANCH  15  17
ENDBRANCH  14  15
ENDBRANCH  13  14
ENDBRANCH   1  13
TORSDOF 10
ENDMDL
MODEL 3
REMARK VINA RESULT:      -4.6      4.379      6.568
REMARK  Name = 5039
REMARK  10 active torsions:
REMARK  status: ('A' for Active; 'I' for Inactive)
REMARK    1  A    between atoms: S_1  and  C_2
REMARK    2  A    between atoms: S_1  and  C_13
REMARK    3  A    between atoms: C_2  and  C_5
REMARK    4  A    between atoms: C_4  and  C_8
REMARK    5  A    between atoms: C_8  and  N_9
REMARK    6  A    between atoms: C_13  and  C_14
REMARK    7  A    between atoms: C_14  and  N_15
REMARK    8  A    between atoms: N_15  and  C_17
REMARK    9  A    between atoms: C_17  and  N_22
REMARK   10  A    between atoms: C_18  and  N_21
REMARK                            x       y       z     vdW  Elec       q    Type
REMARK                         _______ _______ _______ _____ _____    ______ ____
ROOT
ATOM      1  S   UNL     1     -35.836  21.745  -0.136  0.00  0.00    -0.130 S 
ENDROOT
BRANCH   1   2
ATOM      2  C   UNL     1     -34.221  21.884   0.663  0.00  0.00    +0.122 C 
BRANCH   2   5
ATOM      3  O   UNL     1     -32.352  20.355   0.385  0.00  0.00    -0.463 OA
ATOM      4  C   UNL     1     -31.990  19.081   0.688  0.00  0.00    +0.102 C 
ATOM      5  C   UNL     1     -33.604  20.532   0.881  0.00  0.00    +0.133 C 
ATOM      6  C   UNL     1     -32.997  18.443   1.374  0.00  0.00    +0.034 C 
ATOM      7  C   UNL     1     -34.045  19.384   1.499  0.00  0.00    +0.037 C 
BRANCH   4   8
ATOM      8  C   UNL     1     -30.654  18.661   0.242  0.00  0.00    -0.011 C 
BRANCH   8   9
ATOM      9  N   UNL     1     -30.231  17.393   0.859  0.00  0.00    +0.389 N 
ATOM     10  C   UNL     1     -28.865  17.510   1.358  0.00  0.00    -0.100 C 
ATOM     11  C   UNL     1     -30.339  16.306  -0.108  0.00  0.00    -0.100 C 
ATOM     12  H   UNL     1     -30.843  17.183   1.647  0.00  0.00    -0.079 HD
ENDBRANCH   8   9
ENDBRANCH   4   8
ENDBRANCH   2   5
ENDBRANCH   1   2
BRANCH   1  13
ATOM     13  C   UNL     1     -36.838  22.523   1.168  0.00  0.00    +0.079 C 
BRANCH  13  14
ATOM     14  C   UNL     1     -36.620  21.876   2.530  0.00  0.00    +0.100 C 
BRANCH  14  15
ATOM     15  N   UNL     1     -37.031  22.753   3.602  0.00  0.00    -0.319 N 
ATOM     16  H   UNL     1     -37.997  22.812   3.779  0.00  0.00    +0.148 HD
BRANCH  15  17
ATOM     17  C   UNL     1     -36.195  23.526   4.411  0.00  0.00    +0.118 C 
ATOM     18  C   UNL     1     -35.591  24.648   3.962  0.00  0.00    +0.194 C 
BRANCH  18  21
ATOM     19  O   UNL     1     -33.542  25.118   4.830  0.00  0.00    -0.126 OA
ATOM     20  O   UNL     1     -35.280  26.296   5.498  0.00  0.00    -0.126 OA
ATOM     21  N   UNL     1     -34.749  25.403   4.820  0.00  0.00    +0.062 N 
ENDBRANCH  18  21
BRANCH  17  22
ATOM     22  N   UNL     1     -35.966  23.135   5.735  0.00  0.00    -0.319 N 
ATOM     23  C   UNL     1     -35.162  22.039   6.220  0.00  0.00    +0.109 C 
ATOM     24  H   UNL     1     -36.410  23.678   6.425  0.00  0.00    +0.148 HD
ENDBRANCH  17  22
ENDBRANCH  15  17
ENDBRANCH  14  15
ENDBRANCH  13  14
ENDBRANCH   1  13
TORSDOF 10
ENDMDL
MODEL 4
REMARK VINA RESULT:      -4.5      4.785      7.249
REMARK  Name = 5039
REMARK  10 active torsions:
REMARK  status: ('A' for Active; 'I' for Inactive)
REMARK    1  A    between atoms: S_1  and  C_2
REMARK    2  A    between atoms: S_1  and  C_13
REMARK    3  A    between atoms: C_2  and  C_5
REMARK    4  A    between atoms: C_4  and  C_8
REMARK    5  A    between atoms: C_8  and  N_9
REMARK    6  A    between atoms: C_13  and  C_14
REMARK    7  A    between atoms: C_14  and  N_15
REMARK    8  A    between atoms: N_15  and  C_17
REMARK    9  A    between atoms: C_17  and  N_22
REMARK   10  A    between atoms: C_18  and  N_21
REMARK                            x       y       z     vdW  Elec       q    Type
REMARK                         _______ _______ _______ _____ _____    ______ ____
ROOT
ATOM      1  S   UNL     1     -36.067  20.512   2.156  0.00  0.00    -0.130 S 
ENDROOT
BRANCH   1   2
ATOM      2  C   UNL     1     -35.711  19.532   0.680  0.00  0.00    +0.122 C 
BRANCH   2   5
ATOM      3  O   UNL     1     -34.302  17.619   0.167  0.00  0.00    -0.463 OA
ATOM      4  C   UNL     1     -33.052  17.145   0.412  0.00  0.00    +0.102 C 
ATOM      5  C   UNL     1     -34.399  18.812   0.810  0.00  0.00    +0.133 C 
ATOM      6  C   UNL     1     -32.350  18.024   1.203  0.00  0.00    +0.034 C 
ATOM      7  C   UNL     1     -33.224  19.106   1.462  0.00  0.00    +0.037 C 
BRANCH   4   8
ATOM      8  C   UNL     1     -32.718  15.848  -0.192  0.00  0.00    -0.011 C 
BRANCH   8   9
ATOM      9  N   UNL     1     -31.287  15.521  -0.061  0.00  0.00    +0.389 N 
ATOM     10  C   UNL     1     -30.532  16.136  -1.148  0.00  0.00    -0.100 C 
ATOM     11  C   UNL     1     -31.104  14.074  -0.054  0.00  0.00    -0.100 C 
ATOM     12  H   UNL     1     -30.939  15.893   0.822  0.00  0.00    -0.079 HD
ENDBRANCH   8   9
ENDBRANCH   4   8
ENDBRANCH   2   5
ENDBRANCH   1   2
BRANCH   1  13
ATOM     13  C   UNL     1     -36.922  21.899   1.346  0.00  0.00    +0.079 C 
BRANCH  13  14
ATOM     14  C   UNL     1     -37.504  22.886   2.350  0.00  0.00    +0.100 C 
BRANCH  14  15
ATOM     15  N   UNL     1     -36.985  22.654   3.678  0.00  0.00    -0.319 N 
ATOM     16  H   UNL     1     -37.255  21.816   4.119  0.00  0.00    +0.148 HD
BRANCH  15  17
ATOM     17  C   UNL     1     -36.139  23.498   4.400  0.00  0.00    +0.118 C 
ATOM     18  C   UNL     1     -35.585  24.604   3.856  0.00  0.00    +0.194 C 
BRANCH  18  21
ATOM     19  O   UNL     1     -35.249  26.394   5.218  0.00  0.00    -0.126 OA
ATOM     20  O   UNL     1     -33.525  25.141   4.658  0.00  0.00    -0.126 OA
ATOM     21  N   UNL     1     -34.730  25.434   4.628  0.00  0.00    +0.062 N 
ENDBRANCH  18  21
BRANCH  17  22
ATOM     22  N   UNL     1     -35.844  23.200   5.736  0.00  0.00    -0.319 N 
ATOM     23  C   UNL     1     -35.429  21.939   6.303  0.00  0.00    +0.109 C 
ATOM     24  H   UNL     1     -35.932  23.947   6.370  0.00  0.00    +0.148 HD
ENDBRANCH  17  22
ENDBRANCH  15  17
ENDBRANCH  14  15
ENDBRANCH  13  14
ENDBRANCH   1  13
TORSDOF 10
ENDMDL
MODEL 5
REMARK VINA RESULT:      -4.4      4.394      6.311
REMARK  Name = 5039
REMARK  10 active torsions:
REMARK  status: ('A' for Active; 'I' for Inactive)
REMARK    1  A    between atoms: S_1  and  C_2
REMARK    2  A    between atoms: S_1  and  C_13
REMARK    3  A    between atoms: C_2  and  C_5
REMARK    4  A    between atoms: C_4  and  C_8
REMARK    5  A    between atoms: C_8  and  N_9
REMARK    6  A    between atoms: C_13  and  C_14
REMARK    7  A    between atoms: C_14  and  N_15
REMARK    8  A    between atoms: N_15  and  C_17
REMARK    9  A    between atoms: C_17  and  N_22
REMARK   10  A    between atoms: C_18  and  N_21
REMARK                            x       y       z     vdW  Elec       q    Type
REMARK                         _______ _______ _______ _____ _____    ______ ____
ROOT
ATOM      1  S   UNL     1     -35.856  21.056   0.674  0.00  0.00    -0.130 S 
ENDROOT
BRANCH   1   2
ATOM      2  C   UNL     1     -34.959  20.074   1.897  0.00  0.00    +0.122 C 
BRANCH   2   5
ATOM      3  O   UNL     1     -32.953  20.484   0.586  0.00  0.00    -0.463 OA
ATOM      4  C   UNL     1     -31.809  19.859   0.203  0.00  0.00    +0.102 C 
ATOM      5  C   UNL     1     -33.642  19.599   1.352  0.00  0.00    +0.133 C 
ATOM      6  C   UNL     1     -31.760  18.585   0.718  0.00  0.00    +0.034 C 
ATOM      7  C   UNL     1     -32.949  18.415   1.464  0.00  0.00    +0.037 C 
BRANCH   4   8
ATOM      8  C   UNL     1     -30.896  20.637  -0.646  0.00  0.00    -0.011 C 
BRANCH   8   9
ATOM      9  N   UNL     1     -29.628  19.931  -0.899  0.00  0.00    +0.389 N 
ATOM     10  C   UNL     1     -28.505  20.852  -0.761  0.00  0.00    -0.100 C 
ATOM     11  C   UNL     1     -29.647  19.330  -2.229  0.00  0.00    -0.100 C 
ATOM     12  H   UNL     1     -29.518  19.186  -0.212  0.00  0.00    -0.079 HD
ENDBRANCH   8   9
ENDBRANCH   4   8
ENDBRANCH   2   5
ENDBRANCH   1   2
BRANCH   1  13
ATOM     13  C   UNL     1     -37.359  21.374   1.648  0.00  0.00    +0.079 C 
BRANCH  13  14
ATOM     14  C   UNL     1     -37.318  22.724   2.353  0.00  0.00    +0.100 C 
BRANCH  14  15
ATOM     15  N   UNL     1     -36.933  22.583   3.739  0.00  0.00    -0.319 N 
ATOM     16  H   UNL     1     -37.275  21.792   4.215  0.00  0.00    +0.148 HD
BRANCH  15  17
ATOM     17  C   UNL     1     -36.125  23.456   4.471  0.00  0.00    +0.118 C 
ATOM     18  C   UNL     1     -35.618  24.589   3.939  0.00  0.00    +0.194 C 
BRANCH  18  21
ATOM     19  O   UNL     1     -33.585  25.208   4.747  0.00  0.00    -0.126 OA
ATOM     20  O   UNL     1     -35.362  26.378   5.320  0.00  0.00    -0.126 OA
ATOM     21  N   UNL     1     -34.802  25.448   4.720  0.00  0.00    +0.062 N 
ENDBRANCH  18  21
BRANCH  17  22
ATOM     22  N   UNL     1     -35.821  23.157   5.804  0.00  0.00    -0.319 N 
ATOM     23  C   UNL     1     -35.242  21.950   6.343  0.00  0.00    +0.109 C 
ATOM     24  H   UNL     1     -36.029  23.862   6.458  0.00  0.00    +0.148 HD
ENDBRANCH  17  22
ENDBRANCH  15  17
ENDBRANCH  14  15
ENDBRANCH  13  14
ENDBRANCH   1  13
TORSDOF 10
ENDMDL
MODEL 6
REMARK VINA RESULT:      -4.4      3.793      6.949
REMARK  Name = 5039
REMARK  10 active torsions:
REMARK  status: ('A' for Active; 'I' for Inactive)
REMARK    1  A    between atoms: S_1  and  C_2
REMARK    2  A    between atoms: S_1  and  C_13
REMARK    3  A    between atoms: C_2  and  C_5
REMARK    4  A    between atoms: C_4  and  C_8
REMARK    5  A    between atoms: C_8  and  N_9
REMARK    6  A    between atoms: C_13  and  C_14
REMARK    7  A    between atoms: C_14  and  N_15
REMARK    8  A    between atoms: N_15  and  C_17
REMARK    9  A    between atoms: C_17  and  N_22
REMARK   10  A    between atoms: C_18  and  N_21
REMARK                            x       y       z     vdW  Elec       q    Type
REMARK                         _______ _______ _______ _____ _____    ______ ____
ROOT
ATOM      1  S   UNL     1     -34.956  22.524   1.220  0.00  0.00    -0.130 S 
ENDROOT
BRANCH   1   2
ATOM      2  C   UNL     1     -35.064  21.036   2.240  0.00  0.00    +0.122 C 
BRANCH   2   5
ATOM      3  O   UNL     1     -35.489  19.201   0.704  0.00  0.00    -0.463 OA
ATOM      4  C   UNL     1     -34.848  18.150   0.128  0.00  0.00    +0.102 C 
ATOM      5  C   UNL     1     -34.577  19.828   1.492  0.00  0.00    +0.133 C 
ATOM      6  C   UNL     1     -33.537  18.101   0.539  0.00  0.00    +0.034 C 
ATOM      7  C   UNL     1     -33.361  19.189   1.424  0.00  0.00    +0.037 C 
BRANCH   4   8
ATOM      8  C   UNL     1     -35.651  17.317  -0.778  0.00  0.00    -0.011 C 
BRANCH   8   9
ATOM      9  N   UNL     1     -36.110  16.073  -0.135  0.00  0.00    +0.389 N 
ATOM     10  C   UNL     1     -35.606  14.916  -0.868  0.00  0.00    -0.100 C 
ATOM     11  C   UNL     1     -37.567  16.053  -0.070  0.00  0.00    -0.100 C 
ATOM     12  H   UNL     1     -35.745  16.034   0.816  0.00  0.00    -0.079 HD
ENDBRANCH   8   9
ENDBRANCH   4   8
ENDBRANCH   2   5
ENDBRANCH   1   2
BRANCH   1  13
ATOM     13  C   UNL     1     -36.608  23.200   1.572  0.00  0.00    +0.079 C 
BRANCH  13  14
ATOM     14  C   UNL     1     -37.195  22.652   2.867  0.00  0.00    +0.100 C 
BRANCH  14  15
ATOM     15  N   UNL     1     -37.062  23.601   3.948  0.00  0.00    -0.319 N 
ATOM     16  H   UNL     1     -37.895  23.982   4.308  0.00  0.00    +0.148 HD
BRANCH  15  17
ATOM     17  C   UNL     1     -35.870  24.032   4.534  0.00  0.00    +0.118 C 
ATOM     18  C   UNL     1     -35.458  25.317   4.473  0.00  0.00    +0.194 C 
BRANCH  18  21
ATOM     19  O   UNL     1     -33.187  25.294   4.577  0.00  0.00    -0.126 OA
ATOM     20  O   UNL     1     -34.311  26.447   6.079  0.00  0.00    -0.126 OA
ATOM     21  N   UNL     1     -34.239  25.712   5.084  0.00  0.00    +0.062 N 
ENDBRANCH  18  21
BRANCH  17  22
ATOM     22  N   UNL     1     -35.062  23.110   5.211  0.00  0.00    -0.319 N 
ATOM     23  C   UNL     1     -35.435  22.193   6.261  0.00  0.00    +0.109 C 
ATOM     24  H   UNL     1     -34.119  23.083   4.934  0.00  0.00    +0.148 HD
ENDBRANCH  17  22
ENDBRANCH  15  17
ENDBRANCH  14  15
ENDBRANCH  13  14
ENDBRANCH   1  13
TORSDOF 10
ENDMDL
MODEL 7
REMARK VINA RESULT:      -4.4      4.168      6.832
REMARK  Name = 5039
REMARK  10 active torsions:
REMARK  status: ('A' for Active; 'I' for Inactive)
REMARK    1  A    between atoms: S_1  and  C_2
REMARK    2  A    between atoms: S_1  and  C_13
REMARK    3  A    between atoms: C_2  and  C_5
REMARK    4  A    between atoms: C_4  and  C_8
REMARK    5  A    between atoms: C_8  and  N_9
REMARK    6  A    between atoms: C_13  and  C_14
REMARK    7  A    between atoms: C_14  and  N_15
REMARK    8  A    between atoms: N_15  and  C_17
REMARK    9  A    between atoms: C_17  and  N_22
REMARK   10  A    between atoms: C_18  and  N_21
REMARK                            x       y       z     vdW  Elec       q    Type
REMARK                         _______ _______ _______ _____ _____    ______ ____
ROOT
ATOM      1  S   UNL     1     -33.702  26.639   4.670  0.00  0.00    -0.130 S 
ENDROOT
BRANCH   1   2
ATOM      2  C   UNL     1     -33.045  26.968   6.321  0.00  0.00    +0.122 C 
BRANCH   2   5
ATOM      3  O   UNL     1     -30.698  27.580   6.480  0.00  0.00    -0.463 OA
ATOM      4  C   UNL     1     -29.896  28.675   6.403  0.00  0.00    +0.102 C 
ATOM      5  C   UNL     1     -31.970  28.015   6.279  0.00  0.00    +0.133 C 
ATOM      6  C   UNL     1     -30.642  29.803   6.153  0.00  0.00    +0.034 C 
ATOM      7  C   UNL     1     -31.987  29.376   6.074  0.00  0.00    +0.037 C 
BRANCH   4   8
ATOM      8  C   UNL     1     -28.458  28.440   6.592  0.00  0.00    -0.011 C 
BRANCH   8   9
ATOM      9  N   UNL     1     -28.077  27.045   6.315  0.00  0.00    +0.389 N 
ATOM     10  C   UNL     1     -27.140  26.571   7.329  0.00  0.00    -0.100 C 
ATOM     11  C   UNL     1     -27.495  26.941   4.981  0.00  0.00    -0.100 C 
ATOM     12  H   UNL     1     -28.909  26.458   6.348  0.00  0.00    -0.079 HD
ENDBRANCH   8   9
ENDBRANCH   4   8
ENDBRANCH   2   5
ENDBRANCH   1   2
BRANCH   1  13
ATOM     13  C   UNL     1     -35.435  26.339   5.134  0.00  0.00    +0.079 C 
BRANCH  13  14
ATOM     14  C   UNL     1     -36.060  25.201   4.337  0.00  0.00    +0.100 C 
BRANCH  14  15
ATOM     15  N   UNL     1     -35.148  24.088   4.205  0.00  0.00    -0.319 N 
ATOM     16  H   UNL     1     -34.190  24.286   4.310  0.00  0.00    +0.148 HD
BRANCH  15  17
ATOM     17  C   UNL     1     -35.490  22.760   3.942  0.00  0.00    +0.118 C 
ATOM     18  C   UNL     1     -35.475  22.243   2.693  0.00  0.00    +0.194 C 
BRANCH  18  21
ATOM     19  O   UNL     1     -36.994  20.653   2.115  0.00  0.00    -0.126 OA
ATOM     20  O   UNL     1     -34.950  20.031   2.651  0.00  0.00    -0.126 OA
ATOM     21  N   UNL     1     -35.829  20.887   2.472  0.00  0.00    +0.062 N 
ENDBRANCH  18  21
BRANCH  17  22
ATOM     22  N   UNL     1     -35.863  21.923   5.000  0.00  0.00    -0.319 N 
ATOM     23  C   UNL     1     -35.554  22.058   6.403  0.00  0.00    +0.109 C 
ATOM     24  H   UNL     1     -36.408  21.141   4.755  0.00  0.00    +0.148 HD
ENDBRANCH  17  22
ENDBRANCH  15  17
ENDBRANCH  14  15
ENDBRANCH  13  14
ENDBRANCH   1  13
TORSDOF 10
ENDMDL
MODEL 8
REMARK VINA RESULT:      -4.3      3.129      5.685
REMARK  Name = 5039
REMARK  10 active torsions:
REMARK  status: ('A' for Active; 'I' for Inactive)
REMARK    1  A    between atoms: S_1  and  C_2
REMARK    2  A    between atoms: S_1  and  C_13
REMARK    3  A    between atoms: C_2  and  C_5
REMARK    4  A    between atoms: C_4  and  C_8
REMARK    5  A    between atoms: C_8  and  N_9
REMARK    6  A    between atoms: C_13  and  C_14
REMARK    7  A    between atoms: C_14  and  N_15
REMARK    8  A    between atoms: N_15  and  C_17
REMARK    9  A    between atoms: C_17  and  N_22
REMARK   10  A    between atoms: C_18  and  N_21
REMARK                            x       y       z     vdW  Elec       q    Type
REMARK                         _______ _______ _______ _____ _____    ______ ____
ROOT
ATOM      1  S   UNL     1     -37.139  24.218   0.574  0.00  0.00    -0.130 S 
ENDROOT
BRANCH   1   2
ATOM      2  C   UNL     1     -35.594  23.998   1.483  0.00  0.00    +0.122 C 
BRANCH   2   5
ATOM      3  O   UNL     1     -34.620  21.790   1.190  0.00  0.00    -0.463 OA
ATOM      4  C   UNL     1     -34.615  20.563   1.776  0.00  0.00    +0.102 C 
ATOM      5  C   UNL     1     -35.431  22.577   1.943  0.00  0.00    +0.133 C 
ATOM      6  C   UNL     1     -35.413  20.560   2.896  0.00  0.00    +0.034 C 
ATOM      7  C   UNL     1     -35.943  21.867   3.005  0.00  0.00    +0.037 C 
BRANCH   4   8
ATOM      8  C   UNL     1     -33.793  19.535   1.123  0.00  0.00    -0.011 C 
BRANCH   8   9
ATOM      9  N   UNL     1     -34.587  18.368   0.702  0.00  0.00    +0.389 N 
ATOM     10  C   UNL     1     -33.702  17.284   0.288  0.00  0.00    -0.100 C 
ATOM     11  C   UNL     1     -35.491  18.743  -0.380  0.00  0.00    -0.100 C 
ATOM     12  H   UNL     1     -35.146  18.042   1.489  0.00  0.00    -0.079 HD
ENDBRANCH   8   9
ENDBRANCH   4   8
ENDBRANCH   2   5
ENDBRANCH   1   2
BRANCH   1  13
ATOM     13  C   UNL     1     -37.910  25.452   1.666  0.00  0.00    +0.079 C 
BRANCH  13  14
ATOM     14  C   UNL     1     -38.096  24.932   3.087  0.00  0.00    +0.100 C 
BRANCH  14  15
ATOM     15  N   UNL     1     -37.591  25.872   4.061  0.00  0.00    -0.319 N 
ATOM     16  H   UNL     1     -38.259  26.396   4.558  0.00  0.00    +0.148 HD
BRANCH  15  17
ATOM     17  C   UNL     1     -36.250  26.111   4.369  0.00  0.00    +0.118 C 
ATOM     18  C   UNL     1     -35.500  25.230   5.066  0.00  0.00    +0.194 C 
BRANCH  18  21
ATOM     19  O   UNL     1     -33.907  26.259   6.321  0.00  0.00    -0.126 OA
ATOM     20  O   UNL     1     -33.281  24.998   4.627  0.00  0.00    -0.126 OA
ATOM     21  N   UNL     1     -34.140  25.515   5.357  0.00  0.00    +0.062 N 
ENDBRANCH  18  21
BRANCH  17  22
ATOM     22  N   UNL     1     -35.649  27.303   3.947  0.00  0.00    -0.319 N 
ATOM     23  C   UNL     1     -35.203  27.663   2.623  0.00  0.00    +0.109 C 
ATOM     24  H   UNL     1     -35.515  27.984   4.645  0.00  0.00    +0.148 HD
ENDBRANCH  17  22
ENDBRANCH  15  17
ENDBRANCH  14  15
ENDBRANCH  13  14
ENDBRANCH   1  13
TORSDOF 10
ENDMDL
MODEL 9
REMARK VINA RESULT:      -4.3      5.548      7.705
REMARK  Name = 5039
REMARK  10 active torsions:
REMARK  status: ('A' for Active; 'I' for Inactive)
REMARK    1  A    between atoms: S_1  and  C_2
REMARK    2  A    between atoms: S_1  and  C_13
REMARK    3  A    between atoms: C_2  and  C_5
REMARK    4  A    between atoms: C_4  and  C_8
REMARK    5  A    between atoms: C_8  and  N_9
REMARK    6  A    between atoms: C_13  and  C_14
REMARK    7  A    between atoms: C_14  and  N_15
REMARK    8  A    between atoms: N_15  and  C_17
REMARK    9  A    between atoms: C_17  and  N_22
REMARK   10  A    between atoms: C_18  and  N_21
REMARK                            x       y       z     vdW  Elec       q    Type
REMARK                         _______ _______ _______ _____ _____    ______ ____
ROOT
ATOM      1  S   UNL     1     -34.439  20.052   0.784  0.00  0.00    -0.130 S 
ENDROOT
BRANCH   1   2
ATOM      2  C   UNL     1     -33.423  18.730   1.480  0.00  0.00    +0.122 C 
BRANCH   2   5
ATOM      3  O   UNL     1     -31.259  17.666   1.173  0.00  0.00    -0.463 OA
ATOM      4  C   UNL     1     -30.065  17.883   0.560  0.00  0.00    +0.102 C 
ATOM      5  C   UNL     1     -32.038  18.745   0.899  0.00  0.00    +0.133 C 
ATOM      6  C   UNL     1     -30.075  19.088  -0.103  0.00  0.00    +0.034 C 
ATOM      7  C   UNL     1     -31.354  19.648   0.117  0.00  0.00    +0.037 C 
BRANCH   4   8
ATOM      8  C   UNL     1     -29.051  16.832   0.722  0.00  0.00    -0.011 C 
BRANCH   8   9
ATOM      9  N   UNL     1     -29.546  15.508   0.306  0.00  0.00    +0.389 N 
ATOM     10  C   UNL     1     -28.507  14.502   0.501  0.00  0.00    -0.100 C 
ATOM     11  C   UNL     1     -29.974  15.550  -1.088  0.00  0.00    -0.100 C 
ATOM     12  H   UNL     1     -30.349  15.255   0.880  0.00  0.00    -0.079 HD
ENDBRANCH   8   9
ENDBRANCH   4   8
ENDBRANCH   2   5
ENDBRANCH   1   2
BRANCH   1  13
ATOM     13  C   UNL     1     -35.305  20.543   2.307  0.00  0.00    +0.079 C 
BRANCH  13  14
ATOM     14  C   UNL     1     -36.368  21.605   2.052  0.00  0.00    +0.100 C 
BRANCH  14  15
ATOM     15  N   UNL     1     -36.853  22.171   3.290  0.00  0.00    -0.319 N 
ATOM     16  H   UNL     1     -37.771  21.934   3.555  0.00  0.00    +0.148 HD
BRANCH  15  17
ATOM     17  C   UNL     1     -36.151  23.020   4.147  0.00  0.00    +0.118 C 
ATOM     18  C   UNL     1     -35.444  24.080   3.697  0.00  0.00    +0.194 C 
BRANCH  18  21
ATOM     19  O   UNL     1     -33.507  24.861   4.594  0.00  0.00    -0.126 OA
ATOM     20  O   UNL     1     -35.423  25.646   5.345  0.00  0.00    -0.126 OA
ATOM     21  N   UNL     1     -34.746  24.917   4.605  0.00  0.00    +0.062 N 
ENDBRANCH  18  21
BRANCH  17  22
ATOM     22  N   UNL     1     -36.171  22.776   5.526  0.00  0.00    -0.319 N 
ATOM     23  C   UNL     1     -35.377  21.838   6.282  0.00  0.00    +0.109 C 
ATOM     24  H   UNL     1     -36.809  23.315   6.046  0.00  0.00    +0.148 HD
ENDBRANCH  17  22
ENDBRANCH  15  17
ENDBRANCH  14  15
ENDBRANCH  13  14
ENDBRANCH   1  13
TORSDOF 10
ENDMDL
