MODEL 1
REMARK VINA RESULT:      -5.3      0.000      0.000
REMARK  Name = 195908
REMARK  6 active torsions:
REMARK  status: ('A' for Active; 'I' for Inactive)
REMARK    1  A    between atoms: C_1  and  C_4
REMARK    2  A    between atoms: C_1  and  N_9
REMARK    3  A    between atoms: C_1  and  C_13
REMARK    4  A    between atoms: N_3  and  N_6
REMARK    5  A    between atoms: C_13  and  C_16
REMARK    6  A    between atoms: C_21  and  O_22
REMARK                            x       y       z     vdW  Elec       q    Type
REMARK                         _______ _______ _______ _____ _____    ______ ____
ROOT
ATOM      1  C   UNL     1     -35.682  20.541   1.690  0.00  0.00    +0.019 C 
ENDROOT
BRANCH   1   4
ATOM      2  O   UNL     1     -33.852  20.551   0.106  0.00  0.00    -0.276 OA
ATOM      3  N   UNL     1     -33.851  18.964   1.801  0.00  0.00    -0.255 N 
ATOM      4  C   UNL     1     -34.364  20.043   1.102  0.00  0.00    +0.215 C 
ATOM      5  H   UNL     1     -34.321  18.613   2.593  0.00  0.00    +0.169 HD
BRANCH   3   6
ATOM      6  N   UNL     1     -32.673  18.388   1.373  0.00  0.00    -0.254 NA
ATOM      7  H   UNL     1     -31.900  18.732   1.943  0.00  0.00    +0.140 HD
ATOM      8  H   UNL     1     -32.510  18.632   0.396  0.00  0.00    +0.140 HD
ENDBRANCH   3   6
ENDBRANCH   1   4
BRANCH   1   9
ATOM      9  N   UNL     1     -36.624  19.424   1.618  0.00  0.00    +0.388 N 
ATOM     10  H   UNL     1     -37.560  19.780   1.424  0.00  0.00    -0.089 HD
ATOM     11  H   UNL     1     -36.629  18.925   2.507  0.00  0.00    -0.089 HD
ATOM     12  H   UNL     1     -36.341  18.788   0.873  0.00  0.00    -0.089 HD
ENDBRANCH   1   9
BRANCH   1  13
ATOM     13  C   UNL     1     -35.496  20.975   3.152  0.00  0.00    +0.013 C 
BRANCH  13  16
ATOM     14  I   UNL     1     -34.459  25.865   5.440  0.00  0.00    -0.039 I 
ATOM     15  I   UNL     1     -39.626  24.540   2.475  0.00  0.00    -0.039 I 
ATOM     16  C   UNL     1     -36.007  22.371   3.418  0.00  0.00    -0.023 C 
ATOM     17  C   UNL     1     -37.259  22.736   2.951  0.00  0.00    +0.005 C 
ATOM     18  C   UNL     1     -35.214  23.260   4.124  0.00  0.00    +0.005 C 
ATOM     19  C   UNL     1     -35.684  24.551   4.369  0.00  0.00    +0.064 C 
ATOM     20  C   UNL     1     -37.731  24.025   3.196  0.00  0.00    +0.064 C 
ATOM     21  C   UNL     1     -36.943  24.933   3.905  0.00  0.00    +0.144 C 
BRANCH  21  22
ATOM     22  O   UNL     1     -37.405  26.195   4.146  0.00  0.00    -0.505 OA
ATOM     23  H   UNL     1     -37.837  26.675   3.466  0.00  0.00    +0.292 HD
ENDBRANCH  21  22
ENDBRANCH  13  16
ENDBRANCH   1  13
TORSDOF 6
ENDMDL
MODEL 2
REMARK VINA RESULT:      -5.3      0.004      2.473
REMARK  Name = 195908
REMARK  6 active torsions:
REMARK  status: ('A' for Active; 'I' for Inactive)
REMARK    1  A    between atoms: C_1  and  C_4
REMARK    2  A    between atoms: C_1  and  N_9
REMARK    3  A    between atoms: C_1  and  C_13
REMARK    4  A    between atoms: N_3  and  N_6
REMARK    5  A    between atoms: C_13  and  C_16
REMARK    6  A    between atoms: C_21  and  O_22
REMARK                            x       y       z     vdW  Elec       q    Type
REMARK                         _______ _______ _______ _____ _____    ______ ____
ROOT
ATOM      1  C   UNL     1     -35.681  20.541   1.691  0.00  0.00    +0.019 C 
ENDROOT
BRANCH   1   4
ATOM      2  O   UNL     1     -33.850  20.554   0.108  0.00  0.00    -0.276 OA
ATOM      3  N   UNL     1     -33.851  18.964   1.799  0.00  0.00    -0.255 N 
ATOM      4  C   UNL     1     -34.363  20.045   1.102  0.00  0.00    +0.215 C 
ATOM      5  H   UNL     1     -34.321  18.610   2.590  0.00  0.00    +0.169 HD
BRANCH   3   6
ATOM      6  N   UNL     1     -32.672  18.388   1.370  0.00  0.00    -0.254 NA
ATOM      7  H   UNL     1     -31.957  18.503   2.088  0.00  0.00    +0.140 HD
ATOM      8  H   UNL     1     -32.366  18.842   0.509  0.00  0.00    +0.140 HD
ENDBRANCH   3   6
ENDBRANCH   1   4
BRANCH   1   9
ATOM      9  N   UNL     1     -36.622  19.423   1.620  0.00  0.00    +0.388 N 
ATOM     10  H   UNL     1     -36.157  18.567   1.923  0.00  0.00    -0.089 HD
ATOM     11  H   UNL     1     -36.946  19.311   0.660  0.00  0.00    -0.089 HD
ATOM     12  H   UNL     1     -37.419  19.610   2.228  0.00  0.00    -0.089 HD
ENDBRANCH   1   9
BRANCH   1  13
ATOM     13  C   UNL     1     -35.495  20.976   3.153  0.00  0.00    +0.013 C 
BRANCH  13  16
ATOM     14  I   UNL     1     -39.628  24.537   2.482  0.00  0.00    -0.039 I 
ATOM     15  I   UNL     1     -34.455  25.868   5.434  0.00  0.00    -0.039 I 
ATOM     16  C   UNL     1     -36.005  22.372   3.419  0.00  0.00    -0.023 C 
ATOM     17  C   UNL     1     -35.211  23.262   4.122  0.00  0.00    +0.005 C 
ATOM     18  C   UNL     1     -37.258  22.735   2.954  0.00  0.00    +0.005 C 
ATOM     19  C   UNL     1     -37.732  24.025   3.201  0.00  0.00    +0.064 C 
ATOM     20  C   UNL     1     -35.683  24.551   4.368  0.00  0.00    +0.064 C 
ATOM     21  C   UNL     1     -36.943  24.932   3.908  0.00  0.00    +0.144 C 
BRANCH  21  22
ATOM     22  O   UNL     1     -37.405  26.195   4.148  0.00  0.00    -0.505 OA
ATOM     23  H   UNL     1     -36.832  26.931   4.052  0.00  0.00    +0.292 HD
ENDBRANCH  21  22
ENDBRANCH  13  16
ENDBRANCH   1  13
TORSDOF 6
ENDMDL
MODEL 3
REMARK VINA RESULT:      -5.3      4.936      6.371
REMARK  Name = 195908
REMARK  6 active torsions:
REMARK  status: ('A' for Active; 'I' for Inactive)
REMARK    1  A    between atoms: C_1  and  C_4
REMARK    2  A    between atoms: C_1  and  N_9
REMARK    3  A    between atoms: C_1  and  C_13
REMARK    4  A    between atoms: N_3  and  N_6
REMARK    5  A    between atoms: C_13  and  C_16
REMARK    6  A    between atoms: C_21  and  O_22
REMARK                            x       y       z     vdW  Elec       q    Type
REMARK                         _______ _______ _______ _____ _____    ______ ____
ROOT
ATOM      1  C   UNL     1     -34.544  26.869   3.899  0.00  0.00    +0.019 C 
ENDROOT
BRANCH   1   4
ATOM      2  O   UNL     1     -32.169  27.319   4.041  0.00  0.00    -0.276 OA
ATOM      3  N   UNL     1     -33.368  27.016   6.007  0.00  0.00    -0.255 N 
ATOM      4  C   UNL     1     -33.226  27.102   4.633  0.00  0.00    +0.215 C 
ATOM      5  H   UNL     1     -34.251  26.839   6.408  0.00  0.00    +0.169 HD
BRANCH   3   6
ATOM      6  N   UNL     1     -32.256  27.181   6.807  0.00  0.00    -0.254 NA
ATOM      7  H   UNL     1     -31.992  26.283   7.212  0.00  0.00    +0.140 HD
ATOM      8  H   UNL     1     -32.469  27.842   7.554  0.00  0.00    +0.140 HD
ENDBRANCH   3   6
ENDBRANCH   1   4
BRANCH   1   9
ATOM      9  N   UNL     1     -35.061  28.188   3.531  0.00  0.00    +0.388 N 
ATOM     10  H   UNL     1     -34.382  28.666   2.938  0.00  0.00    -0.089 HD
ATOM     11  H   UNL     1     -35.221  28.738   4.374  0.00  0.00    -0.089 HD
ATOM     12  H   UNL     1     -35.939  28.079   3.023  0.00  0.00    -0.089 HD
ENDBRANCH   1   9
BRANCH   1  13
ATOM     13  C   UNL     1     -34.321  26.024   2.636  0.00  0.00    +0.013 C 
BRANCH  13  16
ATOM     14  I   UNL     1     -35.919  21.398   0.132  0.00  0.00    -0.039 I 
ATOM     15  I   UNL     1     -35.346  21.950   6.182  0.00  0.00    -0.039 I 
ATOM     16  C   UNL     1     -34.755  24.587   2.808  0.00  0.00    -0.023 C 
ATOM     17  C   UNL     1     -34.836  24.052   4.083  0.00  0.00    +0.005 C 
ATOM     18  C   UNL     1     -35.062  23.832   1.688  0.00  0.00    +0.005 C 
ATOM     19  C   UNL     1     -35.461  22.505   1.846  0.00  0.00    +0.064 C 
ATOM     20  C   UNL     1     -35.235  22.725   4.242  0.00  0.00    +0.064 C 
ATOM     21  C   UNL     1     -35.548  21.951   3.124  0.00  0.00    +0.144 C 
BRANCH  21  22
ATOM     22  O   UNL     1     -35.940  20.652   3.280  0.00  0.00    -0.505 OA
ATOM     23  H   UNL     1     -36.717  20.342   2.857  0.00  0.00    +0.292 HD
ENDBRANCH  21  22
ENDBRANCH  13  16
ENDBRANCH   1  13
TORSDOF 6
ENDMDL
MODEL 4
REMARK VINA RESULT:      -5.3      4.968      6.122
REMARK  Name = 195908
REMARK  6 active torsions:
REMARK  status: ('A' for Active; 'I' for Inactive)
REMARK    1  A    between atoms: C_1  and  C_4
REMARK    2  A    between atoms: C_1  and  N_9
REMARK    3  A    between atoms: C_1  and  C_13
REMARK    4  A    between atoms: N_3  and  N_6
REMARK    5  A    between atoms: C_13  and  C_16
REMARK    6  A    between atoms: C_21  and  O_22
REMARK                            x       y       z     vdW  Elec       q    Type
REMARK                         _______ _______ _______ _____ _____    ______ ____
ROOT
ATOM      1  C   UNL     1     -34.433  26.869   3.931  0.00  0.00    +0.019 C 
ENDROOT
BRANCH   1   4
ATOM      2  O   UNL     1     -32.089  27.455   4.085  0.00  0.00    -0.276 OA
ATOM      3  N   UNL     1     -33.265  27.032   6.042  0.00  0.00    -0.255 N 
ATOM      4  C   UNL     1     -33.130  27.161   4.671  0.00  0.00    +0.215 C 
ATOM      5  H   UNL     1     -34.134  26.793   6.439  0.00  0.00    +0.169 HD
BRANCH   3   6
ATOM      6  N   UNL     1     -32.163  27.243   6.846  0.00  0.00    -0.254 NA
ATOM      7  H   UNL     1     -32.022  26.433   7.450  0.00  0.00    +0.140 HD
ATOM      8  H   UNL     1     -32.314  28.073   7.419  0.00  0.00    +0.140 HD
ENDBRANCH   3   6
ENDBRANCH   1   4
BRANCH   1   9
ATOM      9  N   UNL     1     -34.995  28.162   3.539  0.00  0.00    +0.388 N 
ATOM     10  H   UNL     1     -34.330  28.655   2.943  0.00  0.00    -0.089 HD
ATOM     11  H   UNL     1     -35.182  28.718   4.373  0.00  0.00    -0.089 HD
ATOM     12  H   UNL     1     -35.864  28.013   3.028  0.00  0.00    -0.089 HD
ENDBRANCH   1   9
BRANCH   1  13
ATOM     13  C   UNL     1     -34.170  26.012   2.683  0.00  0.00    +0.013 C 
BRANCH  13  16
ATOM     14  I   UNL     1     -35.355  21.944   6.185  0.00  0.00    -0.039 I 
ATOM     15  I   UNL     1     -35.877  21.456   0.125  0.00  0.00    -0.039 I 
ATOM     16  C   UNL     1     -34.648  24.588   2.839  0.00  0.00    -0.023 C 
ATOM     17  C   UNL     1     -34.965  23.852   1.710  0.00  0.00    +0.005 C 
ATOM     18  C   UNL     1     -34.759  24.045   4.108  0.00  0.00    +0.005 C 
ATOM     19  C   UNL     1     -35.201  22.730   4.253  0.00  0.00    +0.064 C 
ATOM     20  C   UNL     1     -35.406  22.537   1.853  0.00  0.00    +0.064 C 
ATOM     21  C   UNL     1     -35.525  21.975   3.125  0.00  0.00    +0.144 C 
BRANCH  21  22
ATOM     22  O   UNL     1     -35.956  20.687   3.266  0.00  0.00    -0.505 OA
ATOM     23  H   UNL     1     -35.477  19.986   2.869  0.00  0.00    +0.292 HD
ENDBRANCH  21  22
ENDBRANCH  13  16
ENDBRANCH   1  13
TORSDOF 6
ENDMDL
MODEL 5
REMARK VINA RESULT:      -5.3      4.122      5.261
REMARK  Name = 195908
REMARK  6 active torsions:
REMARK  status: ('A' for Active; 'I' for Inactive)
REMARK    1  A    between atoms: C_1  and  C_4
REMARK    2  A    between atoms: C_1  and  N_9
REMARK    3  A    between atoms: C_1  and  C_13
REMARK    4  A    between atoms: N_3  and  N_6
REMARK    5  A    between atoms: C_13  and  C_16
REMARK    6  A    between atoms: C_21  and  O_22
REMARK                            x       y       z     vdW  Elec       q    Type
REMARK                         _______ _______ _______ _____ _____    ______ ____
ROOT
ATOM      1  C   UNL     1     -35.947  24.269   4.314  0.00  0.00    +0.019 C 
ENDROOT
BRANCH   1   4
ATOM      2  O   UNL     1     -35.864  22.041   3.370  0.00  0.00    -0.276 OA
ATOM      3  N   UNL     1     -35.736  22.281   5.676  0.00  0.00    -0.255 N 
ATOM      4  C   UNL     1     -35.839  22.747   4.376  0.00  0.00    +0.215 C 
ATOM      5  H   UNL     1     -35.721  22.911   6.433  0.00  0.00    +0.169 HD
BRANCH   3   6
ATOM      6  N   UNL     1     -35.653  20.921   5.895  0.00  0.00    -0.254 NA
ATOM      7  H   UNL     1     -35.412  20.451   5.023  0.00  0.00    +0.140 HD
ATOM      8  H   UNL     1     -36.552  20.576   6.230  0.00  0.00    +0.140 HD
ENDBRANCH   3   6
ENDBRANCH   1   4
BRANCH   1   9
ATOM      9  N   UNL     1     -37.348  24.603   4.571  0.00  0.00    +0.388 N 
ATOM     10  H   UNL     1     -37.949  24.025   3.983  0.00  0.00    -0.089 HD
ATOM     11  H   UNL     1     -37.508  25.587   4.357  0.00  0.00    -0.089 HD
ATOM     12  H   UNL     1     -37.564  24.428   5.553  0.00  0.00    -0.089 HD
ENDBRANCH   1   9
BRANCH   1  13
ATOM     13  C   UNL     1     -35.050  24.922   5.377  0.00  0.00    +0.013 C 
BRANCH  13  16
ATOM     14  I   UNL     1     -31.603  29.101   6.311  0.00  0.00    -0.039 I 
ATOM     15  I   UNL     1     -32.335  26.470   0.854  0.00  0.00    -0.039 I 
ATOM     16  C   UNL     1     -34.032  25.868   4.784  0.00  0.00    -0.023 C 
ATOM     17  C   UNL     1     -33.721  25.772   3.438  0.00  0.00    +0.005 C 
ATOM     18  C   UNL     1     -33.431  26.813   5.598  0.00  0.00    +0.005 C 
ATOM     19  C   UNL     1     -32.489  27.687   5.051  0.00  0.00    +0.064 C 
ATOM     20  C   UNL     1     -32.781  26.645   2.891  0.00  0.00    +0.064 C 
ATOM     21  C   UNL     1     -32.165  27.602   3.697  0.00  0.00    +0.144 C 
BRANCH  21  22
ATOM     22  O   UNL     1     -31.245  28.458   3.161  0.00  0.00    -0.505 OA
ATOM     23  H   UNL     1     -30.477  28.120   2.743  0.00  0.00    +0.292 HD
ENDBRANCH  21  22
ENDBRANCH  13  16
ENDBRANCH   1  13
TORSDOF 6
ENDMDL
MODEL 6
REMARK VINA RESULT:      -5.2      4.129      5.630
REMARK  Name = 195908
REMARK  6 active torsions:
REMARK  status: ('A' for Active; 'I' for Inactive)
REMARK    1  A    between atoms: C_1  and  C_4
REMARK    2  A    between atoms: C_1  and  N_9
REMARK    3  A    between atoms: C_1  and  C_13
REMARK    4  A    between atoms: N_3  and  N_6
REMARK    5  A    between atoms: C_13  and  C_16
REMARK    6  A    between atoms: C_21  and  O_22
REMARK                            x       y       z     vdW  Elec       q    Type
REMARK                         _______ _______ _______ _____ _____    ______ ____
ROOT
ATOM      1  C   UNL     1     -35.942  24.289   4.307  0.00  0.00    +0.019 C 
ENDROOT
BRANCH   1   4
ATOM      2  O   UNL     1     -35.753  22.059   3.384  0.00  0.00    -0.276 OA
ATOM      3  N   UNL     1     -35.760  22.315   5.692  0.00  0.00    -0.255 N 
ATOM      4  C   UNL     1     -35.801  22.771   4.386  0.00  0.00    +0.215 C 
ATOM      5  H   UNL     1     -35.804  22.949   6.445  0.00  0.00    +0.169 HD
BRANCH   3   6
ATOM      6  N   UNL     1     -35.658  20.958   5.924  0.00  0.00    -0.254 NA
ATOM      7  H   UNL     1     -36.063  20.738   6.833  0.00  0.00    +0.140 HD
ATOM      8  H   UNL     1     -34.675  20.685   5.913  0.00  0.00    +0.140 HD
ENDBRANCH   3   6
ENDBRANCH   1   4
BRANCH   1   9
ATOM      9  N   UNL     1     -37.352  24.595   4.550  0.00  0.00    +0.388 N 
ATOM     10  H   UNL     1     -37.639  24.192   5.443  0.00  0.00    -0.089 HD
ATOM     11  H   UNL     1     -37.920  24.200   3.801  0.00  0.00    -0.089 HD
ATOM     12  H   UNL     1     -37.480  25.606   4.577  0.00  0.00    -0.089 HD
ENDBRANCH   1   9
BRANCH   1  13
ATOM     13  C   UNL     1     -35.068  24.973   5.370  0.00  0.00    +0.013 C 
BRANCH  13  16
ATOM     14  I   UNL     1     -32.417  26.564   0.825  0.00  0.00    -0.039 I 
ATOM     15  I   UNL     1     -31.573  29.112   6.305  0.00  0.00    -0.039 I 
ATOM     16  C   UNL     1     -34.052  25.919   4.774  0.00  0.00    -0.023 C 
ATOM     17  C   UNL     1     -33.430  26.848   5.591  0.00  0.00    +0.005 C 
ATOM     18  C   UNL     1     -33.764  25.840   3.422  0.00  0.00    +0.005 C 
ATOM     19  C   UNL     1     -32.828  26.715   2.870  0.00  0.00    +0.064 C 
ATOM     20  C   UNL     1     -32.493  27.722   5.041  0.00  0.00    +0.064 C 
ATOM     21  C   UNL     1     -32.192  27.656   3.680  0.00  0.00    +0.144 C 
BRANCH  21  22
ATOM     22  O   UNL     1     -31.274  28.512   3.141  0.00  0.00    -0.505 OA
ATOM     23  H   UNL     1     -30.764  28.247   2.401  0.00  0.00    +0.292 HD
ENDBRANCH  21  22
ENDBRANCH  13  16
ENDBRANCH   1  13
TORSDOF 6
ENDMDL
MODEL 7
REMARK VINA RESULT:      -5.2      3.764      6.046
REMARK  Name = 195908
REMARK  6 active torsions:
REMARK  status: ('A' for Active; 'I' for Inactive)
REMARK    1  A    between atoms: C_1  and  C_4
REMARK    2  A    between atoms: C_1  and  N_9
REMARK    3  A    between atoms: C_1  and  C_13
REMARK    4  A    between atoms: N_3  and  N_6
REMARK    5  A    between atoms: C_13  and  C_16
REMARK    6  A    between atoms: C_21  and  O_22
REMARK                            x       y       z     vdW  Elec       q    Type
REMARK                         _______ _______ _______ _____ _____    ______ ____
ROOT
ATOM      1  C   UNL     1     -36.620  22.185   2.767  0.00  0.00    +0.019 C 
ENDROOT
BRANCH   1   4
ATOM      2  O   UNL     1     -38.631  23.433   2.257  0.00  0.00    -0.276 OA
ATOM      3  N   UNL     1     -38.728  21.113   2.261  0.00  0.00    -0.255 N 
ATOM      4  C   UNL     1     -38.093  22.336   2.395  0.00  0.00    +0.215 C 
ATOM      5  H   UNL     1     -38.227  20.273   2.387  0.00  0.00    +0.169 HD
BRANCH   3   6
ATOM      6  N   UNL     1     -40.072  21.087   1.949  0.00  0.00    -0.254 NA
ATOM      7  H   UNL     1     -40.458  20.174   2.185  0.00  0.00    +0.140 HD
ATOM      8  H   UNL     1     -40.192  21.260   0.951  0.00  0.00    +0.140 HD
ENDBRANCH   3   6
ENDBRANCH   1   4
BRANCH   1   9
ATOM      9  N   UNL     1     -36.522  22.426   4.206  0.00  0.00    +0.388 N 
ATOM     10  H   UNL     1     -35.987  21.674   4.642  0.00  0.00    -0.089 HD
ATOM     11  H   UNL     1     -37.457  22.455   4.611  0.00  0.00    -0.089 HD
ATOM     12  H   UNL     1     -36.052  23.316   4.370  0.00  0.00    -0.089 HD
ENDBRANCH   1   9
BRANCH   1  13
ATOM     13  C   UNL     1     -36.117  20.772   2.437  0.00  0.00    +0.013 C 
BRANCH  13  16
ATOM     14  I   UNL     1     -32.839  23.687  -0.876  0.00  0.00    -0.039 I 
ATOM     15  I   UNL     1     -31.769  17.890   0.702  0.00  0.00    -0.039 I 
ATOM     16  C   UNL     1     -34.857  20.777   1.603  0.00  0.00    -0.023 C 
ATOM     17  C   UNL     1     -34.081  19.632   1.541  0.00  0.00    +0.005 C 
ATOM     18  C   UNL     1     -34.504  21.927   0.917  0.00  0.00    +0.005 C 
ATOM     19  C   UNL     1     -33.340  21.933   0.148  0.00  0.00    +0.064 C 
ATOM     20  C   UNL     1     -32.917  19.637   0.772  0.00  0.00    +0.064 C 
ATOM     21  C   UNL     1     -32.547  20.788   0.075  0.00  0.00    +0.144 C 
BRANCH  21  22
ATOM     22  O   UNL     1     -31.408  20.793  -0.679  0.00  0.00    -0.505 OA
ATOM     23  H   UNL     1     -30.619  21.165  -0.336  0.00  0.00    +0.292 HD
ENDBRANCH  21  22
ENDBRANCH  13  16
ENDBRANCH   1  13
TORSDOF 6
ENDMDL
MODEL 8
REMARK VINA RESULT:      -5.1     12.744     14.274
REMARK  Name = 195908
REMARK  6 active torsions:
REMARK  status: ('A' for Active; 'I' for Inactive)
REMARK    1  A    between atoms: C_1  and  C_4
REMARK    2  A    between atoms: C_1  and  N_9
REMARK    3  A    between atoms: C_1  and  C_13
REMARK    4  A    between atoms: N_3  and  N_6
REMARK    5  A    between atoms: C_13  and  C_16
REMARK    6  A    between atoms: C_21  and  O_22
REMARK                            x       y       z     vdW  Elec       q    Type
REMARK                         _______ _______ _______ _____ _____    ______ ____
ROOT
ATOM      1  C   UNL     1     -41.064  35.381   1.498  0.00  0.00    +0.019 C 
ENDROOT
BRANCH   1   4
ATOM      2  O   UNL     1     -42.713  33.702   2.067  0.00  0.00    -0.276 OA
ATOM      3  N   UNL     1     -41.989  35.161   3.722  0.00  0.00    -0.255 N 
ATOM      4  C   UNL     1     -42.009  34.639   2.440  0.00  0.00    +0.215 C 
ATOM      5  H   UNL     1     -41.395  35.915   3.945  0.00  0.00    +0.169 HD
BRANCH   3   6
ATOM      6  N   UNL     1     -42.811  34.608   4.683  0.00  0.00    -0.254 NA
ATOM      7  H   UNL     1     -43.662  35.164   4.762  0.00  0.00    +0.140 HD
ATOM      8  H   UNL     1     -42.326  34.597   5.580  0.00  0.00    +0.140 HD
ENDBRANCH   3   6
ENDBRANCH   1   4
BRANCH   1   9
ATOM      9  N   UNL     1     -41.840  36.457   0.883  0.00  0.00    +0.388 N 
ATOM     10  H   UNL     1     -42.719  36.082   0.525  0.00  0.00    -0.089 HD
ATOM     11  H   UNL     1     -41.307  36.864   0.114  0.00  0.00    -0.089 HD
ATOM     12  H   UNL     1     -42.035  37.176   1.579  0.00  0.00    -0.089 HD
ENDBRANCH   1   9
BRANCH   1  13
ATOM     13  C   UNL     1     -39.875  35.970   2.274  0.00  0.00    +0.013 C 
BRANCH  13  16
ATOM     14  I   UNL     1     -36.432  31.789   1.333  0.00  0.00    -0.039 I 
ATOM     15  I   UNL     1     -35.232  37.574  -0.194  0.00  0.00    -0.039 I 
ATOM     16  C   UNL     1     -38.539  35.544   1.711  0.00  0.00    -0.023 C 
ATOM     17  C   UNL     1     -37.703  36.498   1.157  0.00  0.00    +0.005 C 
ATOM     18  C   UNL     1     -38.178  34.208   1.760  0.00  0.00    +0.005 C 
ATOM     19  C   UNL     1     -36.945  33.814   1.239  0.00  0.00    +0.064 C 
ATOM     20  C   UNL     1     -36.470  36.105   0.636  0.00  0.00    +0.064 C 
ATOM     21  C   UNL     1     -36.091  34.763   0.678  0.00  0.00    +0.144 C 
BRANCH  21  22
ATOM     22  O   UNL     1     -34.883  34.378   0.169  0.00  0.00    -0.505 OA
ATOM     23  H   UNL     1     -34.689  33.468   0.058  0.00  0.00    +0.292 HD
ENDBRANCH  21  22
ENDBRANCH  13  16
ENDBRANCH   1  13
TORSDOF 6
ENDMDL
MODEL 9
REMARK VINA RESULT:      -5.1      3.715      6.027
REMARK  Name = 195908
REMARK  6 active torsions:
REMARK  status: ('A' for Active; 'I' for Inactive)
REMARK    1  A    between atoms: C_1  and  C_4
REMARK    2  A    between atoms: C_1  and  N_9
REMARK    3  A    between atoms: C_1  and  C_13
REMARK    4  A    between atoms: N_3  and  N_6
REMARK    5  A    between atoms: C_13  and  C_16
REMARK    6  A    between atoms: C_21  and  O_22
REMARK                            x       y       z     vdW  Elec       q    Type
REMARK                         _______ _______ _______ _____ _____    ______ ____
ROOT
ATOM      1  C   UNL     1     -36.556  22.088   2.854  0.00  0.00    +0.019 C 
ENDROOT
BRANCH   1   4
ATOM      2  O   UNL     1     -38.620  23.354   2.850  0.00  0.00    -0.276 OA
ATOM      3  N   UNL     1     -38.675  21.126   2.196  0.00  0.00    -0.255 N 
ATOM      4  C   UNL     1     -38.054  22.283   2.634  0.00  0.00    +0.215 C 
ATOM      5  H   UNL     1     -38.153  20.305   2.045  0.00  0.00    +0.169 HD
BRANCH   3   6
ATOM      6  N   UNL     1     -40.037  21.140   1.975  0.00  0.00    -0.254 NA
ATOM      7  H   UNL     1     -40.451  21.942   2.450  0.00  0.00    +0.140 HD
ATOM      8  H   UNL     1     -40.449  20.280   2.337  0.00  0.00    +0.140 HD
ENDBRANCH   3   6
ENDBRANCH   1   4
BRANCH   1   9
ATOM      9  N   UNL     1     -36.320  22.224   4.291  0.00  0.00    +0.388 N 
ATOM     10  H   UNL     1     -37.168  21.976   4.800  0.00  0.00    -0.089 HD
ATOM     11  H   UNL     1     -36.065  23.188   4.504  0.00  0.00    -0.089 HD
ATOM     12  H   UNL     1     -35.561  21.603   4.570  0.00  0.00    -0.089 HD
ENDBRANCH   1   9
BRANCH   1  13
ATOM     13  C   UNL     1     -36.114  20.695   2.380  0.00  0.00    +0.013 C 
BRANCH  13  16
ATOM     14  I   UNL     1     -31.674  17.921   0.704  0.00  0.00    -0.039 I 
ATOM     15  I   UNL     1     -32.878  23.680  -0.913  0.00  0.00    -0.039 I 
ATOM     16  C   UNL     1     -34.846  20.730   1.559  0.00  0.00    -0.023 C 
ATOM     17  C   UNL     1     -34.515  21.886   0.872  0.00  0.00    +0.005 C 
ATOM     18  C   UNL     1     -34.039  19.606   1.511  0.00  0.00    +0.005 C 
ATOM     19  C   UNL     1     -32.868  19.637   0.752  0.00  0.00    +0.064 C 
ATOM     20  C   UNL     1     -33.345  21.918   0.113  0.00  0.00    +0.064 C 
ATOM     21  C   UNL     1     -32.521  20.793   0.053  0.00  0.00    +0.144 C 
BRANCH  21  22
ATOM     22  O   UNL     1     -31.375  20.825  -0.688  0.00  0.00    -0.505 OA
ATOM     23  H   UNL     1     -31.414  21.017  -1.605  0.00  0.00    +0.292 HD
ENDBRANCH  21  22
ENDBRANCH  13  16
ENDBRANCH   1  13
TORSDOF 6
ENDMDL
