MODEL 1
REMARK VINA RESULT:      -4.4      0.000      0.000
REMARK  Name = 197956
REMARK  12 active torsions:
REMARK  status: ('A' for Active; 'I' for Inactive)
REMARK    1  A    between atoms: C_1  and  S_2
REMARK    2  A    between atoms: C_1  and  S_11
REMARK    3  A    between atoms: S_2  and  P_4
REMARK    4  A    between atoms: P_4  and  O_5
REMARK    5  A    between atoms: P_4  and  O_8
REMARK    6  A    between atoms: O_5  and  C_6
REMARK    7  A    between atoms: O_8  and  C_9
REMARK    8  A    between atoms: S_11  and  P_12
REMARK    9  A    between atoms: P_12  and  O_14
REMARK   10  A    between atoms: P_12  and  O_17
REMARK   11  A    between atoms: O_14  and  C_15
REMARK   12  A    between atoms: O_17  and  C_18
REMARK                            x       y       z     vdW  Elec       q    Type
REMARK                         _______ _______ _______ _____ _____    ______ ____
ROOT
ATOM      1  C   UNL     1     -35.839  23.026   1.320  0.00  0.00    +0.135 C 
ENDROOT
BRANCH   1   2
ATOM      2  S   UNL     1     -35.128  24.271   2.422  0.00  0.00    -0.051 S 
BRANCH   2   4
ATOM      3  S   UNL     1     -38.461  24.950   3.184  0.00  0.00    +0.003 S 
ATOM      4  P   UNL     1     -36.640  24.679   3.859  0.00  0.00    +0.232 P 
BRANCH   4   5
ATOM      5  O   UNL     1     -36.541  23.468   4.953  0.00  0.00    -0.310 OA
BRANCH   5   6
ATOM      6  C   UNL     1     -35.369  22.674   5.052  0.00  0.00    +0.150 C 
ATOM      7  C   UNL     1     -35.306  22.059   6.434  0.00  0.00    +0.035 C 
ENDBRANCH   5   6
ENDBRANCH   4   5
BRANCH   4   8
ATOM      8  O   UNL     1     -36.144  25.954   4.752  0.00  0.00    -0.310 OA
BRANCH   8   9
ATOM      9  C   UNL     1     -34.813  26.432   4.661  0.00  0.00    +0.150 C 
ATOM     10  C   UNL     1     -34.084  26.109   5.949  0.00  0.00    +0.035 C 
ENDBRANCH   8   9
ENDBRANCH   4   8
ENDBRANCH   2   4
ENDBRANCH   1   2
BRANCH   1  11
ATOM     11  S   UNL     1     -34.579  21.883   0.714  0.00  0.00    -0.018 S 
BRANCH  11  12
ATOM     12  P   UNL     1     -35.087  20.021   1.541  0.00  0.00    +0.394 P 
ATOM     13  O   UNL     1     -36.027  20.208   2.704  0.00  0.00    -0.246 OA
BRANCH  12  14
ATOM     14  O   UNL     1     -33.728  19.237   1.970  0.00  0.00    -0.287 OA
BRANCH  14  15
ATOM     15  C   UNL     1     -33.059  18.451   0.999  0.00  0.00    +0.152 C 
ATOM     16  C   UNL     1     -31.840  19.203   0.510  0.00  0.00    +0.035 C 
ENDBRANCH  14  15
ENDBRANCH  12  14
BRANCH  12  17
ATOM     17  O   UNL     1     -35.724  19.044   0.409  0.00  0.00    -0.287 OA
BRANCH  17  18
ATOM     18  C   UNL     1     -36.959  19.375  -0.201  0.00  0.00    +0.152 C 
ATOM     19  C   UNL     1     -37.711  18.100  -0.518  0.00  0.00    +0.035 C 
ENDBRANCH  17  18
ENDBRANCH  12  17
ENDBRANCH  11  12
ENDBRANCH   1  11
TORSDOF 12
ENDMDL
MODEL 2
REMARK VINA RESULT:      -4.3      2.505      6.624
REMARK  Name = 197956
REMARK  12 active torsions:
REMARK  status: ('A' for Active; 'I' for Inactive)
REMARK    1  A    between atoms: C_1  and  S_2
REMARK    2  A    between atoms: C_1  and  S_11
REMARK    3  A    between atoms: S_2  and  P_4
REMARK    4  A    between atoms: P_4  and  O_5
REMARK    5  A    between atoms: P_4  and  O_8
REMARK    6  A    between atoms: O_5  and  C_6
REMARK    7  A    between atoms: O_8  and  C_9
REMARK    8  A    between atoms: S_11  and  P_12
REMARK    9  A    between atoms: P_12  and  O_14
REMARK   10  A    between atoms: P_12  and  O_17
REMARK   11  A    between atoms: O_14  and  C_15
REMARK   12  A    between atoms: O_17  and  C_18
REMARK                            x       y       z     vdW  Elec       q    Type
REMARK                         _______ _______ _______ _____ _____    ______ ____
ROOT
ATOM      1  C   UNL     1     -35.270  24.942   2.083  0.00  0.00    +0.135 C 
ENDROOT
BRANCH   1   2
ATOM      2  S   UNL     1     -35.040  23.224   1.569  0.00  0.00    -0.051 S 
BRANCH   2   4
ATOM      3  S   UNL     1     -38.320  22.165   2.094  0.00  0.00    +0.003 S 
ATOM      4  P   UNL     1     -36.455  22.107   2.697  0.00  0.00    +0.232 P 
BRANCH   4   5
ATOM      5  O   UNL     1     -35.856  20.588   2.768  0.00  0.00    -0.310 OA
BRANCH   5   6
ATOM      6  C   UNL     1     -35.510  19.889   1.583  0.00  0.00    +0.150 C 
ATOM      7  C   UNL     1     -34.041  19.527   1.636  0.00  0.00    +0.035 C 
ENDBRANCH   5   6
ENDBRANCH   4   5
BRANCH   4   8
ATOM      8  O   UNL     1     -36.324  22.573   4.258  0.00  0.00    -0.310 OA
BRANCH   8   9
ATOM      9  C   UNL     1     -35.140  22.321   4.995  0.00  0.00    +0.150 C 
ATOM     10  C   UNL     1     -35.508  22.053   6.440  0.00  0.00    +0.035 C 
ENDBRANCH   8   9
ENDBRANCH   4   8
ENDBRANCH   2   4
ENDBRANCH   1   2
BRANCH   1  11
ATOM     11  S   UNL     1     -33.763  25.910   1.842  0.00  0.00    -0.018 S 
BRANCH  11  12
ATOM     12  P   UNL     1     -33.404  26.830   3.696  0.00  0.00    +0.394 P 
ATOM     13  O   UNL     1     -34.336  27.999   3.885  0.00  0.00    -0.246 OA
BRANCH  12  14
ATOM     14  O   UNL     1     -31.841  27.271   3.780  0.00  0.00    -0.287 OA
BRANCH  14  15
ATOM     15  C   UNL     1     -31.520  28.548   4.303  0.00  0.00    +0.152 C 
ATOM     16  C   UNL     1     -31.461  28.462   5.813  0.00  0.00    +0.035 C 
ENDBRANCH  14  15
ENDBRANCH  12  14
BRANCH  12  17
ATOM     17  O   UNL     1     -33.540  25.754   4.907  0.00  0.00    -0.287 OA
BRANCH  17  18
ATOM     18  C   UNL     1     -34.356  26.046   6.028  0.00  0.00    +0.152 C 
ATOM     19  C   UNL     1     -35.799  25.753   5.678  0.00  0.00    +0.035 C 
ENDBRANCH  17  18
ENDBRANCH  12  17
ENDBRANCH  11  12
ENDBRANCH   1  11
TORSDOF 12
ENDMDL
MODEL 3
REMARK VINA RESULT:      -4.3      3.413      5.921
REMARK  Name = 197956
REMARK  12 active torsions:
REMARK  status: ('A' for Active; 'I' for Inactive)
REMARK    1  A    between atoms: C_1  and  S_2
REMARK    2  A    between atoms: C_1  and  S_11
REMARK    3  A    between atoms: S_2  and  P_4
REMARK    4  A    between atoms: P_4  and  O_5
REMARK    5  A    between atoms: P_4  and  O_8
REMARK    6  A    between atoms: O_5  and  C_6
REMARK    7  A    between atoms: O_8  and  C_9
REMARK    8  A    between atoms: S_11  and  P_12
REMARK    9  A    between atoms: P_12  and  O_14
REMARK   10  A    between atoms: P_12  and  O_17
REMARK   11  A    between atoms: O_14  and  C_15
REMARK   12  A    between atoms: O_17  and  C_18
REMARK                            x       y       z     vdW  Elec       q    Type
REMARK                         _______ _______ _______ _____ _____    ______ ____
ROOT
ATOM      1  C   UNL     1     -34.609  26.524   3.290  0.00  0.00    +0.135 C 
ENDROOT
BRANCH   1   2
ATOM      2  S   UNL     1     -32.879  27.004   3.082  0.00  0.00    -0.051 S 
BRANCH   2   4
ATOM      3  S   UNL     1     -31.406  30.157   2.874  0.00  0.00    +0.003 S 
ATOM      4  P   UNL     1     -32.781  29.035   3.707  0.00  0.00    +0.232 P 
BRANCH   4   5
ATOM      5  O   UNL     1     -34.292  29.626   3.508  0.00  0.00    -0.310 OA
BRANCH   5   6
ATOM      6  C   UNL     1     -34.498  30.989   3.169  0.00  0.00    +0.150 C 
ATOM      7  C   UNL     1     -35.808  31.117   2.422  0.00  0.00    +0.035 C 
ENDBRANCH   5   6
ENDBRANCH   4   5
BRANCH   4   8
ATOM      8  O   UNL     1     -32.647  29.046   5.335  0.00  0.00    -0.310 OA
BRANCH   8   9
ATOM      9  C   UNL     1     -31.840  28.093   6.005  0.00  0.00    +0.150 C 
ATOM     10  C   UNL     1     -32.729  27.194   6.839  0.00  0.00    +0.035 C 
ENDBRANCH   8   9
ENDBRANCH   4   8
ENDBRANCH   2   4
ENDBRANCH   1   2
BRANCH   1  11
ATOM     11  S   UNL     1     -34.909  24.852   2.675  0.00  0.00    -0.018 S 
BRANCH  11  12
ATOM     12  P   UNL     1     -36.616  24.190   3.704  0.00  0.00    +0.394 P 
ATOM     13  O   UNL     1     -37.749  25.166   3.514  0.00  0.00    -0.246 OA
BRANCH  12  14
ATOM     14  O   UNL     1     -36.246  23.977   5.273  0.00  0.00    -0.287 OA
BRANCH  14  15
ATOM     15  C   UNL     1     -35.051  23.293   5.606  0.00  0.00    +0.152 C 
ATOM     16  C   UNL     1     -35.401  22.023   6.352  0.00  0.00    +0.035 C 
ENDBRANCH  14  15
ENDBRANCH  12  14
BRANCH  12  17
ATOM     17  O   UNL     1     -37.030  22.692   3.226  0.00  0.00    -0.287 OA
BRANCH  17  18
ATOM     18  C   UNL     1     -36.290  22.043   2.207  0.00  0.00    +0.152 C 
ATOM     19  C   UNL     1     -35.541  20.874   2.811  0.00  0.00    +0.035 C 
ENDBRANCH  17  18
ENDBRANCH  12  17
ENDBRANCH  11  12
ENDBRANCH   1  11
TORSDOF 12
ENDMDL
MODEL 4
REMARK VINA RESULT:      -4.3      3.210      7.535
REMARK  Name = 197956
REMARK  12 active torsions:
REMARK  status: ('A' for Active; 'I' for Inactive)
REMARK    1  A    between atoms: C_1  and  S_2
REMARK    2  A    between atoms: C_1  and  S_11
REMARK    3  A    between atoms: S_2  and  P_4
REMARK    4  A    between atoms: P_4  and  O_5
REMARK    5  A    between atoms: P_4  and  O_8
REMARK    6  A    between atoms: O_5  and  C_6
REMARK    7  A    between atoms: O_8  and  C_9
REMARK    8  A    between atoms: S_11  and  P_12
REMARK    9  A    between atoms: P_12  and  O_14
REMARK   10  A    between atoms: P_12  and  O_17
REMARK   11  A    between atoms: O_14  and  C_15
REMARK   12  A    between atoms: O_17  and  C_18
REMARK                            x       y       z     vdW  Elec       q    Type
REMARK                         _______ _______ _______ _____ _____    ______ ____
ROOT
ATOM      1  C   UNL     1     -34.888  25.991   2.428  0.00  0.00    +0.135 C 
ENDROOT
BRANCH   1   2
ATOM      2  S   UNL     1     -36.406  25.666   3.353  0.00  0.00    -0.051 S 
BRANCH   2   4
ATOM      3  S   UNL     1     -38.346  22.966   2.303  0.00  0.00    +0.003 S 
ATOM      4  P   UNL     1     -36.713  23.567   3.208  0.00  0.00    +0.232 P 
BRANCH   4   5
ATOM      5  O   UNL     1     -35.352  22.972   2.525  0.00  0.00    -0.310 OA
BRANCH   5   6
ATOM      6  C   UNL     1     -35.402  21.831   1.683  0.00  0.00    +0.150 C 
ATOM      7  C   UNL     1     -35.203  20.589   2.525  0.00  0.00    +0.035 C 
ENDBRANCH   5   6
ENDBRANCH   4   5
BRANCH   4   8
ATOM      8  O   UNL     1     -36.610  22.946   4.715  0.00  0.00    -0.310 OA
BRANCH   8   9
ATOM      9  C   UNL     1     -35.489  23.218   5.539  0.00  0.00    +0.150 C 
ATOM     10  C   UNL     1     -35.114  21.959   6.294  0.00  0.00    +0.035 C 
ENDBRANCH   8   9
ENDBRANCH   4   8
ENDBRANCH   2   4
ENDBRANCH   1   2
BRANCH   1  11
ATOM     11  S   UNL     1     -33.427  25.828   3.478  0.00  0.00    -0.018 S 
BRANCH  11  12
ATOM     12  P   UNL     1     -32.883  27.798   3.965  0.00  0.00    +0.394 P 
ATOM     13  O   UNL     1     -31.623  28.185   3.235  0.00  0.00    -0.246 OA
BRANCH  12  14
ATOM     14  O   UNL     1     -32.722  27.926   5.578  0.00  0.00    -0.287 OA
BRANCH  14  15
ATOM     15  C   UNL     1     -31.582  28.585   6.100  0.00  0.00    +0.152 C 
ATOM     16  C   UNL     1     -31.865  30.070   6.181  0.00  0.00    +0.035 C 
ENDBRANCH  14  15
ENDBRANCH  12  14
BRANCH  12  17
ATOM     17  O   UNL     1     -34.101  28.826   3.642  0.00  0.00    -0.287 OA
BRANCH  17  18
ATOM     18  C   UNL     1     -33.917  29.872   2.704  0.00  0.00    +0.152 C 
ATOM     19  C   UNL     1     -34.546  31.138   3.247  0.00  0.00    +0.035 C 
ENDBRANCH  17  18
ENDBRANCH  12  17
ENDBRANCH  11  12
ENDBRANCH   1  11
TORSDOF 12
ENDMDL
MODEL 5
REMARK VINA RESULT:      -4.2      1.748      2.674
REMARK  Name = 197956
REMARK  12 active torsions:
REMARK  status: ('A' for Active; 'I' for Inactive)
REMARK    1  A    between atoms: C_1  and  S_2
REMARK    2  A    between atoms: C_1  and  S_11
REMARK    3  A    between atoms: S_2  and  P_4
REMARK    4  A    between atoms: P_4  and  O_5
REMARK    5  A    between atoms: P_4  and  O_8
REMARK    6  A    between atoms: O_5  and  C_6
REMARK    7  A    between atoms: O_8  and  C_9
REMARK    8  A    between atoms: S_11  and  P_12
REMARK    9  A    between atoms: P_12  and  O_14
REMARK   10  A    between atoms: P_12  and  O_17
REMARK   11  A    between atoms: O_14  and  C_15
REMARK   12  A    between atoms: O_17  and  C_18
REMARK                            x       y       z     vdW  Elec       q    Type
REMARK                         _______ _______ _______ _____ _____    ______ ____
ROOT
ATOM      1  C   UNL     1     -36.364  23.010   1.181  0.00  0.00    +0.135 C 
ENDROOT
BRANCH   1   2
ATOM      2  S   UNL     1     -36.171  24.669   1.874  0.00  0.00    -0.051 S 
BRANCH   2   4
ATOM      3  S   UNL     1     -36.002  25.787   5.172  0.00  0.00    +0.003 S 
ATOM      4  P   UNL     1     -36.772  24.501   3.907  0.00  0.00    +0.232 P 
BRANCH   4   5
ATOM      5  O   UNL     1     -38.406  24.532   3.884  0.00  0.00    -0.310 OA
BRANCH   5   6
ATOM      6  C   UNL     1     -39.105  25.108   2.791  0.00  0.00    +0.150 C 
ATOM      7  C   UNL     1     -39.933  24.036   2.116  0.00  0.00    +0.035 C 
ENDBRANCH   5   6
ENDBRANCH   4   5
BRANCH   4   8
ATOM      8  O   UNL     1     -36.490  22.964   4.382  0.00  0.00    -0.310 OA
BRANCH   8   9
ATOM      9  C   UNL     1     -35.238  22.590   4.930  0.00  0.00    +0.150 C 
ATOM     10  C   UNL     1     -35.458  22.010   6.312  0.00  0.00    +0.035 C 
ENDBRANCH   8   9
ENDBRANCH   4   8
ENDBRANCH   2   4
ENDBRANCH   1   2
BRANCH   1  11
ATOM     11  S   UNL     1     -34.775  22.160   1.053  0.00  0.00    -0.018 S 
BRANCH  11  12
ATOM     12  P   UNL     1     -35.191  20.155   1.522  0.00  0.00    +0.394 P 
ATOM     13  O   UNL     1     -36.264  20.079   2.577  0.00  0.00    -0.246 OA
BRANCH  12  14
ATOM     14  O   UNL     1     -33.817  19.419   1.988  0.00  0.00    -0.287 OA
BRANCH  14  15
ATOM     15  C   UNL     1     -33.203  18.497   1.104  0.00  0.00    +0.152 C 
ATOM     16  C   UNL     1     -31.891  19.077   0.621  0.00  0.00    +0.035 C 
ENDBRANCH  14  15
ENDBRANCH  12  14
BRANCH  12  17
ATOM     17  O   UNL     1     -35.607  19.327   0.185  0.00  0.00    -0.287 OA
BRANCH  17  18
ATOM     18  C   UNL     1     -36.119  20.013  -0.943  0.00  0.00    +0.152 C 
ATOM     19  C   UNL     1     -37.624  19.852  -0.978  0.00  0.00    +0.035 C 
ENDBRANCH  17  18
ENDBRANCH  12  17
ENDBRANCH  11  12
ENDBRANCH   1  11
TORSDOF 12
ENDMDL
MODEL 6
REMARK VINA RESULT:      -4.2      4.157      7.646
REMARK  Name = 197956
REMARK  12 active torsions:
REMARK  status: ('A' for Active; 'I' for Inactive)
REMARK    1  A    between atoms: C_1  and  S_2
REMARK    2  A    between atoms: C_1  and  S_11
REMARK    3  A    between atoms: S_2  and  P_4
REMARK    4  A    between atoms: P_4  and  O_5
REMARK    5  A    between atoms: P_4  and  O_8
REMARK    6  A    between atoms: O_5  and  C_6
REMARK    7  A    between atoms: O_8  and  C_9
REMARK    8  A    between atoms: S_11  and  P_12
REMARK    9  A    between atoms: P_12  and  O_14
REMARK   10  A    between atoms: P_12  and  O_17
REMARK   11  A    between atoms: O_14  and  C_15
REMARK   12  A    between atoms: O_17  and  C_18
REMARK                            x       y       z     vdW  Elec       q    Type
REMARK                         _______ _______ _______ _____ _____    ______ ____
ROOT
ATOM      1  C   UNL     1     -34.887  26.146   2.280  0.00  0.00    +0.135 C 
ENDROOT
BRANCH   1   2
ATOM      2  S   UNL     1     -36.456  25.880   3.138  0.00  0.00    -0.051 S 
BRANCH   2   4
ATOM      3  S   UNL     1     -35.415  22.655   2.318  0.00  0.00    +0.003 S 
ATOM      4  P   UNL     1     -36.598  23.776   3.409  0.00  0.00    +0.232 P 
BRANCH   4   5
ATOM      5  O   UNL     1     -36.408  23.528   5.014  0.00  0.00    -0.310 OA
BRANCH   5   6
ATOM      6  C   UNL     1     -35.140  23.184   5.549  0.00  0.00    +0.150 C 
ATOM      7  C   UNL     1     -35.302  22.000   6.478  0.00  0.00    +0.035 C 
ENDBRANCH   5   6
ENDBRANCH   4   5
BRANCH   4   8
ATOM      8  O   UNL     1     -38.164  23.355   3.206  0.00  0.00    -0.310 OA
BRANCH   8   9
ATOM      9  C   UNL     1     -39.032  24.144   2.411  0.00  0.00    +0.150 C 
ATOM     10  C   UNL     1     -40.024  24.848   3.313  0.00  0.00    +0.035 C 
ENDBRANCH   8   9
ENDBRANCH   4   8
ENDBRANCH   2   4
ENDBRANCH   1   2
BRANCH   1  11
ATOM     11  S   UNL     1     -33.485  26.016   3.413  0.00  0.00    -0.018 S 
BRANCH  11  12
ATOM     12  P   UNL     1     -32.957  28.000   3.855  0.00  0.00    +0.394 P 
ATOM     13  O   UNL     1     -31.792  28.431   3.002  0.00  0.00    -0.246 OA
BRANCH  12  14
ATOM     14  O   UNL     1     -32.634  28.126   5.444  0.00  0.00    -0.287 OA
BRANCH  14  15
ATOM     15  C   UNL     1     -31.497  28.867   5.853  0.00  0.00    +0.152 C 
ATOM     16  C   UNL     1     -31.909  30.302   6.105  0.00  0.00    +0.035 C 
ENDBRANCH  14  15
ENDBRANCH  12  14
BRANCH  12  17
ATOM     17  O   UNL     1     -34.234  28.990   3.668  0.00  0.00    -0.287 OA
BRANCH  17  18
ATOM     18  C   UNL     1     -34.086  30.216   2.975  0.00  0.00    +0.152 C 
ATOM     19  C   UNL     1     -35.448  30.852   2.799  0.00  0.00    +0.035 C 
ENDBRANCH  17  18
ENDBRANCH  12  17
ENDBRANCH  11  12
ENDBRANCH   1  11
TORSDOF 12
ENDMDL
MODEL 7
REMARK VINA RESULT:      -4.2      3.872      6.378
REMARK  Name = 197956
REMARK  12 active torsions:
REMARK  status: ('A' for Active; 'I' for Inactive)
REMARK    1  A    between atoms: C_1  and  S_2
REMARK    2  A    between atoms: C_1  and  S_11
REMARK    3  A    between atoms: S_2  and  P_4
REMARK    4  A    between atoms: P_4  and  O_5
REMARK    5  A    between atoms: P_4  and  O_8
REMARK    6  A    between atoms: O_5  and  C_6
REMARK    7  A    between atoms: O_8  and  C_9
REMARK    8  A    between atoms: S_11  and  P_12
REMARK    9  A    between atoms: P_12  and  O_14
REMARK   10  A    between atoms: P_12  and  O_17
REMARK   11  A    between atoms: O_14  and  C_15
REMARK   12  A    between atoms: O_17  and  C_18
REMARK                            x       y       z     vdW  Elec       q    Type
REMARK                         _______ _______ _______ _____ _____    ______ ____
ROOT
ATOM      1  C   UNL     1     -35.419  25.984   3.207  0.00  0.00    +0.135 C 
ENDROOT
BRANCH   1   2
ATOM      2  S   UNL     1     -33.730  25.718   3.794  0.00  0.00    -0.051 S 
BRANCH   2   4
ATOM      3  S   UNL     1     -31.196  28.032   3.178  0.00  0.00    +0.003 S 
ATOM      4  P   UNL     1     -32.913  27.664   4.052  0.00  0.00    +0.232 P 
BRANCH   4   5
ATOM      5  O   UNL     1     -34.093  28.698   3.595  0.00  0.00    -0.310 OA
BRANCH   5   6
ATOM      6  C   UNL     1     -33.806  29.797   2.744  0.00  0.00    +0.150 C 
ATOM      7  C   UNL     1     -34.401  31.053   3.344  0.00  0.00    +0.035 C 
ENDBRANCH   5   6
ENDBRANCH   4   5
BRANCH   4   8
ATOM      8  O   UNL     1     -32.834  27.961   5.656  0.00  0.00    -0.310 OA
BRANCH   8   9
ATOM      9  C   UNL     1     -31.603  28.293   6.275  0.00  0.00    +0.150 C 
ATOM     10  C   UNL     1     -31.613  29.764   6.636  0.00  0.00    +0.035 C 
ENDBRANCH   8   9
ENDBRANCH   4   8
ENDBRANCH   2   4
ENDBRANCH   1   2
BRANCH   1  11
ATOM     11  S   UNL     1     -35.938  24.676   2.075  0.00  0.00    -0.018 S 
BRANCH  11  12
ATOM     12  P   UNL     1     -37.237  23.466   3.198  0.00  0.00    +0.394 P 
ATOM     13  O   UNL     1     -37.548  22.198   2.446  0.00  0.00    -0.246 OA
BRANCH  12  14
ATOM     14  O   UNL     1     -38.579  24.312   3.557  0.00  0.00    -0.287 OA
BRANCH  14  15
ATOM     15  C   UNL     1     -39.447  24.694   2.504  0.00  0.00    +0.152 C 
ATOM     16  C   UNL     1     -40.450  25.698   3.032  0.00  0.00    +0.035 C 
ENDBRANCH  14  15
ENDBRANCH  12  14
BRANCH  12  17
ATOM     17  O   UNL     1     -36.607  23.153   4.664  0.00  0.00    -0.287 OA
BRANCH  17  18
ATOM     18  C   UNL     1     -35.465  22.323   4.783  0.00  0.00    +0.152 C 
ATOM     19  C   UNL     1     -35.231  22.011   6.245  0.00  0.00    +0.035 C 
ENDBRANCH  17  18
ENDBRANCH  12  17
ENDBRANCH  11  12
ENDBRANCH   1  11
TORSDOF 12
ENDMDL
MODEL 8
REMARK VINA RESULT:      -4.2      4.124      7.665
REMARK  Name = 197956
REMARK  12 active torsions:
REMARK  status: ('A' for Active; 'I' for Inactive)
REMARK    1  A    between atoms: C_1  and  S_2
REMARK    2  A    between atoms: C_1  and  S_11
REMARK    3  A    between atoms: S_2  and  P_4
REMARK    4  A    between atoms: P_4  and  O_5
REMARK    5  A    between atoms: P_4  and  O_8
REMARK    6  A    between atoms: O_5  and  C_6
REMARK    7  A    between atoms: O_8  and  C_9
REMARK    8  A    between atoms: S_11  and  P_12
REMARK    9  A    between atoms: P_12  and  O_14
REMARK   10  A    between atoms: P_12  and  O_17
REMARK   11  A    between atoms: O_14  and  C_15
REMARK   12  A    between atoms: O_17  and  C_18
REMARK                            x       y       z     vdW  Elec       q    Type
REMARK                         _______ _______ _______ _____ _____    ______ ____
ROOT
ATOM      1  C   UNL     1     -34.495  25.927   1.944  0.00  0.00    +0.135 C 
ENDROOT
BRANCH   1   2
ATOM      2  S   UNL     1     -35.062  24.247   2.292  0.00  0.00    -0.051 S 
BRANCH   2   4
ATOM      3  S   UNL     1     -35.962  25.773   5.294  0.00  0.00    +0.003 S 
ATOM      4  P   UNL     1     -36.403  24.434   3.931  0.00  0.00    +0.232 P 
BRANCH   4   5
ATOM      5  O   UNL     1     -37.877  24.668   3.264  0.00  0.00    -0.310 OA
BRANCH   5   6
ATOM      6  C   UNL     1     -38.334  25.976   2.955  0.00  0.00    +0.150 C 
ATOM      7  C   UNL     1     -38.340  26.153   1.452  0.00  0.00    +0.035 C 
ENDBRANCH   5   6
ENDBRANCH   4   5
BRANCH   4   8
ATOM      8  O   UNL     1     -36.586  22.953   4.594  0.00  0.00    -0.310 OA
BRANCH   8   9
ATOM      9  C   UNL     1     -35.459  22.172   4.952  0.00  0.00    +0.150 C 
ATOM     10  C   UNL     1     -35.362  22.111   6.463  0.00  0.00    +0.035 C 
ENDBRANCH   8   9
ENDBRANCH   4   8
ENDBRANCH   2   4
ENDBRANCH   1   2
BRANCH   1  11
ATOM     11  S   UNL     1     -32.940  26.288   2.790  0.00  0.00    -0.018 S 
BRANCH  11  12
ATOM     12  P   UNL     1     -33.168  28.234   3.545  0.00  0.00    +0.394 P 
ATOM     13  O   UNL     1     -32.210  29.174   2.861  0.00  0.00    -0.246 OA
BRANCH  12  14
ATOM     14  O   UNL     1     -32.959  28.210   5.158  0.00  0.00    -0.287 OA
BRANCH  14  15
ATOM     15  C   UNL     1     -31.678  28.508   5.685  0.00  0.00    +0.152 C 
ATOM     16  C   UNL     1     -31.744  29.828   6.423  0.00  0.00    +0.035 C 
ENDBRANCH  14  15
ENDBRANCH  12  14
BRANCH  12  17
ATOM     17  O   UNL     1     -34.708  28.733   3.390  0.00  0.00    -0.287 OA
BRANCH  17  18
ATOM     18  C   UNL     1     -35.044  29.710   2.420  0.00  0.00    +0.152 C 
ATOM     19  C   UNL     1     -35.361  31.013   3.121  0.00  0.00    +0.035 C 
ENDBRANCH  17  18
ENDBRANCH  12  17
ENDBRANCH  11  12
ENDBRANCH   1  11
TORSDOF 12
ENDMDL
MODEL 9
REMARK VINA RESULT:      -4.2      4.029      7.861
REMARK  Name = 197956
REMARK  12 active torsions:
REMARK  status: ('A' for Active; 'I' for Inactive)
REMARK    1  A    between atoms: C_1  and  S_2
REMARK    2  A    between atoms: C_1  and  S_11
REMARK    3  A    between atoms: S_2  and  P_4
REMARK    4  A    between atoms: P_4  and  O_5
REMARK    5  A    between atoms: P_4  and  O_8
REMARK    6  A    between atoms: O_5  and  C_6
REMARK    7  A    between atoms: O_8  and  C_9
REMARK    8  A    between atoms: S_11  and  P_12
REMARK    9  A    between atoms: P_12  and  O_14
REMARK   10  A    between atoms: P_12  and  O_17
REMARK   11  A    between atoms: O_14  and  C_15
REMARK   12  A    between atoms: O_17  and  C_18
REMARK                            x       y       z     vdW  Elec       q    Type
REMARK                         _______ _______ _______ _____ _____    ______ ____
ROOT
ATOM      1  C   UNL     1     -33.813  25.521   4.085  0.00  0.00    +0.135 C 
ENDROOT
BRANCH   1   2
ATOM      2  S   UNL     1     -35.486  25.726   4.739  0.00  0.00    -0.051 S 
BRANCH   2   4
ATOM      3  S   UNL     1     -36.205  23.854   1.888  0.00  0.00    +0.003 S 
ATOM      4  P   UNL     1     -36.659  24.252   3.753  0.00  0.00    +0.232 P 
BRANCH   4   5
ATOM      5  O   UNL     1     -36.603  22.933   4.717  0.00  0.00    -0.310 OA
BRANCH   5   6
ATOM      6  C   UNL     1     -35.397  22.203   4.878  0.00  0.00    +0.150 C 
ATOM      7  C   UNL     1     -35.132  22.008   6.355  0.00  0.00    +0.035 C 
ENDBRANCH   5   6
ENDBRANCH   4   5
BRANCH   4   8
ATOM      8  O   UNL     1     -38.227  24.686   3.900  0.00  0.00    -0.310 OA
BRANCH   8   9
ATOM      9  C   UNL     1     -38.893  25.374   2.855  0.00  0.00    +0.150 C 
ATOM     10  C   UNL     1     -39.998  24.493   2.311  0.00  0.00    +0.035 C 
ENDBRANCH   8   9
ENDBRANCH   4   8
ENDBRANCH   2   4
ENDBRANCH   1   2
BRANCH   1  11
ATOM     11  S   UNL     1     -33.443  26.756   2.820  0.00  0.00    -0.018 S 
BRANCH  11  12
ATOM     12  P   UNL     1     -32.249  28.187   3.789  0.00  0.00    +0.394 P 
ATOM     13  O   UNL     1     -30.817  27.723   3.837  0.00  0.00    -0.246 OA
BRANCH  12  14
ATOM     14  O   UNL     1     -32.853  28.473   5.272  0.00  0.00    -0.287 OA
BRANCH  14  15
ATOM     15  C   UNL     1     -32.041  28.207   6.402  0.00  0.00    +0.152 C 
ATOM     16  C   UNL     1     -32.694  27.126   7.236  0.00  0.00    +0.035 C 
ENDBRANCH  14  15
ENDBRANCH  12  14
BRANCH  12  17
ATOM     17  O   UNL     1     -32.385  29.635   3.061  0.00  0.00    -0.287 OA
BRANCH  17  18
ATOM     18  C   UNL     1     -32.714  30.784   3.822  0.00  0.00    +0.152 C 
ATOM     19  C   UNL     1     -31.437  31.480   4.243  0.00  0.00    +0.035 C 
ENDBRANCH  17  18
ENDBRANCH  12  17
ENDBRANCH  11  12
ENDBRANCH   1  11
TORSDOF 12
ENDMDL
