MODEL 1
REMARK VINA RESULT:      -6.0      0.000      0.000
REMARK  Name = 53462210
REMARK  12 active torsions:
REMARK  status: ('A' for Active; 'I' for Inactive)
REMARK    1  A    between atoms: C_6  and  O_12
REMARK    2  A    between atoms: C_6  and  C_17
REMARK    3  A    between atoms: C_8  and  C_20
REMARK    4  A    between atoms: C_9  and  O_14
REMARK    5  A    between atoms: C_17  and  O_18
REMARK    6  A    between atoms: C_20  and  C_21
REMARK    7  A    between atoms: C_22  and  C_23
REMARK    8  A    between atoms: C_23  and  C_24
REMARK    9  A    between atoms: C_24  and  C_25
REMARK   10  A    between atoms: C_25  and  C_26
REMARK   11  A    between atoms: C_26  and  C_27
REMARK   12  A    between atoms: C_27  and  C_28
REMARK                            x       y       z     vdW  Elec       q    Type
REMARK                         _______ _______ _______ _____ _____    ______ ____
ROOT
ATOM      1  O   UNL     1     -34.176  24.433   4.361  0.00  0.00    -0.440 OA
ATOM      2  O   UNL     1     -35.913  21.533   3.502  0.00  0.00    -0.449 OA
ATOM      3  O   UNL     1     -35.442  22.221   5.635  0.00  0.00    -0.246 OA
ATOM      4  O   UNL     1     -33.810  26.109   5.884  0.00  0.00    -0.247 OA
ATOM      5  C   UNL     1     -35.314  23.805   3.772  0.00  0.00    +0.262 C 
ATOM      6  C   UNL     1     -36.465  24.790   3.984  0.00  0.00    +0.256 C 
ATOM      7  C   UNL     1     -35.008  23.349   2.356  0.00  0.00    +0.098 C 
ATOM      8  C   UNL     1     -35.878  22.122   2.195  0.00  0.00    +0.177 C 
ATOM      9  C   UNL     1     -36.076  25.441   5.303  0.00  0.00    +0.249 C 
ATOM     10  C   UNL     1     -35.551  22.460   4.443  0.00  0.00    +0.357 C 
ATOM     11  C   UNL     1     -34.572  25.400   5.245  0.00  0.00    +0.348 C 
ENDROOT
BRANCH   6  12
ATOM     12  O   UNL     1     -37.730  24.169   4.105  0.00  0.00    -0.371 OA
ATOM     13  H   UNL     1     -37.629  23.312   4.547  0.00  0.00    +0.211 HD
ENDBRANCH   6  12
BRANCH   9  14
ATOM     14  O   UNL     1     -36.555  26.752   5.471  0.00  0.00    -0.372 OA
ATOM     15  H   UNL     1     -36.881  27.087   4.620  0.00  0.00    +0.211 HD
ENDBRANCH   9  14
BRANCH   6  17
ATOM     16  O   UNL     1     -35.832  26.745   2.698  0.00  0.00    -0.247 OA
ATOM     17  C   UNL     1     -36.604  25.818   2.891  0.00  0.00    +0.345 C 
BRANCH  17  18
ATOM     18  O   UNL     1     -37.711  25.578   2.145  0.00  0.00    -0.478 OA
ATOM     19  H   UNL     1     -38.080  26.261   1.622  0.00  0.00    +0.295 HD
ENDBRANCH  17  18
ENDBRANCH   6  17
BRANCH   8  20
ATOM     20  C   UNL     1     -35.317  21.122   1.200  0.00  0.00    +0.069 C 
BRANCH  20  21
ATOM     21  C   UNL     1     -34.403  20.072   1.837  0.00  0.00    -0.027 C 
ATOM     22  C   UNL     1     -33.588  19.221   0.859  0.00  0.00    -0.031 C 
BRANCH  22  23
ATOM     23  C   UNL     1     -32.623  18.217   1.494  0.00  0.00    +0.026 C 
BRANCH  23  24
ATOM     24  C   UNL     1     -31.294  18.093   0.746  0.00  0.00    +0.005 C 
BRANCH  24  25
ATOM     25  C   UNL     1     -31.252  19.026  -0.467  0.00  0.00    +0.001 C 
BRANCH  25  26
ATOM     26  C   UNL     1     -30.085  20.013  -0.366  0.00  0.00    +0.005 C 
BRANCH  26  27
ATOM     27  C   UNL     1     -30.348  21.332  -1.102  0.00  0.00    +0.026 C 
BRANCH  27  28
ATOM     28  C   UNL     1     -31.802  21.699  -1.145  0.00  0.00    -0.026 C 
ATOM     29  C   UNL     1     -32.341  22.699  -0.439  0.00  0.00    -0.005 C 
ENDBRANCH  27  28
ENDBRANCH  26  27
ENDBRANCH  25  26
ENDBRANCH  24  25
ENDBRANCH  23  24
ENDBRANCH  22  23
ENDBRANCH  20  21
ENDBRANCH   8  20
TORSDOF 12
ENDMDL
MODEL 2
REMARK VINA RESULT:      -5.7      1.298      2.281
REMARK  Name = 53462210
REMARK  12 active torsions:
REMARK  status: ('A' for Active; 'I' for Inactive)
REMARK    1  A    between atoms: C_6  and  O_12
REMARK    2  A    between atoms: C_6  and  C_17
REMARK    3  A    between atoms: C_8  and  C_20
REMARK    4  A    between atoms: C_9  and  O_14
REMARK    5  A    between atoms: C_17  and  O_18
REMARK    6  A    between atoms: C_20  and  C_21
REMARK    7  A    between atoms: C_22  and  C_23
REMARK    8  A    between atoms: C_23  and  C_24
REMARK    9  A    between atoms: C_24  and  C_25
REMARK   10  A    between atoms: C_25  and  C_26
REMARK   11  A    between atoms: C_26  and  C_27
REMARK   12  A    between atoms: C_27  and  C_28
REMARK                            x       y       z     vdW  Elec       q    Type
REMARK                         _______ _______ _______ _____ _____    ______ ____
ROOT
ATOM      1  O   UNL     1     -34.264  24.358   4.056  0.00  0.00    -0.440 OA
ATOM      2  O   UNL     1     -36.233  21.636   3.117  0.00  0.00    -0.449 OA
ATOM      3  O   UNL     1     -35.553  22.115   5.251  0.00  0.00    -0.246 OA
ATOM      4  O   UNL     1     -33.678  25.877   5.672  0.00  0.00    -0.247 OA
ATOM      5  C   UNL     1     -35.480  23.842   3.516  0.00  0.00    +0.262 C 
ATOM      6  C   UNL     1     -36.551  24.865   3.904  0.00  0.00    +0.256 C 
ATOM      7  C   UNL     1     -35.317  23.493   2.048  0.00  0.00    +0.098 C 
ATOM      8  C   UNL     1     -36.267  22.331   1.863  0.00  0.00    +0.177 C 
ATOM      9  C   UNL     1     -36.019  25.380   5.233  0.00  0.00    +0.249 C 
ATOM     10  C   UNL     1     -35.742  22.460   4.095  0.00  0.00    +0.357 C 
ATOM     11  C   UNL     1     -34.530  25.266   5.045  0.00  0.00    +0.348 C 
ENDROOT
BRANCH   6  12
ATOM     12  O   UNL     1     -37.837  24.303   4.081  0.00  0.00    -0.371 OA
ATOM     13  H   UNL     1     -38.499  24.872   3.658  0.00  0.00    +0.211 HD
ENDBRANCH   6  12
BRANCH   9  14
ATOM     14  O   UNL     1     -36.405  26.695   5.545  0.00  0.00    -0.372 OA
ATOM     15  H   UNL     1     -35.927  26.992   6.336  0.00  0.00    +0.211 HD
ENDBRANCH   9  14
BRANCH   6  17
ATOM     16  O   UNL     1     -35.848  26.380   2.147  0.00  0.00    -0.247 OA
ATOM     17  C   UNL     1     -36.715  25.988   2.913  0.00  0.00    +0.345 C 
BRANCH  17  18
ATOM     18  O   UNL     1     -37.964  26.512   2.985  0.00  0.00    -0.478 OA
ATOM     19  H   UNL     1     -38.214  27.206   2.408  0.00  0.00    +0.295 HD
ENDBRANCH  17  18
ENDBRANCH   6  17
BRANCH   8  20
ATOM     20  C   UNL     1     -35.848  21.391   0.747  0.00  0.00    +0.069 C 
BRANCH  20  21
ATOM     21  C   UNL     1     -34.405  20.896   0.875  0.00  0.00    -0.027 C 
ATOM     22  C   UNL     1     -34.241  19.403   1.173  0.00  0.00    -0.031 C 
BRANCH  22  23
ATOM     23  C   UNL     1     -32.799  18.891   1.233  0.00  0.00    +0.026 C 
BRANCH  23  24
ATOM     24  C   UNL     1     -31.812  19.759   0.450  0.00  0.00    +0.005 C 
BRANCH  24  25
ATOM     25  C   UNL     1     -30.572  18.958   0.043  0.00  0.00    +0.001 C 
BRANCH  25  26
ATOM     26  C   UNL     1     -30.539  17.595   0.741  0.00  0.00    +0.005 C 
BRANCH  26  27
ATOM     27  C   UNL     1     -29.142  16.966   0.763  0.00  0.00    +0.026 C 
BRANCH  27  28
ATOM     28  C   UNL     1     -28.112  17.847   1.406  0.00  0.00    -0.026 C 
ATOM     29  C   UNL     1     -27.552  17.598   2.595  0.00  0.00    -0.005 C 
ENDBRANCH  27  28
ENDBRANCH  26  27
ENDBRANCH  25  26
ENDBRANCH  24  25
ENDBRANCH  23  24
ENDBRANCH  22  23
ENDBRANCH  20  21
ENDBRANCH   8  20
TORSDOF 12
ENDMDL
MODEL 3
REMARK VINA RESULT:      -5.7      1.372      2.435
REMARK  Name = 53462210
REMARK  12 active torsions:
REMARK  status: ('A' for Active; 'I' for Inactive)
REMARK    1  A    between atoms: C_6  and  O_12
REMARK    2  A    between atoms: C_6  and  C_17
REMARK    3  A    between atoms: C_8  and  C_20
REMARK    4  A    between atoms: C_9  and  O_14
REMARK    5  A    between atoms: C_17  and  O_18
REMARK    6  A    between atoms: C_20  and  C_21
REMARK    7  A    between atoms: C_22  and  C_23
REMARK    8  A    between atoms: C_23  and  C_24
REMARK    9  A    between atoms: C_24  and  C_25
REMARK   10  A    between atoms: C_25  and  C_26
REMARK   11  A    between atoms: C_26  and  C_27
REMARK   12  A    between atoms: C_27  and  C_28
REMARK                            x       y       z     vdW  Elec       q    Type
REMARK                         _______ _______ _______ _____ _____    ______ ____
ROOT
ATOM      1  O   UNL     1     -34.153  24.372   4.140  0.00  0.00    -0.440 OA
ATOM      2  O   UNL     1     -36.010  21.588   3.155  0.00  0.00    -0.449 OA
ATOM      3  O   UNL     1     -35.378  22.076   5.302  0.00  0.00    -0.246 OA
ATOM      4  O   UNL     1     -33.645  25.899   5.775  0.00  0.00    -0.247 OA
ATOM      5  C   UNL     1     -35.343  23.817   3.580  0.00  0.00    +0.262 C 
ATOM      6  C   UNL     1     -36.454  24.798   3.959  0.00  0.00    +0.256 C 
ATOM      7  C   UNL     1     -35.146  23.484   2.112  0.00  0.00    +0.098 C 
ATOM      8  C   UNL     1     -36.051  22.290   1.906  0.00  0.00    +0.177 C 
ATOM      9  C   UNL     1     -35.960  25.323   5.298  0.00  0.00    +0.249 C 
ATOM     10  C   UNL     1     -35.563  22.422   4.146  0.00  0.00    +0.357 C 
ATOM     11  C   UNL     1     -34.466  25.263   5.132  0.00  0.00    +0.348 C 
ENDROOT
BRANCH   6  12
ATOM     12  O   UNL     1     -37.722  24.190   4.113  0.00  0.00    -0.371 OA
ATOM     13  H   UNL     1     -38.388  24.704   3.631  0.00  0.00    +0.211 HD
ENDBRANCH   6  12
BRANCH   9  14
ATOM     14  O   UNL     1     -36.397  26.621   5.614  0.00  0.00    -0.372 OA
ATOM     15  H   UNL     1     -36.167  26.824   6.535  0.00  0.00    +0.211 HD
ENDBRANCH   9  14
BRANCH   6  17
ATOM     16  O   UNL     1     -35.846  26.824   2.775  0.00  0.00    -0.247 OA
ATOM     17  C   UNL     1     -36.644  25.921   2.973  0.00  0.00    +0.345 C 
BRANCH  17  18
ATOM     18  O   UNL     1     -37.832  25.798   2.329  0.00  0.00    -0.478 OA
ATOM     19  H   UNL     1     -38.601  26.197   2.684  0.00  0.00    +0.295 HD
ENDBRANCH  17  18
ENDBRANCH   6  17
BRANCH   8  20
ATOM     20  C   UNL     1     -35.583  21.374   0.790  0.00  0.00    +0.069 C 
BRANCH  20  21
ATOM     21  C   UNL     1     -34.451  20.432   1.207  0.00  0.00    -0.027 C 
ATOM     22  C   UNL     1     -33.258  20.364   0.249  0.00  0.00    -0.031 C 
BRANCH  22  23
ATOM     23  C   UNL     1     -32.094  19.476   0.697  0.00  0.00    +0.026 C 
BRANCH  23  24
ATOM     24  C   UNL     1     -32.543  18.144   1.302  0.00  0.00    +0.005 C 
BRANCH  24  25
ATOM     25  C   UNL     1     -32.210  16.974   0.373  0.00  0.00    +0.001 C 
BRANCH  25  26
ATOM     26  C   UNL     1     -33.250  16.838  -0.743  0.00  0.00    +0.005 C 
BRANCH  26  27
ATOM     27  C   UNL     1     -34.668  16.591  -0.215  0.00  0.00    +0.026 C 
BRANCH  27  28
ATOM     28  C   UNL     1     -35.662  17.598  -0.713  0.00  0.00    -0.026 C 
ATOM     29  C   UNL     1     -36.924  17.682  -0.277  0.00  0.00    -0.005 C 
ENDBRANCH  27  28
ENDBRANCH  26  27
ENDBRANCH  25  26
ENDBRANCH  24  25
ENDBRANCH  23  24
ENDBRANCH  22  23
ENDBRANCH  20  21
ENDBRANCH   8  20
TORSDOF 12
ENDMDL
MODEL 4
REMARK VINA RESULT:      -5.7      1.415      1.835
REMARK  Name = 53462210
REMARK  12 active torsions:
REMARK  status: ('A' for Active; 'I' for Inactive)
REMARK    1  A    between atoms: C_6  and  O_12
REMARK    2  A    between atoms: C_6  and  C_17
REMARK    3  A    between atoms: C_8  and  C_20
REMARK    4  A    between atoms: C_9  and  O_14
REMARK    5  A    between atoms: C_17  and  O_18
REMARK    6  A    between atoms: C_20  and  C_21
REMARK    7  A    between atoms: C_22  and  C_23
REMARK    8  A    between atoms: C_23  and  C_24
REMARK    9  A    between atoms: C_24  and  C_25
REMARK   10  A    between atoms: C_25  and  C_26
REMARK   11  A    between atoms: C_26  and  C_27
REMARK   12  A    between atoms: C_27  and  C_28
REMARK                            x       y       z     vdW  Elec       q    Type
REMARK                         _______ _______ _______ _____ _____    ______ ____
ROOT
ATOM      1  O   UNL     1     -34.056  24.796   3.186  0.00  0.00    -0.440 OA
ATOM      2  O   UNL     1     -36.707  22.793   4.249  0.00  0.00    -0.449 OA
ATOM      3  O   UNL     1     -35.148  23.772   5.612  0.00  0.00    -0.246 OA
ATOM      4  O   UNL     1     -32.597  26.506   3.646  0.00  0.00    -0.247 OA
ATOM      5  C   UNL     1     -35.460  24.574   3.319  0.00  0.00    +0.262 C 
ATOM      6  C   UNL     1     -36.072  25.971   3.447  0.00  0.00    +0.256 C 
ATOM      7  C   UNL     1     -35.970  23.663   2.216  0.00  0.00    +0.098 C 
ATOM      8  C   UNL     1     -37.113  22.927   2.880  0.00  0.00    +0.177 C 
ATOM      9  C   UNL     1     -34.964  26.729   4.162  0.00  0.00    +0.249 C 
ATOM     10  C   UNL     1     -35.719  23.697   4.535  0.00  0.00    +0.357 C 
ATOM     11  C   UNL     1     -33.726  26.041   3.650  0.00  0.00    +0.348 C 
ENDROOT
BRANCH   6  12
ATOM     12  O   UNL     1     -37.257  26.004   4.217  0.00  0.00    -0.371 OA
ATOM     13  H   UNL     1     -37.280  25.235   4.810  0.00  0.00    +0.211 HD
ENDBRANCH   6  12
BRANCH   9  14
ATOM     14  O   UNL     1     -34.938  28.110   3.899  0.00  0.00    -0.372 OA
ATOM     15  H   UNL     1     -34.544  28.575   4.654  0.00  0.00    +0.211 HD
ENDBRANCH   9  14
BRANCH   6  17
ATOM     16  O   UNL     1     -35.618  26.807   1.217  0.00  0.00    -0.247 OA
ATOM     17  C   UNL     1     -36.409  26.617   2.128  0.00  0.00    +0.345 C 
BRANCH  17  18
ATOM     18  O   UNL     1     -37.719  26.965   2.086  0.00  0.00    -0.478 OA
ATOM     19  H   UNL     1     -38.356  26.352   1.777  0.00  0.00    +0.295 HD
ENDBRANCH  17  18
ENDBRANCH   6  17
BRANCH   8  20
ATOM     20  C   UNL     1     -37.363  21.554   2.284  0.00  0.00    +0.069 C 
BRANCH  20  21
ATOM     21  C   UNL     1     -36.079  20.773   1.991  0.00  0.00    -0.027 C 
ATOM     22  C   UNL     1     -36.160  19.778   0.829  0.00  0.00    -0.031 C 
BRANCH  22  23
ATOM     23  C   UNL     1     -34.859  19.045   0.489  0.00  0.00    +0.026 C 
BRANCH  23  24
ATOM     24  C   UNL     1     -33.784  19.182   1.568  0.00  0.00    +0.005 C 
BRANCH  24  25
ATOM     25  C   UNL     1     -32.391  18.890   1.003  0.00  0.00    +0.001 C 
BRANCH  25  26
ATOM     26  C   UNL     1     -32.222  19.496  -0.394  0.00  0.00    +0.005 C 
BRANCH  26  27
ATOM     27  C   UNL     1     -31.429  20.807  -0.388  0.00  0.00    +0.026 C 
BRANCH  27  28
ATOM     28  C   UNL     1     -32.253  21.993  -0.793  0.00  0.00    -0.026 C 
ATOM     29  C   UNL     1     -33.314  22.435  -0.108  0.00  0.00    -0.005 C 
ENDBRANCH  27  28
ENDBRANCH  26  27
ENDBRANCH  25  26
ENDBRANCH  24  25
ENDBRANCH  23  24
ENDBRANCH  22  23
ENDBRANCH  20  21
ENDBRANCH   8  20
TORSDOF 12
ENDMDL
MODEL 5
REMARK VINA RESULT:      -5.7      1.640      2.666
REMARK  Name = 53462210
REMARK  12 active torsions:
REMARK  status: ('A' for Active; 'I' for Inactive)
REMARK    1  A    between atoms: C_6  and  O_12
REMARK    2  A    between atoms: C_6  and  C_17
REMARK    3  A    between atoms: C_8  and  C_20
REMARK    4  A    between atoms: C_9  and  O_14
REMARK    5  A    between atoms: C_17  and  O_18
REMARK    6  A    between atoms: C_20  and  C_21
REMARK    7  A    between atoms: C_22  and  C_23
REMARK    8  A    between atoms: C_23  and  C_24
REMARK    9  A    between atoms: C_24  and  C_25
REMARK   10  A    between atoms: C_25  and  C_26
REMARK   11  A    between atoms: C_26  and  C_27
REMARK   12  A    between atoms: C_27  and  C_28
REMARK                            x       y       z     vdW  Elec       q    Type
REMARK                         _______ _______ _______ _____ _____    ______ ____
ROOT
ATOM      1  O   UNL     1     -34.192  24.787   2.982  0.00  0.00    -0.440 OA
ATOM      2  O   UNL     1     -36.847  22.865   4.175  0.00  0.00    -0.449 OA
ATOM      3  O   UNL     1     -35.131  23.698   5.443  0.00  0.00    -0.246 OA
ATOM      4  O   UNL     1     -32.611  26.399   3.393  0.00  0.00    -0.247 OA
ATOM      5  C   UNL     1     -35.589  24.627   3.224  0.00  0.00    +0.262 C 
ATOM      6  C   UNL     1     -36.114  26.044   3.468  0.00  0.00    +0.256 C 
ATOM      7  C   UNL     1     -36.237  23.799   2.129  0.00  0.00    +0.098 C 
ATOM      8  C   UNL     1     -37.358  23.087   2.854  0.00  0.00    +0.177 C 
ATOM      9  C   UNL     1     -34.912  26.711   4.119  0.00  0.00    +0.249 C 
ATOM     10  C   UNL     1     -35.792  23.705   4.416  0.00  0.00    +0.357 C 
ATOM     11  C   UNL     1     -33.760  25.990   3.473  0.00  0.00    +0.348 C 
ENDROOT
BRANCH   6  12
ATOM     12  O   UNL     1     -37.228  26.096   4.337  0.00  0.00    -0.371 OA
ATOM     13  H   UNL     1     -37.454  25.198   4.628  0.00  0.00    +0.211 HD
ENDBRANCH   6  12
BRANCH   9  14
ATOM     14  O   UNL     1     -34.836  28.100   3.919  0.00  0.00    -0.372 OA
ATOM     15  H   UNL     1     -35.432  28.549   4.540  0.00  0.00    +0.211 HD
ENDBRANCH   9  14
BRANCH   6  17
ATOM     16  O   UNL     1     -35.763  27.132   1.330  0.00  0.00    -0.247 OA
ATOM     17  C   UNL     1     -36.525  26.771   2.214  0.00  0.00    +0.345 C 
BRANCH  17  18
ATOM     18  O   UNL     1     -37.866  26.975   2.196  0.00  0.00    -0.478 OA
ATOM     19  H   UNL     1     -38.422  26.484   2.768  0.00  0.00    +0.295 HD
ENDBRANCH  17  18
ENDBRANCH   6  17
BRANCH   8  20
ATOM     20  C   UNL     1     -37.728  21.759   2.219  0.00  0.00    +0.069 C 
BRANCH  20  21
ATOM     21  C   UNL     1     -36.537  20.814   2.040  0.00  0.00    -0.027 C 
ATOM     22  C   UNL     1     -36.520  20.007   0.738  0.00  0.00    -0.031 C 
BRANCH  22  23
ATOM     23  C   UNL     1     -35.296  19.113   0.525  0.00  0.00    +0.026 C 
BRANCH  23  24
ATOM     24  C   UNL     1     -34.080  19.539   1.350  0.00  0.00    +0.005 C 
BRANCH  24  25
ATOM     25  C   UNL     1     -33.035  20.237   0.477  0.00  0.00    +0.001 C 
BRANCH  25  26
ATOM     26  C   UNL     1     -31.740  19.421   0.402  0.00  0.00    +0.005 C 
BRANCH  26  27
ATOM     27  C   UNL     1     -31.817  18.101   1.179  0.00  0.00    +0.026 C 
BRANCH  27  28
ATOM     28  C   UNL     1     -31.813  16.895   0.287  0.00  0.00    -0.026 C 
ATOM     29  C   UNL     1     -32.920  16.270  -0.131  0.00  0.00    -0.005 C 
ENDBRANCH  27  28
ENDBRANCH  26  27
ENDBRANCH  25  26
ENDBRANCH  24  25
ENDBRANCH  23  24
ENDBRANCH  22  23
ENDBRANCH  20  21
ENDBRANCH   8  20
TORSDOF 12
ENDMDL
MODEL 6
REMARK VINA RESULT:      -5.6      3.399      7.243
REMARK  Name = 53462210
REMARK  12 active torsions:
REMARK  status: ('A' for Active; 'I' for Inactive)
REMARK    1  A    between atoms: C_6  and  O_12
REMARK    2  A    between atoms: C_6  and  C_17
REMARK    3  A    between atoms: C_8  and  C_20
REMARK    4  A    between atoms: C_9  and  O_14
REMARK    5  A    between atoms: C_17  and  O_18
REMARK    6  A    between atoms: C_20  and  C_21
REMARK    7  A    between atoms: C_22  and  C_23
REMARK    8  A    between atoms: C_23  and  C_24
REMARK    9  A    between atoms: C_24  and  C_25
REMARK   10  A    between atoms: C_25  and  C_26
REMARK   11  A    between atoms: C_26  and  C_27
REMARK   12  A    between atoms: C_27  and  C_28
REMARK                            x       y       z     vdW  Elec       q    Type
REMARK                         _______ _______ _______ _____ _____    ______ ____
ROOT
ATOM      1  O   UNL     1     -35.769  23.397   0.968  0.00  0.00    -0.440 OA
ATOM      2  O   UNL     1     -37.211  23.854   4.111  0.00  0.00    -0.449 OA
ATOM      3  O   UNL     1     -38.022  24.692   2.139  0.00  0.00    -0.246 OA
ATOM      4  O   UNL     1     -36.050  23.239  -1.303  0.00  0.00    -0.247 OA
ATOM      5  C   UNL     1     -36.402  22.855   2.127  0.00  0.00    +0.262 C 
ATOM      6  C   UNL     1     -37.168  21.630   1.622  0.00  0.00    +0.256 C 
ATOM      7  C   UNL     1     -35.401  22.664   3.252  0.00  0.00    +0.098 C 
ATOM      8  C   UNL     1     -36.238  22.874   4.495  0.00  0.00    +0.177 C 
ATOM      9  C   UNL     1     -37.543  22.058   0.212  0.00  0.00    +0.249 C 
ATOM     10  C   UNL     1     -37.308  23.908   2.746  0.00  0.00    +0.357 C 
ATOM     11  C   UNL     1     -36.390  22.949  -0.167  0.00  0.00    +0.348 C 
ENDROOT
BRANCH   6  12
ATOM     12  O   UNL     1     -38.335  21.342   2.368  0.00  0.00    -0.371 OA
ATOM     13  H   UNL     1     -39.031  21.024   1.771  0.00  0.00    +0.211 HD
ENDBRANCH   6  12
BRANCH   9  14
ATOM     14  O   UNL     1     -37.702  20.998  -0.697  0.00  0.00    -0.372 OA
ATOM     15  H   UNL     1     -37.179  20.236  -0.400  0.00  0.00    +0.211 HD
ENDBRANCH   9  14
BRANCH   6  17
ATOM     16  O   UNL     1     -35.403  20.146   0.873  0.00  0.00    -0.247 OA
ATOM     17  C   UNL     1     -36.356  20.360   1.607  0.00  0.00    +0.345 C 
BRANCH  17  18
ATOM     18  O   UNL     1     -36.828  19.478   2.522  0.00  0.00    -0.478 OA
ATOM     19  H   UNL     1     -37.213  19.790   3.317  0.00  0.00    +0.295 HD
ENDBRANCH  17  18
ENDBRANCH   6  17
BRANCH   8  20
ATOM     20  C   UNL     1     -35.433  23.389   5.674  0.00  0.00    +0.069 C 
BRANCH  20  21
ATOM     21  C   UNL     1     -34.330  24.373   5.277  0.00  0.00    -0.027 C 
ATOM     22  C   UNL     1     -34.535  25.820   5.738  0.00  0.00    -0.031 C 
BRANCH  22  23
ATOM     23  C   UNL     1     -33.401  26.792   5.402  0.00  0.00    +0.026 C 
BRANCH  23  24
ATOM     24  C   UNL     1     -32.624  27.269   6.631  0.00  0.00    +0.005 C 
BRANCH  24  25
ATOM     25  C   UNL     1     -31.507  28.239   6.238  0.00  0.00    +0.001 C 
BRANCH  25  26
ATOM     26  C   UNL     1     -31.690  29.600   6.918  0.00  0.00    +0.005 C 
BRANCH  26  27
ATOM     27  C   UNL     1     -32.005  30.728   5.929  0.00  0.00    +0.026 C 
BRANCH  27  28
ATOM     28  C   UNL     1     -32.148  30.246   4.516  0.00  0.00    -0.026 C 
ATOM     29  C   UNL     1     -33.191  30.533   3.730  0.00  0.00    -0.005 C 
ENDBRANCH  27  28
ENDBRANCH  26  27
ENDBRANCH  25  26
ENDBRANCH  24  25
ENDBRANCH  23  24
ENDBRANCH  22  23
ENDBRANCH  20  21
ENDBRANCH   8  20
TORSDOF 12
ENDMDL
MODEL 7
REMARK VINA RESULT:      -5.4      3.592      7.485
REMARK  Name = 53462210
REMARK  12 active torsions:
REMARK  status: ('A' for Active; 'I' for Inactive)
REMARK    1  A    between atoms: C_6  and  O_12
REMARK    2  A    between atoms: C_6  and  C_17
REMARK    3  A    between atoms: C_8  and  C_20
REMARK    4  A    between atoms: C_9  and  O_14
REMARK    5  A    between atoms: C_17  and  O_18
REMARK    6  A    between atoms: C_20  and  C_21
REMARK    7  A    between atoms: C_22  and  C_23
REMARK    8  A    between atoms: C_23  and  C_24
REMARK    9  A    between atoms: C_24  and  C_25
REMARK   10  A    between atoms: C_25  and  C_26
REMARK   11  A    between atoms: C_26  and  C_27
REMARK   12  A    between atoms: C_27  and  C_28
REMARK                            x       y       z     vdW  Elec       q    Type
REMARK                         _______ _______ _______ _____ _____    ______ ____
ROOT
ATOM      1  O   UNL     1     -34.476  24.584   2.297  0.00  0.00    -0.440 OA
ATOM      2  O   UNL     1     -35.200  26.839   4.858  0.00  0.00    -0.449 OA
ATOM      3  O   UNL     1     -35.977  26.972   2.707  0.00  0.00    -0.246 OA
ATOM      4  O   UNL     1     -35.132  23.573   0.345  0.00  0.00    -0.247 OA
ATOM      5  C   UNL     1     -35.071  24.864   3.564  0.00  0.00    +0.262 C 
ATOM      6  C   UNL     1     -36.263  23.909   3.663  0.00  0.00    +0.256 C 
ATOM      7  C   UNL     1     -34.030  24.832   4.670  0.00  0.00    +0.098 C 
ATOM      8  C   UNL     1     -34.555  25.845   5.664  0.00  0.00    +0.177 C 
ATOM      9  C   UNL     1     -36.684  23.789   2.206  0.00  0.00    +0.249 C 
ATOM     10  C   UNL     1     -35.477  26.329   3.618  0.00  0.00    +0.357 C 
ATOM     11  C   UNL     1     -35.373  23.947   1.482  0.00  0.00    +0.348 C 
ENDROOT
BRANCH   6  12
ATOM     12  O   UNL     1     -37.333  24.414   4.437  0.00  0.00    -0.371 OA
ATOM     13  H   UNL     1     -37.501  23.819   5.185  0.00  0.00    +0.211 HD
ENDBRANCH   6  12
BRANCH   9  14
ATOM     14  O   UNL     1     -37.317  22.577   1.879  0.00  0.00    -0.372 OA
ATOM     15  H   UNL     1     -36.703  21.841   2.034  0.00  0.00    +0.211 HD
ENDBRANCH   9  14
BRANCH   6  17
ATOM     16  O   UNL     1     -35.381  21.652   3.634  0.00  0.00    -0.247 OA
ATOM     17  C   UNL     1     -35.924  22.561   4.243  0.00  0.00    +0.345 C 
BRANCH  17  18
ATOM     18  O   UNL     1     -36.306  22.488   5.542  0.00  0.00    -0.478 OA
ATOM     19  H   UNL     1     -36.233  23.241   6.094  0.00  0.00    +0.295 HD
ENDBRANCH  17  18
ENDBRANCH   6  17
BRANCH   8  20
ATOM     20  C   UNL     1     -33.458  26.489   6.491  0.00  0.00    +0.069 C 
BRANCH  20  21
ATOM     21  C   UNL     1     -32.667  27.557   5.731  0.00  0.00    -0.027 C 
ATOM     22  C   UNL     1     -31.898  28.557   6.601  0.00  0.00    -0.031 C 
BRANCH  22  23
ATOM     23  C   UNL     1     -31.052  29.583   5.843  0.00  0.00    +0.026 C 
BRANCH  23  24
ATOM     24  C   UNL     1     -31.791  30.893   5.562  0.00  0.00    +0.005 C 
BRANCH  24  25
ATOM     25  C   UNL     1     -31.198  31.615   4.349  0.00  0.00    +0.001 C 
BRANCH  25  26
ATOM     26  C   UNL     1     -32.266  31.876   3.282  0.00  0.00    +0.005 C 
BRANCH  26  27
ATOM     27  C   UNL     1     -33.354  30.797   3.245  0.00  0.00    +0.026 C 
BRANCH  27  28
ATOM     28  C   UNL     1     -33.173  29.821   2.120  0.00  0.00    -0.026 C 
ATOM     29  C   UNL     1     -32.800  28.548   2.288  0.00  0.00    -0.005 C 
ENDBRANCH  27  28
ENDBRANCH  26  27
ENDBRANCH  25  26
ENDBRANCH  24  25
ENDBRANCH  23  24
ENDBRANCH  22  23
ENDBRANCH  20  21
ENDBRANCH   8  20
TORSDOF 12
ENDMDL
MODEL 8
REMARK VINA RESULT:      -5.4      3.464      7.300
REMARK  Name = 53462210
REMARK  12 active torsions:
REMARK  status: ('A' for Active; 'I' for Inactive)
REMARK    1  A    between atoms: C_6  and  O_12
REMARK    2  A    between atoms: C_6  and  C_17
REMARK    3  A    between atoms: C_8  and  C_20
REMARK    4  A    between atoms: C_9  and  O_14
REMARK    5  A    between atoms: C_17  and  O_18
REMARK    6  A    between atoms: C_20  and  C_21
REMARK    7  A    between atoms: C_22  and  C_23
REMARK    8  A    between atoms: C_23  and  C_24
REMARK    9  A    between atoms: C_24  and  C_25
REMARK   10  A    between atoms: C_25  and  C_26
REMARK   11  A    between atoms: C_26  and  C_27
REMARK   12  A    between atoms: C_27  and  C_28
REMARK                            x       y       z     vdW  Elec       q    Type
REMARK                         _______ _______ _______ _____ _____    ______ ____
ROOT
ATOM      1  O   UNL     1     -36.005  23.701   0.944  0.00  0.00    -0.440 OA
ATOM      2  O   UNL     1     -37.202  24.059   4.201  0.00  0.00    -0.449 OA
ATOM      3  O   UNL     1     -38.219  24.863   2.312  0.00  0.00    -0.246 OA
ATOM      4  O   UNL     1     -36.468  23.542  -1.298  0.00  0.00    -0.247 OA
ATOM      5  C   UNL     1     -36.509  23.118   2.145  0.00  0.00    +0.262 C 
ATOM      6  C   UNL     1     -37.247  21.855   1.694  0.00  0.00    +0.256 C 
ATOM      7  C   UNL     1     -35.408  22.976   3.181  0.00  0.00    +0.098 C 
ATOM      8  C   UNL     1     -36.148  23.132   4.492  0.00  0.00    +0.177 C 
ATOM      9  C   UNL     1     -37.762  22.271   0.324  0.00  0.00    +0.249 C 
ATOM     10  C   UNL     1     -37.415  24.116   2.849  0.00  0.00    +0.357 C 
ATOM     11  C   UNL     1     -36.695  23.226  -0.140  0.00  0.00    +0.348 C 
ENDROOT
BRANCH   6  12
ATOM     12  O   UNL     1     -38.330  21.500   2.531  0.00  0.00    -0.371 OA
ATOM     13  H   UNL     1     -38.949  20.937   2.039  0.00  0.00    +0.211 HD
ENDBRANCH   6  12
BRANCH   9  14
ATOM     14  O   UNL     1     -37.939  21.209  -0.580  0.00  0.00    -0.372 OA
ATOM     15  H   UNL     1     -38.450  21.519  -1.345  0.00  0.00    +0.211 HD
ENDBRANCH   9  14
BRANCH   6  17
ATOM     16  O   UNL     1     -35.488  20.466   0.770  0.00  0.00    -0.247 OA
ATOM     17  C   UNL     1     -36.372  20.633   1.597  0.00  0.00    +0.345 C 
BRANCH  17  18
ATOM     18  O   UNL     1     -36.698  19.732   2.557  0.00  0.00    -0.478 OA
ATOM     19  H   UNL     1     -37.521  19.286   2.519  0.00  0.00    +0.295 HD
ENDBRANCH  17  18
ENDBRANCH   6  17
BRANCH   8  20
ATOM     20  C   UNL     1     -35.275  23.683   5.605  0.00  0.00    +0.069 C 
BRANCH  20  21
ATOM     21  C   UNL     1     -34.268  24.733   5.129  0.00  0.00    -0.027 C 
ATOM     22  C   UNL     1     -34.213  26.021   5.956  0.00  0.00    -0.031 C 
BRANCH  22  23
ATOM     23  C   UNL     1     -33.160  27.044   5.524  0.00  0.00    +0.026 C 
BRANCH  23  24
ATOM     24  C   UNL     1     -32.313  27.573   6.683  0.00  0.00    +0.005 C 
BRANCH  24  25
ATOM     25  C   UNL     1     -31.847  29.008   6.420  0.00  0.00    +0.001 C 
BRANCH  25  26
ATOM     26  C   UNL     1     -30.395  29.039   5.935  0.00  0.00    +0.005 C 
BRANCH  26  27
ATOM     27  C   UNL     1     -29.410  29.494   7.018  0.00  0.00    +0.026 C 
BRANCH  27  28
ATOM     28  C   UNL     1     -28.321  28.495   7.277  0.00  0.00    -0.026 C 
ATOM     29  C   UNL     1     -28.374  27.215   6.895  0.00  0.00    -0.005 C 
ENDBRANCH  27  28
ENDBRANCH  26  27
ENDBRANCH  25  26
ENDBRANCH  24  25
ENDBRANCH  23  24
ENDBRANCH  22  23
ENDBRANCH  20  21
ENDBRANCH   8  20
TORSDOF 12
ENDMDL
MODEL 9
REMARK VINA RESULT:      -5.3      1.440      3.347
REMARK  Name = 53462210
REMARK  12 active torsions:
REMARK  status: ('A' for Active; 'I' for Inactive)
REMARK    1  A    between atoms: C_6  and  O_12
REMARK    2  A    between atoms: C_6  and  C_17
REMARK    3  A    between atoms: C_8  and  C_20
REMARK    4  A    between atoms: C_9  and  O_14
REMARK    5  A    between atoms: C_17  and  O_18
REMARK    6  A    between atoms: C_20  and  C_21
REMARK    7  A    between atoms: C_22  and  C_23
REMARK    8  A    between atoms: C_23  and  C_24
REMARK    9  A    between atoms: C_24  and  C_25
REMARK   10  A    between atoms: C_25  and  C_26
REMARK   11  A    between atoms: C_26  and  C_27
REMARK   12  A    between atoms: C_27  and  C_28
REMARK                            x       y       z     vdW  Elec       q    Type
REMARK                         _______ _______ _______ _____ _____    ______ ____
ROOT
ATOM      1  O   UNL     1     -35.236  23.552   3.752  0.00  0.00    -0.440 OA
ATOM      2  O   UNL     1     -35.936  24.642   0.513  0.00  0.00    -0.449 OA
ATOM      3  O   UNL     1     -37.463  23.781   1.988  0.00  0.00    -0.246 OA
ATOM      4  O   UNL     1     -35.970  23.219   5.899  0.00  0.00    -0.247 OA
ATOM      5  C   UNL     1     -35.301  24.605   2.790  0.00  0.00    +0.262 C 
ATOM      6  C   UNL     1     -35.612  25.865   3.603  0.00  0.00    +0.256 C 
ATOM      7  C   UNL     1     -34.067  24.607   1.905  0.00  0.00    +0.098 C 
ATOM      8  C   UNL     1     -34.591  25.134   0.587  0.00  0.00    +0.177 C 
ATOM      9  C   UNL     1     -36.455  25.301   4.736  0.00  0.00    +0.249 C 
ATOM     10  C   UNL     1     -36.373  24.282   1.760  0.00  0.00    +0.357 C 
ATOM     11  C   UNL     1     -35.881  23.919   4.902  0.00  0.00    +0.348 C 
ENDROOT
BRANCH   6  12
ATOM     12  O   UNL     1     -36.350  26.835   2.886  0.00  0.00    -0.371 OA
ATOM     13  H   UNL     1     -36.384  26.589   1.948  0.00  0.00    +0.211 HD
ENDBRANCH   6  12
BRANCH   9  14
ATOM     14  O   UNL     1     -36.393  26.037   5.932  0.00  0.00    -0.372 OA
ATOM     15  H   UNL     1     -36.971  25.627   6.594  0.00  0.00    +0.211 HD
ENDBRANCH   9  14
BRANCH   6  17
ATOM     16  O   UNL     1     -33.447  26.024   4.681  0.00  0.00    -0.247 OA
ATOM     17  C   UNL     1     -34.392  26.571   4.133  0.00  0.00    +0.345 C 
BRANCH  17  18
ATOM     18  O   UNL     1     -34.482  27.908   3.920  0.00  0.00    -0.478 OA
ATOM     19  H   UNL     1     -33.713  28.441   3.964  0.00  0.00    +0.295 HD
ENDBRANCH  17  18
ENDBRANCH   6  17
BRANCH   8  20
ATOM     20  C   UNL     1     -33.800  24.639  -0.609  0.00  0.00    +0.069 C 
BRANCH  20  21
ATOM     21  C   UNL     1     -32.699  23.640  -0.242  0.00  0.00    -0.027 C 
ATOM     22  C   UNL     1     -32.794  22.270  -0.920  0.00  0.00    -0.031 C 
BRANCH  22  23
ATOM     23  C   UNL     1     -31.658  21.293  -0.608  0.00  0.00    +0.026 C 
BRANCH  23  24
ATOM     24  C   UNL     1     -32.091  19.826  -0.638  0.00  0.00    +0.005 C 
BRANCH  24  25
ATOM     25  C   UNL     1     -31.664  19.095   0.637  0.00  0.00    +0.001 C 
BRANCH  25  26
ATOM     26  C   UNL     1     -32.863  18.437   1.328  0.00  0.00    +0.005 C 
BRANCH  26  27
ATOM     27  C   UNL     1     -34.194  19.123   1.001  0.00  0.00    +0.026 C 
BRANCH  27  28
ATOM     28  C   UNL     1     -34.617  20.110   2.049  0.00  0.00    -0.026 C 
ATOM     29  C   UNL     1     -35.877  20.525   2.219  0.00  0.00    -0.005 C 
ENDBRANCH  27  28
ENDBRANCH  26  27
ENDBRANCH  25  26
ENDBRANCH  24  25
ENDBRANCH  23  24
ENDBRANCH  22  23
ENDBRANCH  20  21
ENDBRANCH   8  20
TORSDOF 12
ENDMDL
