MODEL 1
REMARK VINA RESULT:      -6.0      0.000      0.000
REMARK  Name = 193664
REMARK  7 active torsions:
REMARK  status: ('A' for Active; 'I' for Inactive)
REMARK    1  A    between atoms: C_6  and  C_12
REMARK    2  A    between atoms: C_7  and  O_20
REMARK    3  A    between atoms: C_8  and  C_22
REMARK    4  A    between atoms: C_17  and  O_18
REMARK    5  A    between atoms: C_22  and  O_23
REMARK    6  A    between atoms: C_22  and  C_25
REMARK    7  A    between atoms: C_25  and  O_26
REMARK                            x       y       z     vdW  Elec       q    Type
REMARK                         _______ _______ _______ _____ _____    ______ ____
ROOT
ATOM      1  O   UNL     1     -34.465  22.938   1.530  0.00  0.00    -0.442 OA
ATOM      2  O   UNL     1     -37.315  22.763   2.764  0.00  0.00    -0.445 OA
ATOM      3  O   UNL     1     -37.317  23.232   0.528  0.00  0.00    -0.246 OA
ATOM      4  O   UNL     1     -33.147  23.989  -0.023  0.00  0.00    -0.250 OA
ATOM      5  C   UNL     1     -35.485  21.933   1.509  0.00  0.00    +0.255 C 
ATOM      6  C   UNL     1     -35.239  21.126   0.231  0.00  0.00    +0.083 C 
ATOM      7  C   UNL     1     -35.581  21.197   2.839  0.00  0.00    +0.201 C 
ATOM      8  C   UNL     1     -36.447  22.104   3.700  0.00  0.00    +0.229 C 
ATOM      9  C   UNL     1     -34.596  22.165  -0.687  0.00  0.00    +0.118 C 
ATOM     10  C   UNL     1     -36.794  22.705   1.500  0.00  0.00    +0.357 C 
ATOM     11  C   UNL     1     -33.967  23.133   0.273  0.00  0.00    +0.318 C 
ENDROOT
BRANCH   6  12
ATOM     12  C   UNL     1     -34.344  19.901   0.364  0.00  0.00    -0.018 C 
ATOM     13  C   UNL     1     -34.858  18.638   0.094  0.00  0.00    -0.001 C 
ATOM     14  C   UNL     1     -33.017  20.056   0.756  0.00  0.00    -0.001 C 
ATOM     15  C   UNL     1     -34.039  17.516   0.217  0.00  0.00    +0.036 C 
ATOM     16  C   UNL     1     -32.198  18.934   0.879  0.00  0.00    +0.036 C 
ATOM     17  C   UNL     1     -32.708  17.664   0.610  0.00  0.00    +0.134 C 
BRANCH  17  18
ATOM     18  O   UNL     1     -31.908  16.569   0.729  0.00  0.00    -0.506 OA
ATOM     19  H   UNL     1     -31.691  16.238   1.579  0.00  0.00    +0.292 HD
ENDBRANCH  17  18
ENDBRANCH   6  12
BRANCH   7  20
ATOM     20  O   UNL     1     -36.274  19.962   2.661  0.00  0.00    -0.377 OA
ATOM     21  H   UNL     1     -37.214  20.139   2.500  0.00  0.00    +0.211 HD
ENDBRANCH   7  20
BRANCH   8  22
ATOM     22  C   UNL     1     -35.673  23.153   4.484  0.00  0.00    +0.182 C 
BRANCH  22  23
ATOM     23  O   UNL     1     -36.560  24.217   4.830  0.00  0.00    -0.378 OA
ATOM     24  H   UNL     1     -36.195  25.057   4.512  0.00  0.00    +0.211 HD
ENDBRANCH  22  23
BRANCH  22  25
ATOM     25  C   UNL     1     -35.096  22.575   5.770  0.00  0.00    +0.170 C 
BRANCH  25  26
ATOM     26  O   UNL     1     -36.101  21.806   6.424  0.00  0.00    -0.379 OA
ATOM     27  H   UNL     1     -35.814  20.882   6.483  0.00  0.00    +0.211 HD
ENDBRANCH  25  26
ENDBRANCH  22  25
ENDBRANCH   8  22
TORSDOF 7
ENDMDL
MODEL 2
REMARK VINA RESULT:      -5.9      2.001      2.788
REMARK  Name = 193664
REMARK  7 active torsions:
REMARK  status: ('A' for Active; 'I' for Inactive)
REMARK    1  A    between atoms: C_6  and  C_12
REMARK    2  A    between atoms: C_7  and  O_20
REMARK    3  A    between atoms: C_8  and  C_22
REMARK    4  A    between atoms: C_17  and  O_18
REMARK    5  A    between atoms: C_22  and  O_23
REMARK    6  A    between atoms: C_22  and  C_25
REMARK    7  A    between atoms: C_25  and  O_26
REMARK                            x       y       z     vdW  Elec       q    Type
REMARK                         _______ _______ _______ _____ _____    ______ ____
ROOT
ATOM      1  O   UNL     1     -36.000  24.664   1.704  0.00  0.00    -0.442 OA
ATOM      2  O   UNL     1     -37.365  24.310   4.476  0.00  0.00    -0.445 OA
ATOM      3  O   UNL     1     -38.747  23.857   2.715  0.00  0.00    -0.246 OA
ATOM      4  O   UNL     1     -36.302  25.308  -0.476  0.00  0.00    -0.250 OA
ATOM      5  C   UNL     1     -36.330  23.519   2.497  0.00  0.00    +0.255 C 
ATOM      6  C   UNL     1     -36.480  22.361   1.506  0.00  0.00    +0.083 C 
ATOM      7  C   UNL     1     -35.384  23.360   3.681  0.00  0.00    +0.201 C 
ATOM      8  C   UNL     1     -35.953  24.296   4.736  0.00  0.00    +0.229 C 
ATOM      9  C   UNL     1     -36.935  23.082   0.238  0.00  0.00    +0.118 C 
ATOM     10  C   UNL     1     -37.626  23.891   3.200  0.00  0.00    +0.357 C 
ATOM     11  C   UNL     1     -36.382  24.466   0.406  0.00  0.00    +0.318 C 
ENDROOT
BRANCH   6  12
ATOM     12  C   UNL     1     -35.228  21.537   1.234  0.00  0.00    -0.018 C 
ATOM     13  C   UNL     1     -35.128  20.247   1.743  0.00  0.00    -0.001 C 
ATOM     14  C   UNL     1     -34.194  22.081   0.478  0.00  0.00    -0.001 C 
ATOM     15  C   UNL     1     -33.983  19.492   1.494  0.00  0.00    +0.036 C 
ATOM     16  C   UNL     1     -33.049  21.326   0.229  0.00  0.00    +0.036 C 
ATOM     17  C   UNL     1     -32.942  20.031   0.737  0.00  0.00    +0.134 C 
BRANCH  17  18
ATOM     18  O   UNL     1     -31.823  19.294   0.494  0.00  0.00    -0.506 OA
ATOM     19  H   UNL     1     -31.474  18.739   1.163  0.00  0.00    +0.292 HD
ENDBRANCH  17  18
ENDBRANCH   6  12
BRANCH   7  20
ATOM     20  O   UNL     1     -35.459  22.027   4.185  0.00  0.00    -0.377 OA
ATOM     21  H   UNL     1     -36.017  22.012   4.978  0.00  0.00    +0.211 HD
ENDBRANCH   7  20
BRANCH   8  22
ATOM     22  C   UNL     1     -35.420  25.719   4.667  0.00  0.00    +0.182 C 
BRANCH  22  23
ATOM     23  O   UNL     1     -36.405  26.607   5.194  0.00  0.00    -0.378 OA
ATOM     24  H   UNL     1     -36.354  26.608   6.162  0.00  0.00    +0.211 HD
ENDBRANCH  22  23
BRANCH  22  25
ATOM     25  C   UNL     1     -34.146  25.878   5.489  0.00  0.00    +0.170 C 
BRANCH  25  26
ATOM     26  O   UNL     1     -33.646  27.200   5.315  0.00  0.00    -0.379 OA
ATOM     27  H   UNL     1     -32.874  27.331   5.887  0.00  0.00    +0.211 HD
ENDBRANCH  25  26
ENDBRANCH  22  25
ENDBRANCH   8  22
TORSDOF 7
ENDMDL
MODEL 3
REMARK VINA RESULT:      -5.8      2.581      6.449
REMARK  Name = 193664
REMARK  7 active torsions:
REMARK  status: ('A' for Active; 'I' for Inactive)
REMARK    1  A    between atoms: C_6  and  C_12
REMARK    2  A    between atoms: C_7  and  O_20
REMARK    3  A    between atoms: C_8  and  C_22
REMARK    4  A    between atoms: C_17  and  O_18
REMARK    5  A    between atoms: C_22  and  O_23
REMARK    6  A    between atoms: C_22  and  C_25
REMARK    7  A    between atoms: C_25  and  O_26
REMARK                            x       y       z     vdW  Elec       q    Type
REMARK                         _______ _______ _______ _____ _____    ______ ____
ROOT
ATOM      1  O   UNL     1     -34.549  23.567   3.313  0.00  0.00    -0.442 OA
ATOM      2  O   UNL     1     -35.489  20.701   4.068  0.00  0.00    -0.445 OA
ATOM      3  O   UNL     1     -35.169  22.060   5.876  0.00  0.00    -0.246 OA
ATOM      4  O   UNL     1     -33.245  25.347   3.937  0.00  0.00    -0.250 OA
ATOM      5  C   UNL     1     -35.810  23.021   3.715  0.00  0.00    +0.255 C 
ATOM      6  C   UNL     1     -36.580  24.184   4.347  0.00  0.00    +0.083 C 
ATOM      7  C   UNL     1     -36.465  22.227   2.592  0.00  0.00    +0.201 C 
ATOM      8  C   UNL     1     -35.808  20.858   2.676  0.00  0.00    +0.229 C 
ATOM      9  C   UNL     1     -35.451  25.056   4.895  0.00  0.00    +0.118 C 
ATOM     10  C   UNL     1     -35.462  21.915   4.698  0.00  0.00    +0.357 C 
ATOM     11  C   UNL     1     -34.287  24.713   4.011  0.00  0.00    +0.318 C 
ENDROOT
BRANCH   6  12
ATOM     12  C   UNL     1     -37.475  24.990   3.415  0.00  0.00    -0.018 C 
ATOM     13  C   UNL     1     -38.857  24.900   3.538  0.00  0.00    -0.001 C 
ATOM     14  C   UNL     1     -36.903  25.811   2.448  0.00  0.00    -0.001 C 
ATOM     15  C   UNL     1     -39.678  25.637   2.685  0.00  0.00    +0.036 C 
ATOM     16  C   UNL     1     -37.724  26.548   1.595  0.00  0.00    +0.036 C 
ATOM     17  C   UNL     1     -39.111  26.462   1.712  0.00  0.00    +0.134 C 
BRANCH  17  18
ATOM     18  O   UNL     1     -39.911  27.182   0.879  0.00  0.00    -0.506 OA
ATOM     19  H   UNL     1     -39.686  28.066   0.662  0.00  0.00    +0.292 HD
ENDBRANCH  17  18
ENDBRANCH   6  12
BRANCH   7  20
ATOM     20  O   UNL     1     -37.858  22.067   2.860  0.00  0.00    -0.377 OA
ATOM     21  H   UNL     1     -38.173  22.817   3.388  0.00  0.00    +0.211 HD
ENDBRANCH   7  20
BRANCH   8  22
ATOM     22  C   UNL     1     -34.534  20.720   1.856  0.00  0.00    +0.182 C 
BRANCH  22  23
ATOM     23  O   UNL     1     -34.281  19.334   1.627  0.00  0.00    -0.378 OA
ATOM     24  H   UNL     1     -33.840  19.224   0.770  0.00  0.00    +0.211 HD
ENDBRANCH  22  23
BRANCH  22  25
ATOM     25  C   UNL     1     -34.663  21.413   0.506  0.00  0.00    +0.170 C 
BRANCH  25  26
ATOM     26  O   UNL     1     -33.816  22.557   0.490  0.00  0.00    -0.379 OA
ATOM     27  H   UNL     1     -34.177  23.218  -0.120  0.00  0.00    +0.211 HD
ENDBRANCH  25  26
ENDBRANCH  22  25
ENDBRANCH   8  22
TORSDOF 7
ENDMDL
MODEL 4
REMARK VINA RESULT:      -5.6      3.326      6.036
REMARK  Name = 193664
REMARK  7 active torsions:
REMARK  status: ('A' for Active; 'I' for Inactive)
REMARK    1  A    between atoms: C_6  and  C_12
REMARK    2  A    between atoms: C_7  and  O_20
REMARK    3  A    between atoms: C_8  and  C_22
REMARK    4  A    between atoms: C_17  and  O_18
REMARK    5  A    between atoms: C_22  and  O_23
REMARK    6  A    between atoms: C_22  and  C_25
REMARK    7  A    between atoms: C_25  and  O_26
REMARK                            x       y       z     vdW  Elec       q    Type
REMARK                         _______ _______ _______ _____ _____    ______ ____
ROOT
ATOM      1  O   UNL     1     -37.388  23.444   0.944  0.00  0.00    -0.442 OA
ATOM      2  O   UNL     1     -40.286  23.394   2.071  0.00  0.00    -0.445 OA
ATOM      3  O   UNL     1     -39.242  21.364   2.152  0.00  0.00    -0.246 OA
ATOM      4  O   UNL     1     -35.795  22.264  -0.208  0.00  0.00    -0.250 OA
ATOM      5  C   UNL     1     -37.926  23.427   2.271  0.00  0.00    +0.255 C 
ATOM      6  C   UNL     1     -36.838  22.801   3.148  0.00  0.00    +0.083 C 
ATOM      7  C   UNL     1     -38.502  24.782   2.664  0.00  0.00    +0.201 C 
ATOM      8  C   UNL     1     -39.899  24.777   2.062  0.00  0.00    +0.229 C 
ATOM      9  C   UNL     1     -36.120  21.882   2.162  0.00  0.00    +0.118 C 
ATOM     10  C   UNL     1     -39.187  22.585   2.171  0.00  0.00    +0.357 C 
ATOM     11  C   UNL     1     -36.379  22.528   0.832  0.00  0.00    +0.318 C 
ENDROOT
BRANCH   6  12
ATOM     12  C   UNL     1     -35.853  23.765   3.797  0.00  0.00    -0.018 C 
ATOM     13  C   UNL     1     -35.827  23.896   5.181  0.00  0.00    -0.001 C 
ATOM     14  C   UNL     1     -34.987  24.507   3.000  0.00  0.00    -0.001 C 
ATOM     15  C   UNL     1     -34.925  24.779   5.776  0.00  0.00    +0.036 C 
ATOM     16  C   UNL     1     -34.086  25.390   3.594  0.00  0.00    +0.036 C 
ATOM     17  C   UNL     1     -34.054  25.526   4.982  0.00  0.00    +0.134 C 
BRANCH  17  18
ATOM     18  O   UNL     1     -33.174  26.388   5.562  0.00  0.00    -0.506 OA
ATOM     19  H   UNL     1     -32.318  26.499   5.197  0.00  0.00    +0.292 HD
ENDBRANCH  17  18
ENDBRANCH   6  12
BRANCH   7  20
ATOM     20  O   UNL     1     -38.632  24.860   4.083  0.00  0.00    -0.377 OA
ATOM     21  H   UNL     1     -39.551  25.065   4.313  0.00  0.00    +0.211 HD
ENDBRANCH   7  20
BRANCH   8  22
ATOM     22  C   UNL     1     -39.971  25.305   0.637  0.00  0.00    +0.182 C 
BRANCH  22  23
ATOM     23  O   UNL     1     -41.330  25.608   0.326  0.00  0.00    -0.378 OA
ATOM     24  H   UNL     1     -41.872  24.811   0.436  0.00  0.00    +0.211 HD
ENDBRANCH  22  23
BRANCH  22  25
ATOM     25  C   UNL     1     -39.148  26.575   0.470  0.00  0.00    +0.170 C 
BRANCH  25  26
ATOM     26  O   UNL     1     -39.971  27.701   0.758  0.00  0.00    -0.379 OA
ATOM     27  H   UNL     1     -40.702  27.429   1.333  0.00  0.00    +0.211 HD
ENDBRANCH  25  26
ENDBRANCH  22  25
ENDBRANCH   8  22
TORSDOF 7
ENDMDL
MODEL 5
REMARK VINA RESULT:      -5.5      2.602      4.558
REMARK  Name = 193664
REMARK  7 active torsions:
REMARK  status: ('A' for Active; 'I' for Inactive)
REMARK    1  A    between atoms: C_6  and  C_12
REMARK    2  A    between atoms: C_7  and  O_20
REMARK    3  A    between atoms: C_8  and  C_22
REMARK    4  A    between atoms: C_17  and  O_18
REMARK    5  A    between atoms: C_22  and  O_23
REMARK    6  A    between atoms: C_22  and  C_25
REMARK    7  A    between atoms: C_25  and  O_26
REMARK                            x       y       z     vdW  Elec       q    Type
REMARK                         _______ _______ _______ _____ _____    ______ ____
ROOT
ATOM      1  O   UNL     1     -37.043  24.250   3.984  0.00  0.00    -0.442 OA
ATOM      2  O   UNL     1     -37.713  26.545   1.996  0.00  0.00    -0.445 OA
ATOM      3  O   UNL     1     -35.686  26.790   3.020  0.00  0.00    -0.246 OA
ATOM      4  O   UNL     1     -36.024  23.714   5.967  0.00  0.00    -0.250 OA
ATOM      5  C   UNL     1     -36.614  24.552   2.652  0.00  0.00    +0.255 C 
ATOM      6  C   UNL     1     -35.238  23.896   2.505  0.00  0.00    +0.083 C 
ATOM      7  C   UNL     1     -37.695  24.238   1.626  0.00  0.00    +0.201 C 
ATOM      8  C   UNL     1     -38.594  25.464   1.650  0.00  0.00    +0.229 C 
ATOM      9  C   UNL     1     -34.715  23.922   3.940  0.00  0.00    +0.118 C 
ATOM     10  C   UNL     1     -36.575  26.070   2.589  0.00  0.00    +0.357 C 
ATOM     11  C   UNL     1     -35.967  23.932   4.767  0.00  0.00    +0.318 C 
ENDROOT
BRANCH   6  12
ATOM     12  C   UNL     1     -35.219  22.477   1.953  0.00  0.00    -0.018 C 
ATOM     13  C   UNL     1     -35.953  21.481   2.588  0.00  0.00    -0.001 C 
ATOM     14  C   UNL     1     -34.468  22.187   0.818  0.00  0.00    -0.001 C 
ATOM     15  C   UNL     1     -35.937  20.181   2.083  0.00  0.00    +0.036 C 
ATOM     16  C   UNL     1     -34.451  20.888   0.313  0.00  0.00    +0.036 C 
ATOM     17  C   UNL     1     -35.185  19.884   0.945  0.00  0.00    +0.134 C 
BRANCH  17  18
ATOM     18  O   UNL     1     -35.168  18.615   0.452  0.00  0.00    -0.506 OA
ATOM     19  H   UNL     1     -35.332  18.464  -0.458  0.00  0.00    +0.292 HD
ENDBRANCH  17  18
ENDBRANCH   6  12
BRANCH   7  20
ATOM     20  O   UNL     1     -37.115  24.139   0.326  0.00  0.00    -0.377 OA
ATOM     21  H   UNL     1     -36.622  23.306   0.254  0.00  0.00    +0.211 HD
ENDBRANCH   7  20
BRANCH   8  22
ATOM     22  C   UNL     1     -39.722  25.397   2.668  0.00  0.00    +0.182 C 
BRANCH  22  23
ATOM     23  O   UNL     1     -39.681  26.570   3.480  0.00  0.00    -0.378 OA
ATOM     24  H   UNL     1     -40.348  26.501   4.181  0.00  0.00    +0.211 HD
ENDBRANCH  22  23
BRANCH  22  25
ATOM     25  C   UNL     1     -41.084  25.335   1.987  0.00  0.00    +0.170 C 
BRANCH  25  26
ATOM     26  O   UNL     1     -41.149  24.157   1.190  0.00  0.00    -0.379 OA
ATOM     27  H   UNL     1     -40.272  23.747   1.146  0.00  0.00    +0.211 HD
ENDBRANCH  25  26
ENDBRANCH  22  25
ENDBRANCH   8  22
TORSDOF 7
ENDMDL
MODEL 6
REMARK VINA RESULT:      -5.5      3.703      6.314
REMARK  Name = 193664
REMARK  7 active torsions:
REMARK  status: ('A' for Active; 'I' for Inactive)
REMARK    1  A    between atoms: C_6  and  C_12
REMARK    2  A    between atoms: C_7  and  O_20
REMARK    3  A    between atoms: C_8  and  C_22
REMARK    4  A    between atoms: C_17  and  O_18
REMARK    5  A    between atoms: C_22  and  O_23
REMARK    6  A    between atoms: C_22  and  C_25
REMARK    7  A    between atoms: C_25  and  O_26
REMARK                            x       y       z     vdW  Elec       q    Type
REMARK                         _______ _______ _______ _____ _____    ______ ____
ROOT
ATOM      1  O   UNL     1     -36.608  24.746   1.395  0.00  0.00    -0.442 OA
ATOM      2  O   UNL     1     -38.959  23.497   3.001  0.00  0.00    -0.445 OA
ATOM      3  O   UNL     1     -37.345  21.986   2.426  0.00  0.00    -0.246 OA
ATOM      4  O   UNL     1     -35.071  24.399  -0.271  0.00  0.00    -0.250 OA
ATOM      5  C   UNL     1     -36.759  24.342   2.760  0.00  0.00    +0.255 C 
ATOM      6  C   UNL     1     -35.345  24.025   3.254  0.00  0.00    +0.083 C 
ATOM      7  C   UNL     1     -37.614  25.327   3.548  0.00  0.00    +0.201 C 
ATOM      8  C   UNL     1     -39.042  24.912   3.233  0.00  0.00    +0.229 C 
ATOM      9  C   UNL     1     -34.648  23.580   1.970  0.00  0.00    +0.118 C 
ATOM     10  C   UNL     1     -37.674  23.129   2.709  0.00  0.00    +0.357 C 
ATOM     11  C   UNL     1     -35.425  24.280   0.892  0.00  0.00    +0.318 C 
ENDROOT
BRANCH   6  12
ATOM     12  C   UNL     1     -34.583  25.170   3.908  0.00  0.00    -0.018 C 
ATOM     13  C   UNL     1     -34.426  25.194   5.289  0.00  0.00    -0.001 C 
ATOM     14  C   UNL     1     -34.051  26.185   3.118  0.00  0.00    -0.001 C 
ATOM     15  C   UNL     1     -33.728  26.243   5.889  0.00  0.00    +0.036 C 
ATOM     16  C   UNL     1     -33.353  27.233   3.717  0.00  0.00    +0.036 C 
ATOM     17  C   UNL     1     -33.192  27.263   5.102  0.00  0.00    +0.134 C 
BRANCH  17  18
ATOM     18  O   UNL     1     -32.511  28.287   5.687  0.00  0.00    -0.506 OA
ATOM     19  H   UNL     1     -32.344  29.074   5.205  0.00  0.00    +0.292 HD
ENDBRANCH  17  18
ENDBRANCH   6  12
BRANCH   7  20
ATOM     20  O   UNL     1     -37.398  25.144   4.947  0.00  0.00    -0.377 OA
ATOM     21  H   UNL     1     -37.086  24.239   5.110  0.00  0.00    +0.211 HD
ENDBRANCH   7  20
BRANCH   8  22
ATOM     22  C   UNL     1     -39.635  25.583   2.002  0.00  0.00    +0.182 C 
BRANCH  22  23
ATOM     23  O   UNL     1     -39.922  24.583   1.026  0.00  0.00    -0.378 OA
ATOM     24  H   UNL     1     -40.317  23.811   1.460  0.00  0.00    +0.211 HD
ENDBRANCH  22  23
BRANCH  22  25
ATOM     25  C   UNL     1     -40.930  26.312   2.335  0.00  0.00    +0.170 C 
BRANCH  25  26
ATOM     26  O   UNL     1     -40.856  26.800   3.671  0.00  0.00    -0.379 OA
ATOM     27  H   UNL     1     -39.981  27.186   3.826  0.00  0.00    +0.211 HD
ENDBRANCH  25  26
ENDBRANCH  22  25
ENDBRANCH   8  22
TORSDOF 7
ENDMDL
MODEL 7
REMARK VINA RESULT:      -5.4      3.213      6.231
REMARK  Name = 193664
REMARK  7 active torsions:
REMARK  status: ('A' for Active; 'I' for Inactive)
REMARK    1  A    between atoms: C_6  and  C_12
REMARK    2  A    between atoms: C_7  and  O_20
REMARK    3  A    between atoms: C_8  and  C_22
REMARK    4  A    between atoms: C_17  and  O_18
REMARK    5  A    between atoms: C_22  and  O_23
REMARK    6  A    between atoms: C_22  and  C_25
REMARK    7  A    between atoms: C_25  and  O_26
REMARK                            x       y       z     vdW  Elec       q    Type
REMARK                         _______ _______ _______ _____ _____    ______ ____
ROOT
ATOM      1  O   UNL     1     -34.310  24.676   3.198  0.00  0.00    -0.442 OA
ATOM      2  O   UNL     1     -36.646  23.361   4.774  0.00  0.00    -0.445 OA
ATOM      3  O   UNL     1     -35.936  25.335   5.677  0.00  0.00    -0.246 OA
ATOM      4  O   UNL     1     -32.389  25.917   3.365  0.00  0.00    -0.250 OA
ATOM      5  C   UNL     1     -35.716  24.936   3.269  0.00  0.00    +0.255 C 
ATOM      6  C   UNL     1     -35.879  26.416   2.907  0.00  0.00    +0.083 C 
ATOM      7  C   UNL     1     -36.523  23.896   2.503  0.00  0.00    +0.201 C 
ATOM      8  C   UNL     1     -36.654  22.738   3.480  0.00  0.00    +0.229 C 
ATOM      9  C   UNL     1     -34.551  27.009   3.375  0.00  0.00    +0.118 C 
ATOM     10  C   UNL     1     -36.101  24.614   4.704  0.00  0.00    +0.357 C 
ATOM     11  C   UNL     1     -33.607  25.844   3.307  0.00  0.00    +0.318 C 
ENDROOT
BRANCH   6  12
ATOM     12  C   UNL     1     -36.119  26.731   1.437  0.00  0.00    -0.018 C 
ATOM     13  C   UNL     1     -37.275  27.403   1.056  0.00  0.00    -0.001 C 
ATOM     14  C   UNL     1     -35.180  26.343   0.486  0.00  0.00    -0.001 C 
ATOM     15  C   UNL     1     -37.495  27.692  -0.291  0.00  0.00    +0.036 C 
ATOM     16  C   UNL     1     -35.401  26.632  -0.861  0.00  0.00    +0.036 C 
ATOM     17  C   UNL     1     -36.558  27.306  -1.250  0.00  0.00    +0.134 C 
BRANCH  17  18
ATOM     18  O   UNL     1     -36.773  27.588  -2.564  0.00  0.00    -0.506 OA
ATOM     19  H   UNL     1     -37.426  28.214  -2.808  0.00  0.00    +0.292 HD
ENDBRANCH  17  18
ENDBRANCH   6  12
BRANCH   7  20
ATOM     20  O   UNL     1     -37.831  24.399   2.233  0.00  0.00    -0.377 OA
ATOM     21  H   UNL     1     -38.488  23.712   2.430  0.00  0.00    +0.211 HD
ENDBRANCH   7  20
BRANCH   8  22
ATOM     22  C   UNL     1     -35.522  21.724   3.409  0.00  0.00    +0.182 C 
BRANCH  22  23
ATOM     23  O   UNL     1     -35.479  20.994   4.635  0.00  0.00    -0.378 OA
ATOM     24  H   UNL     1     -35.778  20.085   4.480  0.00  0.00    +0.211 HD
ENDBRANCH  22  23
BRANCH  22  25
ATOM     25  C   UNL     1     -35.731  20.733   2.271  0.00  0.00    +0.170 C 
BRANCH  25  26
ATOM     26  O   UNL     1     -36.724  19.789   2.656  0.00  0.00    -0.379 OA
ATOM     27  H   UNL     1     -37.012  19.973   3.563  0.00  0.00    +0.211 HD
ENDBRANCH  25  26
ENDBRANCH  22  25
ENDBRANCH   8  22
TORSDOF 7
ENDMDL
MODEL 8
REMARK VINA RESULT:      -5.4      3.877      6.333
REMARK  Name = 193664
REMARK  7 active torsions:
REMARK  status: ('A' for Active; 'I' for Inactive)
REMARK    1  A    between atoms: C_6  and  C_12
REMARK    2  A    between atoms: C_7  and  O_20
REMARK    3  A    between atoms: C_8  and  C_22
REMARK    4  A    between atoms: C_17  and  O_18
REMARK    5  A    between atoms: C_22  and  O_23
REMARK    6  A    between atoms: C_22  and  C_25
REMARK    7  A    between atoms: C_25  and  O_26
REMARK                            x       y       z     vdW  Elec       q    Type
REMARK                         _______ _______ _______ _____ _____    ______ ____
ROOT
ATOM      1  O   UNL     1     -34.456  26.214   1.610  0.00  0.00    -0.442 OA
ATOM      2  O   UNL     1     -33.074  28.475   3.237  0.00  0.00    -0.445 OA
ATOM      3  O   UNL     1     -35.317  28.796   2.957  0.00  0.00    -0.246 OA
ATOM      4  O   UNL     1     -36.103  25.722   0.092  0.00  0.00    -0.250 OA
ATOM      5  C   UNL     1     -34.399  26.525   3.006  0.00  0.00    +0.255 C 
ATOM      6  C   UNL     1     -35.666  25.917   3.616  0.00  0.00    +0.083 C 
ATOM      7  C   UNL     1     -33.046  26.168   3.610  0.00  0.00    +0.201 C 
ATOM      8  C   UNL     1     -32.166  27.362   3.274  0.00  0.00    +0.229 C 
ATOM      9  C   UNL     1     -36.642  25.968   2.441  0.00  0.00    +0.118 C 
ATOM     10  C   UNL     1     -34.361  28.043   3.067  0.00  0.00    +0.357 C 
ATOM     11  C   UNL     1     -35.742  25.938   1.240  0.00  0.00    +0.318 C 
ENDROOT
BRANCH   6  12
ATOM     12  C   UNL     1     -35.546  24.498   4.152  0.00  0.00    -0.018 C 
ATOM     13  C   UNL     1     -35.511  24.280   5.525  0.00  0.00    -0.001 C 
ATOM     14  C   UNL     1     -35.472  23.428   3.265  0.00  0.00    -0.001 C 
ATOM     15  C   UNL     1     -35.401  22.980   6.018  0.00  0.00    +0.036 C 
ATOM     16  C   UNL     1     -35.362  22.128   3.757  0.00  0.00    +0.036 C 
ATOM     17  C   UNL     1     -35.326  21.903   5.133  0.00  0.00    +0.134 C 
BRANCH  17  18
ATOM     18  O   UNL     1     -35.218  20.634   5.614  0.00  0.00    -0.506 OA
ATOM     19  H   UNL     1     -35.116  20.488   6.534  0.00  0.00    +0.292 HD
ENDBRANCH  17  18
ENDBRANCH   6  12
BRANCH   7  20
ATOM     20  O   UNL     1     -33.156  26.084   5.030  0.00  0.00    -0.377 OA
ATOM     21  H   UNL     1     -32.298  25.832   5.406  0.00  0.00    +0.211 HD
ENDBRANCH   7  20
BRANCH   8  22
ATOM     22  C   UNL     1     -31.451  27.259   1.935  0.00  0.00    +0.182 C 
BRANCH  22  23
ATOM     23  O   UNL     1     -31.720  28.438   1.177  0.00  0.00    -0.378 OA
ATOM     24  H   UNL     1     -31.586  28.254   0.234  0.00  0.00    +0.211 HD
ENDBRANCH  22  23
BRANCH  22  25
ATOM     25  C   UNL     1     -29.943  27.142   2.116  0.00  0.00    +0.170 C 
BRANCH  25  26
ATOM     26  O   UNL     1     -29.650  25.913   2.775  0.00  0.00    -0.379 OA
ATOM     27  H   UNL     1     -29.211  26.095   3.619  0.00  0.00    +0.211 HD
ENDBRANCH  25  26
ENDBRANCH  22  25
ENDBRANCH   8  22
TORSDOF 7
ENDMDL
MODEL 9
REMARK VINA RESULT:      -5.4      2.412      5.706
REMARK  Name = 193664
REMARK  7 active torsions:
REMARK  status: ('A' for Active; 'I' for Inactive)
REMARK    1  A    between atoms: C_6  and  C_12
REMARK    2  A    between atoms: C_7  and  O_20
REMARK    3  A    between atoms: C_8  and  C_22
REMARK    4  A    between atoms: C_17  and  O_18
REMARK    5  A    between atoms: C_22  and  O_23
REMARK    6  A    between atoms: C_22  and  C_25
REMARK    7  A    between atoms: C_25  and  O_26
REMARK                            x       y       z     vdW  Elec       q    Type
REMARK                         _______ _______ _______ _____ _____    ______ ____
ROOT
ATOM      1  O   UNL     1     -36.265  22.898  -0.013  0.00  0.00    -0.442 OA
ATOM      2  O   UNL     1     -36.276  19.872   0.703  0.00  0.00    -0.445 OA
ATOM      3  O   UNL     1     -34.218  20.657   0.097  0.00  0.00    -0.246 OA
ATOM      4  O   UNL     1     -35.352  24.511  -1.362  0.00  0.00    -0.250 OA
ATOM      5  C   UNL     1     -35.848  22.160   1.141  0.00  0.00    +0.255 C 
ATOM      6  C   UNL     1     -34.775  23.021   1.814  0.00  0.00    +0.083 C 
ATOM      7  C   UNL     1     -37.037  21.684   1.967  0.00  0.00    +0.201 C 
ATOM      8  C   UNL     1     -37.482  20.408   1.271  0.00  0.00    +0.229 C 
ATOM      9  C   UNL     1     -34.180  23.778   0.627  0.00  0.00    +0.118 C 
ATOM     10  C   UNL     1     -35.320  20.844   0.593  0.00  0.00    +0.357 C 
ATOM     11  C   UNL     1     -35.305  23.804  -0.367  0.00  0.00    +0.318 C 
ENDROOT
BRANCH   6  12
ATOM     12  C   UNL     1     -35.257  23.993   2.882  0.00  0.00    -0.018 C 
ATOM     13  C   UNL     1     -36.234  24.932   2.570  0.00  0.00    -0.001 C 
ATOM     14  C   UNL     1     -34.716  23.935   4.163  0.00  0.00    -0.001 C 
ATOM     15  C   UNL     1     -36.676  25.822   3.548  0.00  0.00    +0.036 C 
ATOM     16  C   UNL     1     -35.157  24.825   5.141  0.00  0.00    +0.036 C 
ATOM     17  C   UNL     1     -36.137  25.769   4.834  0.00  0.00    +0.134 C 
BRANCH  17  18
ATOM     18  O   UNL     1     -36.568  26.639   5.789  0.00  0.00    -0.506 OA
ATOM     19  H   UNL     1     -36.865  27.493   5.545  0.00  0.00    +0.292 HD
ENDBRANCH  17  18
ENDBRANCH   6  12
BRANCH   7  20
ATOM     20  O   UNL     1     -36.606  21.343   3.284  0.00  0.00    -0.377 OA
ATOM     21  H   UNL     1     -37.256  20.752   3.694  0.00  0.00    +0.211 HD
ENDBRANCH   7  20
BRANCH   8  22
ATOM     22  C   UNL     1     -38.502  20.619   0.162  0.00  0.00    +0.182 C 
BRANCH  22  23
ATOM     23  O   UNL     1     -39.049  19.354  -0.209  0.00  0.00    -0.378 OA
ATOM     24  H   UNL     1     -38.945  19.225  -1.164  0.00  0.00    +0.211 HD
ENDBRANCH  22  23
BRANCH  22  25
ATOM     25  C   UNL     1     -39.644  21.518   0.619  0.00  0.00    +0.170 C 
BRANCH  25  26
ATOM     26  O   UNL     1     -40.276  20.923   1.749  0.00  0.00    -0.379 OA
ATOM     27  H   UNL     1     -39.892  21.286   2.562  0.00  0.00    +0.211 HD
ENDBRANCH  25  26
ENDBRANCH  22  25
ENDBRANCH   8  22
TORSDOF 7
ENDMDL
