MODEL 1
REMARK VINA RESULT:      -6.7      0.000      0.000
REMARK  Name = 5486897
REMARK  8 active torsions:
REMARK  status: ('A' for Active; 'I' for Inactive)
REMARK    1  A    between atoms: O_1  and  C_4
REMARK    2  A    between atoms: O_1  and  C_21
REMARK    3  A    between atoms: C_9  and  O_14
REMARK    4  A    between atoms: C_17  and  O_22
REMARK    5  A    between atoms: C_18  and  O_24
REMARK    6  A    between atoms: C_19  and  O_26
REMARK    7  A    between atoms: C_20  and  C_28
REMARK    8  A    between atoms: C_28  and  O_29
REMARK                            x       y       z     vdW  Elec       q    Type
REMARK                         _______ _______ _______ _____ _____    ______ ____
ROOT
ATOM      1  O   UNL     1     -38.814  24.401   3.612  0.00  0.00    -0.450 OA
ENDROOT
BRANCH   1   4
ATOM      2  O   UNL     1     -41.887  24.427  -0.138  0.00  0.00    -0.457 OA
ATOM      3  O   UNL     1     -40.309  26.498   2.997  0.00  0.00    -0.286 OA
ATOM      4  C   UNL     1     -39.415  23.813   2.533  0.00  0.00    +0.150 C 
ATOM      5  C   UNL     1     -40.364  24.474   1.755  0.00  0.00    +0.108 C 
ATOM      6  C   UNL     1     -39.049  22.506   2.222  0.00  0.00    +0.074 C 
ATOM      7  C   UNL     1     -40.948  23.830   0.666  0.00  0.00    +0.154 C 
ATOM      8  C   UNL     1     -40.767  25.855   2.063  0.00  0.00    +0.204 C 
ATOM      9  C   UNL     1     -39.633  21.860   1.131  0.00  0.00    +0.140 C 
ATOM     10  C   UNL     1     -40.583  22.520   0.352  0.00  0.00    +0.074 C 
ATOM     11  C   UNL     1     -41.779  26.450   1.169  0.00  0.00    +0.075 C 
ATOM     12  C   UNL     1     -42.268  25.728   0.151  0.00  0.00    +0.126 C 
ATOM     13  C   UNL     1     -43.295  26.272  -0.792  0.00  0.00    +0.073 C 
BRANCH   9  14
ATOM     14  O   UNL     1     -39.274  20.582   0.827  0.00  0.00    -0.505 OA
ATOM     15  H   UNL     1     -39.296  19.919   1.488  0.00  0.00    +0.292 HD
ENDBRANCH   9  14
ENDBRANCH   1   4
BRANCH   1  21
ATOM     16  O   UNL     1     -36.863  23.673   4.662  0.00  0.00    -0.316 OA
ATOM     17  C   UNL     1     -35.459  26.060   3.900  0.00  0.00    +0.173 C 
ATOM     18  C   UNL     1     -34.912  25.084   4.942  0.00  0.00    +0.169 C 
ATOM     19  C   UNL     1     -36.974  25.923   3.756  0.00  0.00    +0.210 C 
ATOM     20  C   UNL     1     -35.434  23.669   4.687  0.00  0.00    +0.177 C 
ATOM     21  C   UNL     1     -37.389  24.460   3.596  0.00  0.00    +0.318 C 
BRANCH  17  22
ATOM     22  O   UNL     1     -35.140  27.386   4.326  0.00  0.00    -0.379 OA
ATOM     23  H   UNL     1     -35.664  27.608   5.112  0.00  0.00    +0.211 HD
ENDBRANCH  17  22
BRANCH  18  24
ATOM     24  O   UNL     1     -33.488  25.079   4.881  0.00  0.00    -0.379 OA
ATOM     25  H   UNL     1     -33.131  24.659   5.679  0.00  0.00    +0.211 HD
ENDBRANCH  18  24
BRANCH  19  26
ATOM     26  O   UNL     1     -37.407  26.639   2.599  0.00  0.00    -0.377 OA
ATOM     27  H   UNL     1     -37.311  27.591   2.753  0.00  0.00    +0.211 HD
ENDBRANCH  19  26
BRANCH  20  28
ATOM     28  C   UNL     1     -34.996  22.700   5.781  0.00  0.00    +0.169 C 
BRANCH  28  29
ATOM     29  O   UNL     1     -36.131  21.978   6.226  0.00  0.00    -0.379 OA
ATOM     30  H   UNL     1     -36.155  21.112   5.788  0.00  0.00    +0.211 HD
ENDBRANCH  28  29
ENDBRANCH  20  28
ENDBRANCH   1  21
TORSDOF 8
ENDMDL
MODEL 2
REMARK VINA RESULT:      -6.4      1.566      6.728
REMARK  Name = 5486897
REMARK  8 active torsions:
REMARK  status: ('A' for Active; 'I' for Inactive)
REMARK    1  A    between atoms: O_1  and  C_4
REMARK    2  A    between atoms: O_1  and  C_21
REMARK    3  A    between atoms: C_9  and  O_14
REMARK    4  A    between atoms: C_17  and  O_22
REMARK    5  A    between atoms: C_18  and  O_24
REMARK    6  A    between atoms: C_19  and  O_26
REMARK    7  A    between atoms: C_20  and  C_28
REMARK    8  A    between atoms: C_28  and  O_29
REMARK                            x       y       z     vdW  Elec       q    Type
REMARK                         _______ _______ _______ _____ _____    ______ ____
ROOT
ATOM      1  O   UNL     1     -36.813  24.532   2.295  0.00  0.00    -0.450 OA
ENDROOT
BRANCH   1   4
ATOM      2  O   UNL     1     -33.698  25.279   5.934  0.00  0.00    -0.457 OA
ATOM      3  O   UNL     1     -35.658  26.873   2.737  0.00  0.00    -0.286 OA
ATOM      4  C   UNL     1     -36.102  24.115   3.386  0.00  0.00    +0.150 C 
ATOM      5  C   UNL     1     -35.252  24.965   4.092  0.00  0.00    +0.108 C 
ATOM      6  C   UNL     1     -36.248  22.789   3.785  0.00  0.00    +0.074 C 
ATOM      7  C   UNL     1     -34.548  24.492   5.198  0.00  0.00    +0.154 C 
ATOM      8  C   UNL     1     -35.082  26.370   3.691  0.00  0.00    +0.204 C 
ATOM      9  C   UNL     1     -35.543  22.313   4.893  0.00  0.00    +0.140 C 
ATOM     10  C   UNL     1     -34.693  23.163   5.600  0.00  0.00    +0.074 C 
ATOM     11  C   UNL     1     -34.157  27.173   4.514  0.00  0.00    +0.075 C 
ATOM     12  C   UNL     1     -33.536  26.603   5.556  0.00  0.00    +0.126 C 
ATOM     13  C   UNL     1     -32.587  27.360   6.431  0.00  0.00    +0.073 C 
BRANCH   9  14
ATOM     14  O   UNL     1     -35.687  21.016   5.283  0.00  0.00    -0.505 OA
ATOM     15  H   UNL     1     -35.047  20.622   5.843  0.00  0.00    +0.292 HD
ENDBRANCH   9  14
ENDBRANCH   1   4
BRANCH   1  21
ATOM     16  O   UNL     1     -38.654  23.526   1.274  0.00  0.00    -0.316 OA
ATOM     17  C   UNL     1     -40.399  25.632   2.151  0.00  0.00    +0.173 C 
ATOM     18  C   UNL     1     -40.815  24.610   1.092  0.00  0.00    +0.169 C 
ATOM     19  C   UNL     1     -38.878  25.739   2.250  0.00  0.00    +0.210 C 
ATOM     20  C   UNL     1     -40.063  23.291   1.287  0.00  0.00    +0.177 C 
ATOM     21  C   UNL     1     -38.229  24.358   2.351  0.00  0.00    +0.318 C 
BRANCH  17  22
ATOM     22  O   UNL     1     -40.941  26.900   1.777  0.00  0.00    -0.379 OA
ATOM     23  H   UNL     1     -41.310  27.337   2.561  0.00  0.00    +0.211 HD
ENDBRANCH  17  22
BRANCH  18  24
ATOM     24  O   UNL     1     -42.216  24.373   1.191  0.00  0.00    -0.379 OA
ATOM     25  H   UNL     1     -42.575  24.862   1.947  0.00  0.00    +0.211 HD
ENDBRANCH  18  24
BRANCH  19  26
ATOM     26  O   UNL     1     -38.530  26.483   3.417  0.00  0.00    -0.377 OA
ATOM     27  H   UNL     1     -37.572  26.438   3.556  0.00  0.00    +0.211 HD
ENDBRANCH  19  26
BRANCH  20  28
ATOM     28  C   UNL     1     -40.373  22.295   0.175  0.00  0.00    +0.169 C 
BRANCH  28  29
ATOM     29  O   UNL     1     -40.619  21.028   0.758  0.00  0.00    -0.379 OA
ATOM     30  H   UNL     1     -40.787  20.377   0.059  0.00  0.00    +0.211 HD
ENDBRANCH  28  29
ENDBRANCH  20  28
ENDBRANCH   1  21
TORSDOF 8
ENDMDL
MODEL 3
REMARK VINA RESULT:      -6.3      2.190      7.062
REMARK  Name = 5486897
REMARK  8 active torsions:
REMARK  status: ('A' for Active; 'I' for Inactive)
REMARK    1  A    between atoms: O_1  and  C_4
REMARK    2  A    between atoms: O_1  and  C_21
REMARK    3  A    between atoms: C_9  and  O_14
REMARK    4  A    between atoms: C_17  and  O_22
REMARK    5  A    between atoms: C_18  and  O_24
REMARK    6  A    between atoms: C_19  and  O_26
REMARK    7  A    between atoms: C_20  and  C_28
REMARK    8  A    between atoms: C_28  and  O_29
REMARK                            x       y       z     vdW  Elec       q    Type
REMARK                         _______ _______ _______ _____ _____    ______ ____
ROOT
ATOM      1  O   UNL     1     -36.019  22.882   2.778  0.00  0.00    -0.450 OA
ENDROOT
BRANCH   1   4
ATOM      2  O   UNL     1     -33.047  26.367   4.365  0.00  0.00    -0.457 OA
ATOM      3  O   UNL     1     -36.003  23.720   5.289  0.00  0.00    -0.286 OA
ATOM      4  C   UNL     1     -35.030  23.807   2.593  0.00  0.00    +0.150 C 
ATOM      5  C   UNL     1     -34.561  24.615   3.628  0.00  0.00    +0.108 C 
ATOM      6  C   UNL     1     -34.488  23.928   1.316  0.00  0.00    +0.074 C 
ATOM      7  C   UNL     1     -33.550  25.544   3.388  0.00  0.00    +0.154 C 
ATOM      8  C   UNL     1     -35.117  24.506   4.986  0.00  0.00    +0.204 C 
ATOM      9  C   UNL     1     -33.475  24.859   1.075  0.00  0.00    +0.140 C 
ATOM     10  C   UNL     1     -33.005  25.668   2.109  0.00  0.00    +0.074 C 
ATOM     11  C   UNL     1     -34.541  25.412   5.998  0.00  0.00    +0.075 C 
ATOM     12  C   UNL     1     -33.570  26.265   5.644  0.00  0.00    +0.126 C 
ATOM     13  C   UNL     1     -32.943  27.210   6.622  0.00  0.00    +0.073 C 
BRANCH   9  14
ATOM     14  O   UNL     1     -32.944  24.976  -0.174  0.00  0.00    -0.505 OA
ATOM     15  H   UNL     1     -32.689  24.210  -0.649  0.00  0.00    +0.292 HD
ENDBRANCH   9  14
ENDBRANCH   1   4
BRANCH   1  21
ATOM     16  O   UNL     1     -37.851  24.288   2.443  0.00  0.00    -0.316 OA
ATOM     17  C   UNL     1     -39.512  22.079   1.662  0.00  0.00    +0.173 C 
ATOM     18  C   UNL     1     -40.084  23.458   1.994  0.00  0.00    +0.169 C 
ATOM     19  C   UNL     1     -38.139  21.880   2.301  0.00  0.00    +0.210 C 
ATOM     20  C   UNL     1     -39.052  24.554   1.717  0.00  0.00    +0.177 C 
ATOM     21  C   UNL     1     -37.222  23.075   2.035  0.00  0.00    +0.318 C 
BRANCH  17  22
ATOM     22  O   UNL     1     -40.417  21.094   2.162  0.00  0.00    -0.379 OA
ATOM     23  H   UNL     1     -39.921  20.300   2.419  0.00  0.00    +0.211 HD
ENDBRANCH  17  22
BRANCH  18  24
ATOM     24  O   UNL     1     -41.244  23.691   1.199  0.00  0.00    -0.379 OA
ATOM     25  H   UNL     1     -41.796  24.366   1.623  0.00  0.00    +0.211 HD
ENDBRANCH  18  24
BRANCH  19  26
ATOM     26  O   UNL     1     -37.524  20.714   1.753  0.00  0.00    -0.377 OA
ATOM     27  H   UNL     1     -36.565  20.846   1.707  0.00  0.00    +0.211 HD
ENDBRANCH  19  26
BRANCH  20  28
ATOM     28  C   UNL     1     -39.557  25.927   2.150  0.00  0.00    +0.169 C 
BRANCH  28  29
ATOM     29  O   UNL     1     -38.882  26.302   3.337  0.00  0.00    -0.379 OA
ATOM     30  H   UNL     1     -38.371  25.548   3.671  0.00  0.00    +0.211 HD
ENDBRANCH  28  29
ENDBRANCH  20  28
ENDBRANCH   1  21
TORSDOF 8
ENDMDL
MODEL 4
REMARK VINA RESULT:      -6.3      2.507      6.990
REMARK  Name = 5486897
REMARK  8 active torsions:
REMARK  status: ('A' for Active; 'I' for Inactive)
REMARK    1  A    between atoms: O_1  and  C_4
REMARK    2  A    between atoms: O_1  and  C_21
REMARK    3  A    between atoms: C_9  and  O_14
REMARK    4  A    between atoms: C_17  and  O_22
REMARK    5  A    between atoms: C_18  and  O_24
REMARK    6  A    between atoms: C_19  and  O_26
REMARK    7  A    between atoms: C_20  and  C_28
REMARK    8  A    between atoms: C_28  and  O_29
REMARK                            x       y       z     vdW  Elec       q    Type
REMARK                         _______ _______ _______ _____ _____    ______ ____
ROOT
ATOM      1  O   UNL     1     -37.303  24.527   3.476  0.00  0.00    -0.450 OA
ENDROOT
BRANCH   1   4
ATOM      2  O   UNL     1     -33.797  27.717   4.494  0.00  0.00    -0.457 OA
ATOM      3  O   UNL     1     -35.729  24.302   5.594  0.00  0.00    -0.286 OA
ATOM      4  C   UNL     1     -36.579  25.656   3.213  0.00  0.00    +0.150 C 
ATOM      5  C   UNL     1     -35.539  26.085   4.036  0.00  0.00    +0.108 C 
ATOM      6  C   UNL     1     -36.913  26.388   2.077  0.00  0.00    +0.074 C 
ATOM      7  C   UNL     1     -34.831  27.244   3.724  0.00  0.00    +0.154 C 
ATOM      8  C   UNL     1     -35.167  25.329   5.242  0.00  0.00    +0.204 C 
ATOM      9  C   UNL     1     -36.205  27.550   1.762  0.00  0.00    +0.140 C 
ATOM     10  C   UNL     1     -35.164  27.979   2.585  0.00  0.00    +0.074 C 
ATOM     11  C   UNL     1     -34.049  25.879   6.034  0.00  0.00    +0.075 C 
ATOM     12  C   UNL     1     -33.446  27.006   5.631  0.00  0.00    +0.126 C 
ATOM     13  C   UNL     1     -32.307  27.616   6.387  0.00  0.00    +0.073 C 
BRANCH   9  14
ATOM     14  O   UNL     1     -36.532  28.265   0.651  0.00  0.00    -0.505 OA
ATOM     15  H   UNL     1     -36.324  27.930  -0.199  0.00  0.00    +0.292 HD
ENDBRANCH   9  14
ENDBRANCH   1   4
BRANCH   1  21
ATOM     16  O   UNL     1     -38.691  23.342   2.023  0.00  0.00    -0.316 OA
ATOM     17  C   UNL     1     -36.910  21.089   2.022  0.00  0.00    +0.173 C 
ATOM     18  C   UNL     1     -38.333  21.009   1.468  0.00  0.00    +0.169 C 
ATOM     19  C   UNL     1     -36.766  22.242   3.014  0.00  0.00    +0.210 C 
ATOM     20  C   UNL     1     -38.799  22.380   0.972  0.00  0.00    +0.177 C 
ATOM     21  C   UNL     1     -37.344  23.539   2.447  0.00  0.00    +0.318 C 
BRANCH  17  22
ATOM     22  O   UNL     1     -36.625  19.855   2.683  0.00  0.00    -0.379 OA
ATOM     23  H   UNL     1     -37.351  19.230   2.529  0.00  0.00    +0.211 HD
ENDBRANCH  17  22
BRANCH  18  24
ATOM     24  O   UNL     1     -38.368  20.081   0.387  0.00  0.00    -0.379 OA
ATOM     25  H   UNL     1     -37.665  20.295  -0.246  0.00  0.00    +0.211 HD
ENDBRANCH  18  24
BRANCH  19  26
ATOM     26  O   UNL     1     -35.383  22.455   3.295  0.00  0.00    -0.377 OA
ATOM     27  H   UNL     1     -34.861  22.288   2.495  0.00  0.00    +0.211 HD
ENDBRANCH  19  26
BRANCH  20  28
ATOM     28  C   UNL     1     -40.256  22.353   0.522  0.00  0.00    +0.169 C 
BRANCH  28  29
ATOM     29  O   UNL     1     -40.820  21.108   0.893  0.00  0.00    -0.379 OA
ATOM     30  H   UNL     1     -41.753  21.232   1.126  0.00  0.00    +0.211 HD
ENDBRANCH  28  29
ENDBRANCH  20  28
ENDBRANCH   1  21
TORSDOF 8
ENDMDL
MODEL 5
REMARK VINA RESULT:      -6.1      4.572      7.388
REMARK  Name = 5486897
REMARK  8 active torsions:
REMARK  status: ('A' for Active; 'I' for Inactive)
REMARK    1  A    between atoms: O_1  and  C_4
REMARK    2  A    between atoms: O_1  and  C_21
REMARK    3  A    between atoms: C_9  and  O_14
REMARK    4  A    between atoms: C_17  and  O_22
REMARK    5  A    between atoms: C_18  and  O_24
REMARK    6  A    between atoms: C_19  and  O_26
REMARK    7  A    between atoms: C_20  and  C_28
REMARK    8  A    between atoms: C_28  and  O_29
REMARK                            x       y       z     vdW  Elec       q    Type
REMARK                         _______ _______ _______ _____ _____    ______ ____
ROOT
ATOM      1  O   UNL     1     -35.615  22.237   1.799  0.00  0.00    -0.450 OA
ENDROOT
BRANCH   1   4
ATOM      2  O   UNL     1     -33.738  25.714   4.607  0.00  0.00    -0.457 OA
ATOM      3  O   UNL     1     -34.291  24.311   0.821  0.00  0.00    -0.286 OA
ATOM      4  C   UNL     1     -35.365  22.809   3.015  0.00  0.00    +0.150 C 
ATOM      5  C   UNL     1     -34.656  24.002   3.148  0.00  0.00    +0.108 C 
ATOM      6  C   UNL     1     -35.847  22.157   4.147  0.00  0.00    +0.074 C 
ATOM      7  C   UNL     1     -34.428  24.545   4.411  0.00  0.00    +0.154 C 
ATOM      8  C   UNL     1     -34.138  24.710   1.967  0.00  0.00    +0.204 C 
ATOM      9  C   UNL     1     -35.619  22.699   5.414  0.00  0.00    +0.140 C 
ATOM     10  C   UNL     1     -34.909  23.892   5.548  0.00  0.00    +0.074 C 
ATOM     11  C   UNL     1     -33.404  25.962   2.232  0.00  0.00    +0.075 C 
ATOM     12  C   UNL     1     -33.248  26.383   3.495  0.00  0.00    +0.126 C 
ATOM     13  C   UNL     1     -32.515  27.643   3.832  0.00  0.00    +0.073 C 
BRANCH   9  14
ATOM     14  O   UNL     1     -36.091  22.061   6.521  0.00  0.00    -0.505 OA
ATOM     15  H   UNL     1     -37.009  22.064   6.707  0.00  0.00    +0.292 HD
ENDBRANCH   9  14
ENDBRANCH   1   4
BRANCH   1  21
ATOM     16  O   UNL     1     -34.120  20.513   1.315  0.00  0.00    -0.316 OA
ATOM     17  C   UNL     1     -36.247  18.804   0.419  0.00  0.00    +0.173 C 
ATOM     18  C   UNL     1     -34.774  18.489   0.153  0.00  0.00    +0.169 C 
ATOM     19  C   UNL     1     -36.455  20.295   0.684  0.00  0.00    +0.210 C 
ATOM     20  C   UNL     1     -33.884  19.106   1.234  0.00  0.00    +0.177 C 
ATOM     21  C   UNL     1     -35.453  20.822   1.712  0.00  0.00    +0.318 C 
BRANCH  17  22
ATOM     22  O   UNL     1     -36.996  18.417  -0.734  0.00  0.00    -0.379 OA
ATOM     23  H   UNL     1     -36.725  17.528  -1.012  0.00  0.00    +0.211 HD
ENDBRANCH  17  22
BRANCH  18  24
ATOM     24  O   UNL     1     -34.590  17.076   0.141  0.00  0.00    -0.379 OA
ATOM     25  H   UNL     1     -34.851  16.722  -0.723  0.00  0.00    +0.211 HD
ENDBRANCH  18  24
BRANCH  19  26
ATOM     26  O   UNL     1     -37.771  20.507   1.192  0.00  0.00    -0.377 OA
ATOM     27  H   UNL     1     -38.149  21.304   0.790  0.00  0.00    +0.211 HD
ENDBRANCH  19  26
BRANCH  20  28
ATOM     28  C   UNL     1     -32.403  18.905   0.928  0.00  0.00    +0.169 C 
BRANCH  28  29
ATOM     29  O   UNL     1     -31.969  17.716   1.562  0.00  0.00    -0.379 OA
ATOM     30  H   UNL     1     -31.004  17.643   1.487  0.00  0.00    +0.211 HD
ENDBRANCH  28  29
ENDBRANCH  20  28
ENDBRANCH   1  21
TORSDOF 8
ENDMDL
MODEL 6
REMARK VINA RESULT:      -6.1      2.073      6.847
REMARK  Name = 5486897
REMARK  8 active torsions:
REMARK  status: ('A' for Active; 'I' for Inactive)
REMARK    1  A    between atoms: O_1  and  C_4
REMARK    2  A    between atoms: O_1  and  C_21
REMARK    3  A    between atoms: C_9  and  O_14
REMARK    4  A    between atoms: C_17  and  O_22
REMARK    5  A    between atoms: C_18  and  O_24
REMARK    6  A    between atoms: C_19  and  O_26
REMARK    7  A    between atoms: C_20  and  C_28
REMARK    8  A    between atoms: C_28  and  O_29
REMARK                            x       y       z     vdW  Elec       q    Type
REMARK                         _______ _______ _______ _____ _____    ______ ____
ROOT
ATOM      1  O   UNL     1     -35.792  22.537   1.774  0.00  0.00    -0.450 OA
ENDROOT
BRANCH   1   4
ATOM      2  O   UNL     1     -33.622  25.703   4.736  0.00  0.00    -0.457 OA
ATOM      3  O   UNL     1     -34.447  24.640   0.889  0.00  0.00    -0.286 OA
ATOM      4  C   UNL     1     -35.450  22.997   3.015  0.00  0.00    +0.150 C 
ATOM      5  C   UNL     1     -34.689  24.150   3.201  0.00  0.00    +0.108 C 
ATOM      6  C   UNL     1     -35.891  22.269   4.118  0.00  0.00    +0.074 C 
ATOM      7  C   UNL     1     -34.367  24.577   4.488  0.00  0.00    +0.154 C 
ATOM      8  C   UNL     1     -34.213  24.936   2.052  0.00  0.00    +0.204 C 
ATOM      9  C   UNL     1     -35.569  22.696   5.408  0.00  0.00    +0.140 C 
ATOM     10  C   UNL     1     -34.807  23.849   5.595  0.00  0.00    +0.074 C 
ATOM     11  C   UNL     1     -33.417  26.136   2.373  0.00  0.00    +0.075 C 
ATOM     12  C   UNL     1     -33.172  26.445   3.654  0.00  0.00    +0.126 C 
ATOM     13  C   UNL     1     -32.373  27.647   4.047  0.00  0.00    +0.073 C 
BRANCH   9  14
ATOM     14  O   UNL     1     -36.000  21.984   6.486  0.00  0.00    -0.505 OA
ATOM     15  H   UNL     1     -36.057  21.050   6.438  0.00  0.00    +0.292 HD
ENDBRANCH   9  14
ENDBRANCH   1   4
BRANCH   1  21
ATOM     16  O   UNL     1     -37.568  24.045   1.883  0.00  0.00    -0.316 OA
ATOM     17  C   UNL     1     -39.488  21.943   1.508  0.00  0.00    +0.173 C 
ATOM     18  C   UNL     1     -39.888  23.345   1.969  0.00  0.00    +0.169 C 
ATOM     19  C   UNL     1     -38.017  21.660   1.806  0.00  0.00    +0.210 C 
ATOM     20  C   UNL     1     -38.890  24.388   1.460  0.00  0.00    +0.177 C 
ATOM     21  C   UNL     1     -37.123  22.807   1.335  0.00  0.00    +0.318 C 
BRANCH  17  22
ATOM     22  O   UNL     1     -40.305  21.000   2.204  0.00  0.00    -0.379 OA
ATOM     23  H   UNL     1     -40.180  21.108   3.161  0.00  0.00    +0.211 HD
ENDBRANCH  17  22
BRANCH  18  24
ATOM     24  O   UNL     1     -41.186  23.653   1.470  0.00  0.00    -0.379 OA
ATOM     25  H   UNL     1     -41.852  23.427   2.138  0.00  0.00    +0.211 HD
ENDBRANCH  18  24
BRANCH  19  26
ATOM     26  O   UNL     1     -37.615  20.471   1.125  0.00  0.00    -0.377 OA
ATOM     27  H   UNL     1     -38.027  19.702   1.547  0.00  0.00    +0.211 HD
ENDBRANCH  19  26
BRANCH  20  28
ATOM     28  C   UNL     1     -39.200  25.779   2.004  0.00  0.00    +0.169 C 
BRANCH  28  29
ATOM     29  O   UNL     1     -39.681  25.649   3.329  0.00  0.00    -0.379 OA
ATOM     30  H   UNL     1     -39.095  25.060   3.830  0.00  0.00    +0.211 HD
ENDBRANCH  28  29
ENDBRANCH  20  28
ENDBRANCH   1  21
TORSDOF 8
ENDMDL
MODEL 7
REMARK VINA RESULT:      -6.0      4.298      8.771
REMARK  Name = 5486897
REMARK  8 active torsions:
REMARK  status: ('A' for Active; 'I' for Inactive)
REMARK    1  A    between atoms: O_1  and  C_4
REMARK    2  A    between atoms: O_1  and  C_21
REMARK    3  A    between atoms: C_9  and  O_14
REMARK    4  A    between atoms: C_17  and  O_22
REMARK    5  A    between atoms: C_18  and  O_24
REMARK    6  A    between atoms: C_19  and  O_26
REMARK    7  A    between atoms: C_20  and  C_28
REMARK    8  A    between atoms: C_28  and  O_29
REMARK                            x       y       z     vdW  Elec       q    Type
REMARK                         _______ _______ _______ _____ _____    ______ ____
ROOT
ATOM      1  O   UNL     1     -32.610  27.063   4.155  0.00  0.00    -0.450 OA
ENDROOT
BRANCH   1   4
ATOM      2  O   UNL     1     -30.986  31.627   3.957  0.00  0.00    -0.457 OA
ATOM      3  O   UNL     1     -32.257  28.363   1.875  0.00  0.00    -0.286 OA
ATOM      4  C   UNL     1     -32.169  28.219   4.738  0.00  0.00    +0.150 C 
ATOM      5  C   UNL     1     -31.804  29.338   3.993  0.00  0.00    +0.108 C 
ATOM      6  C   UNL     1     -32.090  28.253   6.128  0.00  0.00    +0.074 C 
ATOM      7  C   UNL     1     -31.359  30.493   4.635  0.00  0.00    +0.154 C 
ATOM      8  C   UNL     1     -31.879  29.328   2.523  0.00  0.00    +0.204 C 
ATOM      9  C   UNL     1     -31.645  29.409   6.773  0.00  0.00    +0.140 C 
ATOM     10  C   UNL     1     -31.279  30.529   6.028  0.00  0.00    +0.074 C 
ATOM     11  C   UNL     1     -31.467  30.571   1.843  0.00  0.00    +0.075 C 
ATOM     12  C   UNL     1     -31.056  31.618   2.573  0.00  0.00    +0.126 C 
ATOM     13  C   UNL     1     -30.625  32.907   1.946  0.00  0.00    +0.073 C 
BRANCH   9  14
ATOM     14  O   UNL     1     -31.569  29.441   8.132  0.00  0.00    -0.505 OA
ATOM     15  H   UNL     1     -30.751  29.624   8.551  0.00  0.00    +0.292 HD
ENDBRANCH   9  14
ENDBRANCH   1   4
BRANCH   1  21
ATOM     16  O   UNL     1     -33.849  25.162   4.697  0.00  0.00    -0.316 OA
ATOM     17  C   UNL     1     -36.290  26.398   3.824  0.00  0.00    +0.173 C 
ATOM     18  C   UNL     1     -36.186  24.899   4.107  0.00  0.00    +0.169 C 
ATOM     19  C   UNL     1     -34.918  27.003   3.528  0.00  0.00    +0.210 C 
ATOM     20  C   UNL     1     -35.093  24.617   5.141  0.00  0.00    +0.177 C 
ATOM     21  C   UNL     1     -33.886  26.582   4.575  0.00  0.00    +0.318 C 
BRANCH  17  22
ATOM     22  O   UNL     1     -37.142  26.576   2.692  0.00  0.00    -0.379 OA
ATOM     23  H   UNL     1     -38.005  26.909   2.986  0.00  0.00    +0.211 HD
ENDBRANCH  17  22
BRANCH  18  24
ATOM     24  O   UNL     1     -37.435  24.425   4.601  0.00  0.00    -0.379 OA
ATOM     25  H   UNL     1     -37.905  25.149   5.043  0.00  0.00    +0.211 HD
ENDBRANCH  18  24
BRANCH  19  26
ATOM     26  O   UNL     1     -35.014  28.427   3.542  0.00  0.00    -0.377 OA
ATOM     27  H   UNL     1     -34.221  28.801   3.955  0.00  0.00    +0.211 HD
ENDBRANCH  19  26
BRANCH  20  28
ATOM     28  C   UNL     1     -34.889  23.121   5.354  0.00  0.00    +0.169 C 
BRANCH  28  29
ATOM     29  O   UNL     1     -35.932  22.636   6.181  0.00  0.00    -0.379 OA
ATOM     30  H   UNL     1     -36.384  23.383   6.602  0.00  0.00    +0.211 HD
ENDBRANCH  28  29
ENDBRANCH  20  28
ENDBRANCH   1  21
TORSDOF 8
ENDMDL
MODEL 8
REMARK VINA RESULT:      -5.9      4.154      6.306
REMARK  Name = 5486897
REMARK  8 active torsions:
REMARK  status: ('A' for Active; 'I' for Inactive)
REMARK    1  A    between atoms: O_1  and  C_4
REMARK    2  A    between atoms: O_1  and  C_21
REMARK    3  A    between atoms: C_9  and  O_14
REMARK    4  A    between atoms: C_17  and  O_22
REMARK    5  A    between atoms: C_18  and  O_24
REMARK    6  A    between atoms: C_19  and  O_26
REMARK    7  A    between atoms: C_20  and  C_28
REMARK    8  A    between atoms: C_28  and  O_29
REMARK                            x       y       z     vdW  Elec       q    Type
REMARK                         _______ _______ _______ _____ _____    ______ ____
ROOT
ATOM      1  O   UNL     1     -35.711  23.725   0.610  0.00  0.00    -0.450 OA
ENDROOT
BRANCH   1   4
ATOM      2  O   UNL     1     -32.666  19.955   0.469  0.00  0.00    -0.457 OA
ATOM      3  O   UNL     1     -33.337  23.842  -0.555  0.00  0.00    -0.286 OA
ATOM      4  C   UNL     1     -35.369  22.432   0.896  0.00  0.00    +0.150 C 
ATOM      5  C   UNL     1     -34.150  21.879   0.508  0.00  0.00    +0.108 C 
ATOM      6  C   UNL     1     -36.290  21.660   1.600  0.00  0.00    +0.074 C 
ATOM      7  C   UNL     1     -33.849  20.555   0.823  0.00  0.00    +0.154 C 
ATOM      8  C   UNL     1     -33.161  22.675  -0.236  0.00  0.00    +0.204 C 
ATOM      9  C   UNL     1     -35.990  20.333   1.916  0.00  0.00    +0.140 C 
ATOM     10  C   UNL     1     -34.770  19.780   1.528  0.00  0.00    +0.074 C 
ATOM     11  C   UNL     1     -31.907  21.983  -0.592  0.00  0.00    +0.075 C 
ATOM     12  C   UNL     1     -31.733  20.703  -0.232  0.00  0.00    +0.126 C 
ATOM     13  C   UNL     1     -30.486  19.944  -0.561  0.00  0.00    +0.073 C 
BRANCH   9  14
ATOM     14  O   UNL     1     -36.890  19.579   2.605  0.00  0.00    -0.505 OA
ATOM     15  H   UNL     1     -37.513  19.054   2.142  0.00  0.00    +0.292 HD
ENDBRANCH   9  14
ENDBRANCH   1   4
BRANCH   1  21
ATOM     16  O   UNL     1     -35.361  23.960   2.905  0.00  0.00    -0.316 OA
ATOM     17  C   UNL     1     -37.280  26.091   3.066  0.00  0.00    +0.173 C 
ATOM     18  C   UNL     1     -36.730  25.386   4.308  0.00  0.00    +0.169 C 
ATOM     19  C   UNL     1     -37.138  25.213   1.823  0.00  0.00    +0.210 C 
ATOM     20  C   UNL     1     -35.331  24.828   4.039  0.00  0.00    +0.177 C 
ATOM     21  C   UNL     1     -35.725  24.639   1.706  0.00  0.00    +0.318 C 
BRANCH  17  22
ATOM     22  O   UNL     1     -38.662  26.372   3.294  0.00  0.00    -0.379 OA
ATOM     23  H   UNL     1     -38.809  27.330   3.241  0.00  0.00    +0.211 HD
ENDBRANCH  17  22
BRANCH  18  24
ATOM     24  O   UNL     1     -36.669  26.314   5.387  0.00  0.00    -0.379 OA
ATOM     25  H   UNL     1     -35.742  26.471   5.627  0.00  0.00    +0.211 HD
ENDBRANCH  18  24
BRANCH  19  26
ATOM     26  O   UNL     1     -37.401  25.995   0.659  0.00  0.00    -0.377 OA
ATOM     27  H   UNL     1     -36.788  25.740  -0.048  0.00  0.00    +0.211 HD
ENDBRANCH  19  26
BRANCH  20  28
ATOM     28  C   UNL     1     -34.808  24.021   5.223  0.00  0.00    +0.169 C 
BRANCH  28  29
ATOM     29  O   UNL     1     -35.900  23.355   5.832  0.00  0.00    -0.379 OA
ATOM     30  H   UNL     1     -36.323  23.948   6.472  0.00  0.00    +0.211 HD
ENDBRANCH  28  29
ENDBRANCH  20  28
ENDBRANCH   1  21
TORSDOF 8
ENDMDL
MODEL 9
REMARK VINA RESULT:      -5.9      3.371      7.064
REMARK  Name = 5486897
REMARK  8 active torsions:
REMARK  status: ('A' for Active; 'I' for Inactive)
REMARK    1  A    between atoms: O_1  and  C_4
REMARK    2  A    between atoms: O_1  and  C_21
REMARK    3  A    between atoms: C_9  and  O_14
REMARK    4  A    between atoms: C_17  and  O_22
REMARK    5  A    between atoms: C_18  and  O_24
REMARK    6  A    between atoms: C_19  and  O_26
REMARK    7  A    between atoms: C_20  and  C_28
REMARK    8  A    between atoms: C_28  and  O_29
REMARK                            x       y       z     vdW  Elec       q    Type
REMARK                         _______ _______ _______ _____ _____    ______ ____
ROOT
ATOM      1  O   UNL     1     -34.503  27.186   2.437  0.00  0.00    -0.450 OA
ENDROOT
BRANCH   1   4
ATOM      2  O   UNL     1     -36.650  23.611   4.908  0.00  0.00    -0.457 OA
ATOM      3  O   UNL     1     -33.170  25.534   4.019  0.00  0.00    -0.286 OA
ATOM      4  C   UNL     1     -35.600  26.462   2.813  0.00  0.00    +0.150 C 
ATOM      5  C   UNL     1     -35.518  25.386   3.694  0.00  0.00    +0.108 C 
ATOM      6  C   UNL     1     -36.833  26.834   2.283  0.00  0.00    +0.074 C 
ATOM      7  C   UNL     1     -36.667  24.679   4.046  0.00  0.00    +0.154 C 
ATOM      8  C   UNL     1     -34.227  24.974   4.269  0.00  0.00    +0.204 C 
ATOM      9  C   UNL     1     -37.985  26.127   2.634  0.00  0.00    +0.140 C 
ATOM     10  C   UNL     1     -37.903  25.049   3.515  0.00  0.00    +0.074 C 
ATOM     11  C   UNL     1     -34.265  23.822   5.189  0.00  0.00    +0.075 C 
ATOM     12  C   UNL     1     -35.435  23.222   5.450  0.00  0.00    +0.126 C 
ATOM     13  C   UNL     1     -35.542  22.049   6.374  0.00  0.00    +0.073 C 
BRANCH   9  14
ATOM     14  O   UNL     1     -39.190  26.491   2.115  0.00  0.00    -0.505 OA
ATOM     15  H   UNL     1     -39.910  25.891   2.137  0.00  0.00    +0.292 HD
ENDBRANCH   9  14
ENDBRANCH   1   4
BRANCH   1  21
ATOM     16  O   UNL     1     -34.657  29.301   1.463  0.00  0.00    -0.316 OA
ATOM     17  C   UNL     1     -33.149  30.489   3.599  0.00  0.00    +0.173 C 
ATOM     18  C   UNL     1     -33.434  31.224   2.289  0.00  0.00    +0.169 C 
ATOM     19  C   UNL     1     -33.255  28.975   3.419  0.00  0.00    +0.210 C 
ATOM     20  C   UNL     1     -34.729  30.715   1.651  0.00  0.00    +0.177 C 
ATOM     21  C   UNL     1     -34.544  28.590   2.693  0.00  0.00    +0.318 C 
BRANCH  17  22
ATOM     22  O   UNL     1     -31.826  30.827   4.017  0.00  0.00    -0.379 OA
ATOM     23  H   UNL     1     -31.393  31.352   3.325  0.00  0.00    +0.211 HD
ENDBRANCH  17  22
BRANCH  18  24
ATOM     24  O   UNL     1     -33.553  32.620   2.548  0.00  0.00    -0.379 OA
ATOM     25  H   UNL     1     -34.483  32.841   2.711  0.00  0.00    +0.211 HD
ENDBRANCH  18  24
BRANCH  19  26
ATOM     26  O   UNL     1     -33.257  28.344   4.700  0.00  0.00    -0.377 OA
ATOM     27  H   UNL     1     -33.032  28.996   5.381  0.00  0.00    +0.211 HD
ENDBRANCH  19  26
BRANCH  20  28
ATOM     28  C   UNL     1     -34.973  31.350   0.286  0.00  0.00    +0.169 C 
BRANCH  28  29
ATOM     29  O   UNL     1     -35.641  32.584   0.475  0.00  0.00    -0.379 OA
ATOM     30  H   UNL     1     -35.023  33.232   0.847  0.00  0.00    +0.211 HD
ENDBRANCH  28  29
ENDBRANCH  20  28
ENDBRANCH   1  21
TORSDOF 8
ENDMDL
