MODEL 1
REMARK VINA RESULT:      -6.4      0.000      0.000
REMARK  Name = 54695503
REMARK  10 active torsions:
REMARK  status: ('A' for Active; 'I' for Inactive)
REMARK    1  A    between atoms: C_2  and  C_12
REMARK    2  A    between atoms: C_5  and  C_16
REMARK    3  A    between atoms: C_7  and  C_22
REMARK    4  A    between atoms: C_12  and  O_13
REMARK    5  A    between atoms: C_16  and  O_17
REMARK    6  A    between atoms: O_17  and  C_18
REMARK    7  A    between atoms: C_18  and  C_20
REMARK    8  A    between atoms: C_22  and  O_24
REMARK    9  A    between atoms: C_23  and  C_27
REMARK   10  A    between atoms: C_27  and  O_28
REMARK                            x       y       z     vdW  Elec       q    Type
REMARK                         _______ _______ _______ _____ _____    ______ ____
ROOT
ATOM      1  C   UNL     1     -35.100  24.627   2.381  0.00  0.00    +0.042 C 
ATOM      2  C   UNL     1     -35.879  24.065   1.188  0.00  0.00    +0.125 C 
ATOM      3  C   UNL     1     -35.200  23.768   3.621  0.00  0.00    -0.018 C 
ATOM      4  C   UNL     1     -35.440  22.381   3.516  0.00  0.00    +0.002 C 
ATOM      5  C   UNL     1     -35.639  21.782   2.181  0.00  0.00    +0.072 C 
ATOM      6  C   UNL     1     -35.860  22.567   1.113  0.00  0.00    -0.009 C 
ATOM      7  C   UNL     1     -34.991  24.353   4.878  0.00  0.00    +0.030 C 
ATOM      8  C   UNL     1     -35.492  21.619   4.693  0.00  0.00    -0.000 C 
ATOM      9  C   UNL     1     -35.043  23.578   6.034  0.00  0.00    +0.003 C 
ATOM     10  C   UNL     1     -35.296  22.215   5.941  0.00  0.00    +0.000 C 
ENDROOT
BRANCH   2  12
ATOM     11  O   UNL     1     -38.259  23.780   0.863  0.00  0.00    -0.250 OA
ATOM     12  C   UNL     1     -37.323  24.467   1.245  0.00  0.00    +0.318 C 
BRANCH  12  13
ATOM     13  O   UNL     1     -37.453  25.706   1.779  0.00  0.00    -0.480 OA
ATOM     14  H   UNL     1     -36.845  26.381   1.551  0.00  0.00    +0.295 HD
ENDBRANCH  12  13
ENDBRANCH   2  12
BRANCH   5  16
ATOM     15  O   UNL     1     -36.610  19.719   1.532  0.00  0.00    -0.245 OA
ATOM     16  C   UNL     1     -35.630  20.339   1.906  0.00  0.00    +0.341 C 
BRANCH  16  17
ATOM     17  O   UNL     1     -34.381  19.864   2.139  0.00  0.00    -0.449 OA
BRANCH  17  18
ATOM     18  C   UNL     1     -33.699  19.352   0.989  0.00  0.00    +0.169 C 
ATOM     19  C   UNL     1     -32.804  18.198   1.421  0.00  0.00    +0.047 C 
BRANCH  18  20
ATOM     20  C   UNL     1     -32.883  20.477   0.349  0.00  0.00    +0.044 C 
ATOM     21  C   UNL     1     -31.473  20.032  -0.015  0.00  0.00    +0.004 C 
ENDBRANCH  18  20
ENDBRANCH  17  18
ENDBRANCH  16  17
ENDBRANCH   5  16
BRANCH   7  22
ATOM     22  C   UNL     1     -34.699  25.773   5.048  0.00  0.00    +0.140 C 
ATOM     23  C   UNL     1     -33.433  26.255   5.036  0.00  0.00    +0.118 C 
BRANCH  22  24
ATOM     24  O   UNL     1     -35.819  26.575   5.199  0.00  0.00    -0.505 OA
ATOM     25  H   UNL     1     -36.572  26.435   4.659  0.00  0.00    +0.292 HD
ENDBRANCH  22  24
BRANCH  23  27
ATOM     26  O   UNL     1     -32.485  28.189   6.123  0.00  0.00    -0.245 OA
ATOM     27  C   UNL     1     -33.095  27.686   5.195  0.00  0.00    +0.341 C 
BRANCH  27  28
ATOM     28  O   UNL     1     -33.576  28.367   4.129  0.00  0.00    -0.477 OA
ATOM     29  H   UNL     1     -33.957  27.903   3.409  0.00  0.00    +0.295 HD
ENDBRANCH  27  28
ENDBRANCH  23  27
ENDBRANCH   7  22
TORSDOF 10
ENDMDL
MODEL 2
REMARK VINA RESULT:      -6.3      2.691      6.987
REMARK  Name = 54695503
REMARK  10 active torsions:
REMARK  status: ('A' for Active; 'I' for Inactive)
REMARK    1  A    between atoms: C_2  and  C_12
REMARK    2  A    between atoms: C_5  and  C_16
REMARK    3  A    between atoms: C_7  and  C_22
REMARK    4  A    between atoms: C_12  and  O_13
REMARK    5  A    between atoms: C_16  and  O_17
REMARK    6  A    between atoms: O_17  and  C_18
REMARK    7  A    between atoms: C_18  and  C_20
REMARK    8  A    between atoms: C_22  and  O_24
REMARK    9  A    between atoms: C_23  and  C_27
REMARK   10  A    between atoms: C_27  and  O_28
REMARK                            x       y       z     vdW  Elec       q    Type
REMARK                         _______ _______ _______ _____ _____    ______ ____
ROOT
ATOM      1  C   UNL     1     -37.187  21.793   0.962  0.00  0.00    +0.042 C 
ATOM      2  C   UNL     1     -35.749  21.486   1.396  0.00  0.00    +0.125 C 
ATOM      3  C   UNL     1     -37.836  22.890   1.774  0.00  0.00    -0.018 C 
ATOM      4  C   UNL     1     -37.051  23.885   2.395  0.00  0.00    +0.002 C 
ATOM      5  C   UNL     1     -35.581  23.818   2.283  0.00  0.00    +0.072 C 
ATOM      6  C   UNL     1     -34.986  22.699   1.838  0.00  0.00    -0.009 C 
ATOM      7  C   UNL     1     -39.236  22.945   1.855  0.00  0.00    +0.030 C 
ATOM      8  C   UNL     1     -37.701  24.901   3.112  0.00  0.00    -0.000 C 
ATOM      9  C   UNL     1     -39.862  23.965   2.567  0.00  0.00    +0.003 C 
ATOM     10  C   UNL     1     -39.095  24.939   3.197  0.00  0.00    +0.000 C 
ENDROOT
BRANCH   2  12
ATOM     11  O   UNL     1     -34.831  20.450   3.379  0.00  0.00    -0.250 OA
ATOM     12  C   UNL     1     -35.725  20.527   2.549  0.00  0.00    +0.318 C 
BRANCH  12  13
ATOM     13  O   UNL     1     -36.836  19.750   2.548  0.00  0.00    -0.480 OA
ATOM     14  H   UNL     1     -36.814  18.902   2.150  0.00  0.00    +0.295 HD
ENDBRANCH  12  13
ENDBRANCH   2  12
BRANCH   5  16
ATOM     15  O   UNL     1     -34.577  25.949   2.011  0.00  0.00    -0.245 OA
ATOM     16  C   UNL     1     -34.667  24.911   2.644  0.00  0.00    +0.341 C 
BRANCH  16  17
ATOM     17  O   UNL     1     -33.986  24.552   3.760  0.00  0.00    -0.449 OA
BRANCH  17  18
ATOM     18  C   UNL     1     -34.709  24.691   4.987  0.00  0.00    +0.169 C 
ATOM     19  C   UNL     1     -34.182  25.910   5.734  0.00  0.00    +0.047 C 
BRANCH  18  20
ATOM     20  C   UNL     1     -34.537  23.417   5.817  0.00  0.00    +0.044 C 
ATOM     21  C   UNL     1     -35.794  22.557   5.822  0.00  0.00    +0.004 C 
ENDBRANCH  18  20
ENDBRANCH  17  18
ENDBRANCH  16  17
ENDBRANCH   5  16
BRANCH   7  22
ATOM     22  C   UNL     1     -40.102  21.970   1.200  0.00  0.00    +0.140 C 
ATOM     23  C   UNL     1     -40.556  22.144  -0.064  0.00  0.00    +0.118 C 
BRANCH  22  24
ATOM     24  O   UNL     1     -40.395  20.856   1.970  0.00  0.00    -0.505 OA
ATOM     25  H   UNL     1     -39.703  20.314   2.294  0.00  0.00    +0.292 HD
ENDBRANCH  22  24
BRANCH  23  27
ATOM     26  O   UNL     1     -42.507  21.411  -1.280  0.00  0.00    -0.245 OA
ATOM     27  C   UNL     1     -41.427  21.176  -0.766  0.00  0.00    +0.341 C 
BRANCH  27  28
ATOM     28  O   UNL     1     -40.828  19.962  -0.752  0.00  0.00    -0.477 OA
ATOM     29  H   UNL     1     -41.080  19.308  -1.374  0.00  0.00    +0.295 HD
ENDBRANCH  27  28
ENDBRANCH  23  27
ENDBRANCH   7  22
TORSDOF 10
ENDMDL
MODEL 3
REMARK VINA RESULT:      -6.1      2.120      7.079
REMARK  Name = 54695503
REMARK  10 active torsions:
REMARK  status: ('A' for Active; 'I' for Inactive)
REMARK    1  A    between atoms: C_2  and  C_12
REMARK    2  A    between atoms: C_5  and  C_16
REMARK    3  A    between atoms: C_7  and  C_22
REMARK    4  A    between atoms: C_12  and  O_13
REMARK    5  A    between atoms: C_16  and  O_17
REMARK    6  A    between atoms: O_17  and  C_18
REMARK    7  A    between atoms: C_18  and  C_20
REMARK    8  A    between atoms: C_22  and  O_24
REMARK    9  A    between atoms: C_23  and  C_27
REMARK   10  A    between atoms: C_27  and  O_28
REMARK                            x       y       z     vdW  Elec       q    Type
REMARK                         _______ _______ _______ _____ _____    ______ ____
ROOT
ATOM      1  C   UNL     1     -34.716  19.922   1.829  0.00  0.00    +0.042 C 
ATOM      2  C   UNL     1     -36.157  20.250   2.235  0.00  0.00    +0.125 C 
ATOM      3  C   UNL     1     -34.063  21.011   1.008  0.00  0.00    -0.018 C 
ATOM      4  C   UNL     1     -34.479  22.353   1.134  0.00  0.00    +0.002 C 
ATOM      5  C   UNL     1     -35.596  22.680   2.043  0.00  0.00    +0.072 C 
ATOM      6  C   UNL     1     -36.378  21.704   2.533  0.00  0.00    -0.009 C 
ATOM      7  C   UNL     1     -32.992  20.682   0.163  0.00  0.00    +0.030 C 
ATOM      8  C   UNL     1     -33.821  23.334   0.377  0.00  0.00    -0.000 C 
ATOM      9  C   UNL     1     -32.349  21.671  -0.577  0.00  0.00    +0.003 C 
ATOM     10  C   UNL     1     -32.765  22.993  -0.472  0.00  0.00    +0.000 C 
ENDROOT
BRANCH   2  12
ATOM     11  O   UNL     1     -37.960  20.644   0.671  0.00  0.00    -0.250 OA
ATOM     12  C   UNL     1     -37.123  19.890   1.145  0.00  0.00    +0.318 C 
BRANCH  12  13
ATOM     13  O   UNL     1     -36.944  18.605   0.754  0.00  0.00    -0.480 OA
ATOM     14  H   UNL     1     -36.239  18.101   1.108  0.00  0.00    +0.295 HD
ENDBRANCH  12  13
ENDBRANCH   2  12
BRANCH   5  16
ATOM     15  O   UNL     1     -36.830  24.701   1.943  0.00  0.00    -0.245 OA
ATOM     16  C   UNL     1     -35.952  24.041   2.469  0.00  0.00    +0.341 C 
BRANCH  16  17
ATOM     17  O   UNL     1     -35.153  24.390   3.507  0.00  0.00    -0.449 OA
BRANCH  17  18
ATOM     18  C   UNL     1     -35.758  24.302   4.801  0.00  0.00    +0.169 C 
ATOM     19  C   UNL     1     -35.923  25.708   5.364  0.00  0.00    +0.047 C 
BRANCH  18  20
ATOM     20  C   UNL     1     -34.879  23.441   5.709  0.00  0.00    +0.044 C 
ATOM     21  C   UNL     1     -35.548  22.126   6.084  0.00  0.00    +0.004 C 
ENDBRANCH  18  20
ENDBRANCH  17  18
ENDBRANCH  16  17
ENDBRANCH   5  16
BRANCH   7  22
ATOM     22  C   UNL     1     -32.490  19.319   0.022  0.00  0.00    +0.140 C 
ATOM     23  C   UNL     1     -31.443  18.858   0.748  0.00  0.00    +0.118 C 
BRANCH  22  24
ATOM     24  O   UNL     1     -33.184  18.544  -0.893  0.00  0.00    -0.505 OA
ATOM     25  H   UNL     1     -32.841  18.418  -1.756  0.00  0.00    +0.292 HD
ENDBRANCH  22  24
BRANCH  23  27
ATOM     26  O   UNL     1     -31.557  16.462   0.492  0.00  0.00    -0.245 OA
ATOM     27  C   UNL     1     -30.909  17.483   0.641  0.00  0.00    +0.341 C 
BRANCH  27  28
ATOM     28  O   UNL     1     -29.560  17.533   0.737  0.00  0.00    -0.477 OA
ATOM     29  H   UNL     1     -29.081  16.775   1.012  0.00  0.00    +0.295 HD
ENDBRANCH  27  28
ENDBRANCH  23  27
ENDBRANCH   7  22
TORSDOF 10
ENDMDL
MODEL 4
REMARK VINA RESULT:      -6.1      2.028      6.909
REMARK  Name = 54695503
REMARK  10 active torsions:
REMARK  status: ('A' for Active; 'I' for Inactive)
REMARK    1  A    between atoms: C_2  and  C_12
REMARK    2  A    between atoms: C_5  and  C_16
REMARK    3  A    between atoms: C_7  and  C_22
REMARK    4  A    between atoms: C_12  and  O_13
REMARK    5  A    between atoms: C_16  and  O_17
REMARK    6  A    between atoms: O_17  and  C_18
REMARK    7  A    between atoms: C_18  and  C_20
REMARK    8  A    between atoms: C_22  and  O_24
REMARK    9  A    between atoms: C_23  and  C_27
REMARK   10  A    between atoms: C_27  and  O_28
REMARK                            x       y       z     vdW  Elec       q    Type
REMARK                         _______ _______ _______ _____ _____    ______ ____
ROOT
ATOM      1  C   UNL     1     -35.471  23.588   1.525  0.00  0.00    +0.042 C 
ATOM      2  C   UNL     1     -34.549  24.754   1.152  0.00  0.00    +0.125 C 
ATOM      3  C   UNL     1     -35.263  23.087   2.936  0.00  0.00    -0.018 C 
ATOM      4  C   UNL     1     -34.761  23.947   3.936  0.00  0.00    +0.002 C 
ATOM      5  C   UNL     1     -34.395  25.332   3.581  0.00  0.00    +0.072 C 
ATOM      6  C   UNL     1     -34.281  25.692   2.291  0.00  0.00    -0.009 C 
ATOM      7  C   UNL     1     -35.633  21.773   3.258  0.00  0.00    +0.030 C 
ATOM      8  C   UNL     1     -34.616  23.446   5.239  0.00  0.00    -0.000 C 
ATOM      9  C   UNL     1     -35.485  21.296   4.558  0.00  0.00    +0.003 C 
ATOM     10  C   UNL     1     -34.975  22.131   5.545  0.00  0.00    +0.000 C 
ENDROOT
BRANCH   2  12
ATOM     11  O   UNL     1     -32.156  24.865   0.813  0.00  0.00    -0.250 OA
ATOM     12  C   UNL     1     -33.210  24.259   0.687  0.00  0.00    +0.318 C 
BRANCH  12  13
ATOM     13  O   UNL     1     -33.328  23.042   0.103  0.00  0.00    -0.480 OA
ATOM     14  H   UNL     1     -34.151  22.769  -0.252  0.00  0.00    +0.295 HD
ENDBRANCH  12  13
ENDBRANCH   2  12
BRANCH   5  16
ATOM     15  O   UNL     1     -34.979  26.921   5.240  0.00  0.00    -0.245 OA
ATOM     16  C   UNL     1     -34.119  26.397   4.555  0.00  0.00    +0.341 C 
BRANCH  16  17
ATOM     17  O   UNL     1     -32.789  26.662   4.538  0.00  0.00    -0.449 OA
BRANCH  17  18
ATOM     18  C   UNL     1     -32.437  28.033   4.750  0.00  0.00    +0.169 C 
ATOM     19  C   UNL     1     -31.495  28.477   3.638  0.00  0.00    +0.047 C 
BRANCH  18  20
ATOM     20  C   UNL     1     -31.778  28.174   6.124  0.00  0.00    +0.044 C 
ATOM     21  C   UNL     1     -31.754  29.618   6.606  0.00  0.00    +0.004 C 
ENDBRANCH  18  20
ENDBRANCH  17  18
ENDBRANCH  16  17
ENDBRANCH   5  16
BRANCH   7  22
ATOM     22  C   UNL     1     -36.196  20.850   2.277  0.00  0.00    +0.140 C 
ATOM     23  C   UNL     1     -35.415  20.105   1.458  0.00  0.00    +0.118 C 
BRANCH  22  24
ATOM     24  O   UNL     1     -37.580  20.790   2.274  0.00  0.00    -0.505 OA
ATOM     25  H   UNL     1     -38.081  21.513   2.598  0.00  0.00    +0.292 HD
ENDBRANCH  22  24
BRANCH  23  27
ATOM     26  O   UNL     1     -35.563  19.020  -0.692  0.00  0.00    -0.245 OA
ATOM     27  C   UNL     1     -35.945  19.153   0.457  0.00  0.00    +0.341 C 
BRANCH  27  28
ATOM     28  O   UNL     1     -36.941  18.435   1.026  0.00  0.00    -0.477 OA
ATOM     29  H   UNL     1     -37.814  18.498   0.692  0.00  0.00    +0.295 HD
ENDBRANCH  27  28
ENDBRANCH  23  27
ENDBRANCH   7  22
TORSDOF 10
ENDMDL
MODEL 5
REMARK VINA RESULT:      -6.1      1.997      7.308
REMARK  Name = 54695503
REMARK  10 active torsions:
REMARK  status: ('A' for Active; 'I' for Inactive)
REMARK    1  A    between atoms: C_2  and  C_12
REMARK    2  A    between atoms: C_5  and  C_16
REMARK    3  A    between atoms: C_7  and  C_22
REMARK    4  A    between atoms: C_12  and  O_13
REMARK    5  A    between atoms: C_16  and  O_17
REMARK    6  A    between atoms: O_17  and  C_18
REMARK    7  A    between atoms: C_18  and  C_20
REMARK    8  A    between atoms: C_22  and  O_24
REMARK    9  A    between atoms: C_23  and  C_27
REMARK   10  A    between atoms: C_27  and  O_28
REMARK                            x       y       z     vdW  Elec       q    Type
REMARK                         _______ _______ _______ _____ _____    ______ ____
ROOT
ATOM      1  C   UNL     1     -35.014  23.701   3.929  0.00  0.00    +0.042 C 
ATOM      2  C   UNL     1     -35.221  24.737   5.039  0.00  0.00    +0.125 C 
ATOM      3  C   UNL     1     -34.572  24.309   2.617  0.00  0.00    -0.018 C 
ATOM      4  C   UNL     1     -33.864  25.529   2.594  0.00  0.00    +0.002 C 
ATOM      5  C   UNL     1     -33.598  26.234   3.863  0.00  0.00    +0.072 C 
ATOM      6  C   UNL     1     -34.244  25.874   4.986  0.00  0.00    -0.009 C 
ATOM      7  C   UNL     1     -34.820  23.615   1.423  0.00  0.00    +0.030 C 
ATOM      8  C   UNL     1     -33.446  26.038   1.355  0.00  0.00    -0.000 C 
ATOM      9  C   UNL     1     -34.392  24.135   0.204  0.00  0.00    +0.003 C 
ATOM     10  C   UNL     1     -33.709  25.345   0.171  0.00  0.00    +0.000 C 
ENDROOT
BRANCH   2  12
ATOM     11  O   UNL     1     -37.562  24.829   4.440  0.00  0.00    -0.250 OA
ATOM     12  C   UNL     1     -36.588  25.350   4.962  0.00  0.00    +0.318 C 
BRANCH  12  13
ATOM     13  O   UNL     1     -36.598  26.571   5.551  0.00  0.00    -0.480 OA
ATOM     14  H   UNL     1     -36.903  27.318   5.076  0.00  0.00    +0.295 HD
ENDBRANCH  12  13
ENDBRANCH   2  12
BRANCH   5  16
ATOM     15  O   UNL     1     -31.449  27.234   3.922  0.00  0.00    -0.245 OA
ATOM     16  C   UNL     1     -32.658  27.354   4.014  0.00  0.00    +0.341 C 
BRANCH  16  17
ATOM     17  O   UNL     1     -33.369  28.482   4.261  0.00  0.00    -0.449 OA
BRANCH  17  18
ATOM     18  C   UNL     1     -33.391  29.435   3.193  0.00  0.00    +0.169 C 
ATOM     19  C   UNL     1     -32.863  30.766   3.711  0.00  0.00    +0.047 C 
BRANCH  18  20
ATOM     20  C   UNL     1     -34.823  29.572   2.673  0.00  0.00    +0.044 C 
ATOM     21  C   UNL     1     -35.435  30.924   3.013  0.00  0.00    +0.004 C 
ENDBRANCH  18  20
ENDBRANCH  17  18
ENDBRANCH  16  17
ENDBRANCH   5  16
BRANCH   7  22
ATOM     22  C   UNL     1     -35.510  22.330   1.387  0.00  0.00    +0.140 C 
ATOM     23  C   UNL     1     -34.846  21.152   1.472  0.00  0.00    +0.118 C 
BRANCH  22  24
ATOM     24  O   UNL     1     -36.889  22.423   1.282  0.00  0.00    -0.505 OA
ATOM     25  H   UNL     1     -37.328  22.056   0.540  0.00  0.00    +0.292 HD
ENDBRANCH  22  24
BRANCH  23  27
ATOM     26  O   UNL     1     -35.277  18.916   0.677  0.00  0.00    -0.245 OA
ATOM     27  C   UNL     1     -35.509  19.830   1.448  0.00  0.00    +0.341 C 
BRANCH  27  28
ATOM     28  O   UNL     1     -36.432  19.790   2.437  0.00  0.00    -0.477 OA
ATOM     29  H   UNL     1     -36.580  18.993   2.908  0.00  0.00    +0.295 HD
ENDBRANCH  27  28
ENDBRANCH  23  27
ENDBRANCH   7  22
TORSDOF 10
ENDMDL
MODEL 6
REMARK VINA RESULT:      -5.9      2.916      7.497
REMARK  Name = 54695503
REMARK  10 active torsions:
REMARK  status: ('A' for Active; 'I' for Inactive)
REMARK    1  A    between atoms: C_2  and  C_12
REMARK    2  A    between atoms: C_5  and  C_16
REMARK    3  A    between atoms: C_7  and  C_22
REMARK    4  A    between atoms: C_12  and  O_13
REMARK    5  A    between atoms: C_16  and  O_17
REMARK    6  A    between atoms: O_17  and  C_18
REMARK    7  A    between atoms: C_18  and  C_20
REMARK    8  A    between atoms: C_22  and  O_24
REMARK    9  A    between atoms: C_23  and  C_27
REMARK   10  A    between atoms: C_27  and  O_28
REMARK                            x       y       z     vdW  Elec       q    Type
REMARK                         _______ _______ _______ _____ _____    ______ ____
ROOT
ATOM      1  C   UNL     1     -36.611  22.452   2.348  0.00  0.00    +0.042 C 
ATOM      2  C   UNL     1     -35.414  22.646   3.285  0.00  0.00    +0.125 C 
ATOM      3  C   UNL     1     -37.686  23.500   2.524  0.00  0.00    -0.018 C 
ATOM      4  C   UNL     1     -37.363  24.785   3.011  0.00  0.00    +0.002 C 
ATOM      5  C   UNL     1     -35.968  25.083   3.392  0.00  0.00    +0.072 C 
ATOM      6  C   UNL     1     -35.078  24.087   3.535  0.00  0.00    -0.009 C 
ATOM      7  C   UNL     1     -39.002  23.202   2.140  0.00  0.00    +0.030 C 
ATOM      8  C   UNL     1     -38.389  25.735   3.126  0.00  0.00    -0.000 C 
ATOM      9  C   UNL     1     -40.005  24.161   2.258  0.00  0.00    +0.003 C 
ATOM     10  C   UNL     1     -39.699  25.423   2.753  0.00  0.00    +0.000 C 
ENDROOT
BRANCH   2  12
ATOM     11  O   UNL     1     -36.108  22.629   5.602  0.00  0.00    -0.250 OA
ATOM     12  C   UNL     1     -35.671  22.032   4.629  0.00  0.00    +0.318 C 
BRANCH  12  13
ATOM     13  O   UNL     1     -35.351  20.715   4.622  0.00  0.00    -0.480 OA
ATOM     14  H   UNL     1     -34.562  20.427   4.207  0.00  0.00    +0.295 HD
ENDBRANCH  12  13
ENDBRANCH   2  12
BRANCH   5  16
ATOM     15  O   UNL     1     -35.329  26.901   4.773  0.00  0.00    -0.245 OA
ATOM     16  C   UNL     1     -35.447  26.431   3.655  0.00  0.00    +0.341 C 
BRANCH  16  17
ATOM     17  O   UNL     1     -35.139  27.012   2.469  0.00  0.00    -0.449 OA
BRANCH  17  18
ATOM     18  C   UNL     1     -35.798  28.256   2.209  0.00  0.00    +0.169 C 
ATOM     19  C   UNL     1     -36.486  28.174   0.853  0.00  0.00    +0.047 C 
BRANCH  18  20
ATOM     20  C   UNL     1     -34.767  29.386   2.240  0.00  0.00    +0.044 C 
ATOM     21  C   UNL     1     -35.320  30.655   2.875  0.00  0.00    +0.004 C 
ENDBRANCH  18  20
ENDBRANCH  17  18
ENDBRANCH  16  17
ENDBRANCH   5  16
BRANCH   7  22
ATOM     22  C   UNL     1     -39.389  21.906   1.592  0.00  0.00    +0.140 C 
ATOM     23  C   UNL     1     -39.242  21.606   0.279  0.00  0.00    +0.118 C 
BRANCH  22  24
ATOM     24  O   UNL     1     -39.892  21.015   2.527  0.00  0.00    -0.505 OA
ATOM     25  H   UNL     1     -39.596  21.051   3.415  0.00  0.00    +0.292 HD
ENDBRANCH  22  24
BRANCH  23  27
ATOM     26  O   UNL     1     -40.598  20.068  -0.993  0.00  0.00    -0.245 OA
ATOM     27  C   UNL     1     -39.613  20.303  -0.314  0.00  0.00    +0.341 C 
BRANCH  27  28
ATOM     28  O   UNL     1     -38.671  19.390   0.019  0.00  0.00    -0.477 OA
ATOM     29  H   UNL     1     -38.878  18.476   0.005  0.00  0.00    +0.295 HD
ENDBRANCH  27  28
ENDBRANCH  23  27
ENDBRANCH   7  22
TORSDOF 10
ENDMDL
MODEL 7
REMARK VINA RESULT:      -5.9      1.433      1.823
REMARK  Name = 54695503
REMARK  10 active torsions:
REMARK  status: ('A' for Active; 'I' for Inactive)
REMARK    1  A    between atoms: C_2  and  C_12
REMARK    2  A    between atoms: C_5  and  C_16
REMARK    3  A    between atoms: C_7  and  C_22
REMARK    4  A    between atoms: C_12  and  O_13
REMARK    5  A    between atoms: C_16  and  O_17
REMARK    6  A    between atoms: O_17  and  C_18
REMARK    7  A    between atoms: C_18  and  C_20
REMARK    8  A    between atoms: C_22  and  O_24
REMARK    9  A    between atoms: C_23  and  C_27
REMARK   10  A    between atoms: C_27  and  O_28
REMARK                            x       y       z     vdW  Elec       q    Type
REMARK                         _______ _______ _______ _____ _____    ______ ____
ROOT
ATOM      1  C   UNL     1     -36.196  25.244   2.773  0.00  0.00    +0.042 C 
ATOM      2  C   UNL     1     -37.384  25.033   1.829  0.00  0.00    +0.125 C 
ATOM      3  C   UNL     1     -35.900  24.041   3.641  0.00  0.00    -0.018 C 
ATOM      4  C   UNL     1     -36.247  22.743   3.210  0.00  0.00    +0.002 C 
ATOM      5  C   UNL     1     -36.947  22.572   1.922  0.00  0.00    +0.072 C 
ATOM      6  C   UNL     1     -37.486  23.634   1.299  0.00  0.00    -0.009 C 
ATOM      7  C   UNL     1     -35.219  24.222   4.853  0.00  0.00    +0.030 C 
ATOM      8  C   UNL     1     -35.923  21.654   4.034  0.00  0.00    -0.000 C 
ATOM      9  C   UNL     1     -34.902  23.129   5.655  0.00  0.00    +0.003 C 
ATOM     10  C   UNL     1     -35.256  21.848   5.247  0.00  0.00    +0.000 C 
ENDROOT
BRANCH   2  12
ATOM     11  O   UNL     1     -39.717  24.687   2.363  0.00  0.00    -0.250 OA
ATOM     12  C   UNL     1     -38.684  25.320   2.520  0.00  0.00    +0.318 C 
BRANCH  12  13
ATOM     13  O   UNL     1     -38.559  26.385   3.349  0.00  0.00    -0.480 OA
ATOM     14  H   UNL     1     -37.908  26.382   4.022  0.00  0.00    +0.295 HD
ENDBRANCH  12  13
ENDBRANCH   2  12
BRANCH   5  16
ATOM     15  O   UNL     1     -38.183  20.679   1.210  0.00  0.00    -0.245 OA
ATOM     16  C   UNL     1     -37.127  21.286   1.235  0.00  0.00    +0.341 C 
BRANCH  16  17
ATOM     17  O   UNL     1     -35.947  20.932   0.667  0.00  0.00    -0.449 OA
BRANCH  17  18
ATOM     18  C   UNL     1     -35.522  19.591   0.929  0.00  0.00    +0.169 C 
ATOM     19  C   UNL     1     -34.133  19.628   1.553  0.00  0.00    +0.047 C 
BRANCH  18  20
ATOM     20  C   UNL     1     -35.520  18.801  -0.381  0.00  0.00    +0.044 C 
ATOM     21  C   UNL     1     -34.567  17.613  -0.337  0.00  0.00    +0.004 C 
ENDBRANCH  18  20
ENDBRANCH  17  18
ENDBRANCH  16  17
ENDBRANCH   5  16
BRANCH   7  22
ATOM     22  C   UNL     1     -34.797  25.535   5.332  0.00  0.00    +0.140 C 
ATOM     23  C   UNL     1     -33.548  26.014   5.116  0.00  0.00    +0.118 C 
BRANCH  22  24
ATOM     24  O   UNL     1     -35.783  26.246   5.998  0.00  0.00    -0.505 OA
ATOM     25  H   UNL     1     -36.213  25.869   6.740  0.00  0.00    +0.292 HD
ENDBRANCH  22  24
BRANCH  23  27
ATOM     26  O   UNL     1     -32.854  28.312   4.877  0.00  0.00    -0.245 OA
ATOM     27  C   UNL     1     -33.085  27.341   5.576  0.00  0.00    +0.341 C 
BRANCH  27  28
ATOM     28  O   UNL     1     -32.953  27.312   6.923  0.00  0.00    -0.477 OA
ATOM     29  H   UNL     1     -33.468  27.886   7.457  0.00  0.00    +0.295 HD
ENDBRANCH  27  28
ENDBRANCH  23  27
ENDBRANCH   7  22
TORSDOF 10
ENDMDL
MODEL 8
REMARK VINA RESULT:      -5.9      2.251      6.760
REMARK  Name = 54695503
REMARK  10 active torsions:
REMARK  status: ('A' for Active; 'I' for Inactive)
REMARK    1  A    between atoms: C_2  and  C_12
REMARK    2  A    between atoms: C_5  and  C_16
REMARK    3  A    between atoms: C_7  and  C_22
REMARK    4  A    between atoms: C_12  and  O_13
REMARK    5  A    between atoms: C_16  and  O_17
REMARK    6  A    between atoms: O_17  and  C_18
REMARK    7  A    between atoms: C_18  and  C_20
REMARK    8  A    between atoms: C_22  and  O_24
REMARK    9  A    between atoms: C_23  and  C_27
REMARK   10  A    between atoms: C_27  and  O_28
REMARK                            x       y       z     vdW  Elec       q    Type
REMARK                         _______ _______ _______ _____ _____    ______ ____
ROOT
ATOM      1  C   UNL     1     -36.608  20.586   1.685  0.00  0.00    +0.042 C 
ATOM      2  C   UNL     1     -38.041  21.105   1.842  0.00  0.00    +0.125 C 
ATOM      3  C   UNL     1     -35.619  21.664   1.301  0.00  0.00    -0.018 C 
ATOM      4  C   UNL     1     -35.855  23.011   1.649  0.00  0.00    +0.002 C 
ATOM      5  C   UNL     1     -37.103  23.368   2.352  0.00  0.00    +0.072 C 
ATOM      6  C   UNL     1     -38.116  22.487   2.420  0.00  0.00    -0.009 C 
ATOM      7  C   UNL     1     -34.431  21.302   0.649  0.00  0.00    +0.030 C 
ATOM      8  C   UNL     1     -34.893  23.971   1.301  0.00  0.00    -0.000 C 
ATOM      9  C   UNL     1     -33.486  22.270   0.316  0.00  0.00    +0.003 C 
ATOM     10  C   UNL     1     -33.719  23.602   0.639  0.00  0.00    +0.000 C 
ENDROOT
BRANCH   2  12
ATOM     11  O   UNL     1     -38.886  22.168  -0.160  0.00  0.00    -0.250 OA
ATOM     12  C   UNL     1     -38.746  21.161   0.519  0.00  0.00    +0.318 C 
BRANCH  12  13
ATOM     13  O   UNL     1     -39.212  19.936   0.174  0.00  0.00    -0.480 OA
ATOM     14  H   UNL     1     -39.132  19.635  -0.709  0.00  0.00    +0.295 HD
ENDBRANCH  12  13
ENDBRANCH   2  12
BRANCH   5  16
ATOM     15  O   UNL     1     -37.645  25.675   2.390  0.00  0.00    -0.245 OA
ATOM     16  C   UNL     1     -37.354  24.662   3.000  0.00  0.00    +0.341 C 
BRANCH  16  17
ATOM     17  O   UNL     1     -37.205  24.508   4.340  0.00  0.00    -0.449 OA
BRANCH  17  18
ATOM     18  C   UNL     1     -35.855  24.555   4.813  0.00  0.00    +0.169 C 
ATOM     19  C   UNL     1     -35.594  23.328   5.678  0.00  0.00    +0.047 C 
BRANCH  18  20
ATOM     20  C   UNL     1     -35.646  25.846   5.606  0.00  0.00    +0.044 C 
ATOM     21  C   UNL     1     -34.176  26.110   5.903  0.00  0.00    +0.004 C 
ENDBRANCH  18  20
ENDBRANCH  17  18
ENDBRANCH  16  17
ENDBRANCH   5  16
BRANCH   7  22
ATOM     22  C   UNL     1     -34.112  19.922   0.301  0.00  0.00    +0.140 C 
ATOM     23  C   UNL     1     -33.471  19.091   1.158  0.00  0.00    +0.118 C 
BRANCH  22  24
ATOM     24  O   UNL     1     -34.538  19.535  -0.960  0.00  0.00    -0.505 OA
ATOM     25  H   UNL     1     -34.140  18.801  -1.385  0.00  0.00    +0.292 HD
ENDBRANCH  22  24
BRANCH  23  27
ATOM     26  O   UNL     1     -32.034  17.169   0.907  0.00  0.00    -0.245 OA
ATOM     27  C   UNL     1     -33.137  17.684   0.847  0.00  0.00    +0.341 C 
BRANCH  27  28
ATOM     28  O   UNL     1     -34.269  17.041   0.479  0.00  0.00    -0.477 OA
ATOM     29  H   UNL     1     -34.373  16.742  -0.403  0.00  0.00    +0.295 HD
ENDBRANCH  27  28
ENDBRANCH  23  27
ENDBRANCH   7  22
TORSDOF 10
ENDMDL
MODEL 9
REMARK VINA RESULT:      -5.8      2.232      7.234
REMARK  Name = 54695503
REMARK  10 active torsions:
REMARK  status: ('A' for Active; 'I' for Inactive)
REMARK    1  A    between atoms: C_2  and  C_12
REMARK    2  A    between atoms: C_5  and  C_16
REMARK    3  A    between atoms: C_7  and  C_22
REMARK    4  A    between atoms: C_12  and  O_13
REMARK    5  A    between atoms: C_16  and  O_17
REMARK    6  A    between atoms: O_17  and  C_18
REMARK    7  A    between atoms: C_18  and  C_20
REMARK    8  A    between atoms: C_22  and  O_24
REMARK    9  A    between atoms: C_23  and  C_27
REMARK   10  A    between atoms: C_27  and  O_28
REMARK                            x       y       z     vdW  Elec       q    Type
REMARK                         _______ _______ _______ _____ _____    ______ ____
ROOT
ATOM      1  C   UNL     1     -34.707  23.893   3.989  0.00  0.00    +0.042 C 
ATOM      2  C   UNL     1     -35.027  24.911   5.089  0.00  0.00    +0.125 C 
ATOM      3  C   UNL     1     -34.373  24.532   2.660  0.00  0.00    -0.018 C 
ATOM      4  C   UNL     1     -33.832  25.834   2.605  0.00  0.00    +0.002 C 
ATOM      5  C   UNL     1     -33.638  26.588   3.859  0.00  0.00    +0.072 C 
ATOM      6  C   UNL     1     -34.209  26.165   4.999  0.00  0.00    -0.009 C 
ATOM      7  C   UNL     1     -34.550  23.791   1.482  0.00  0.00    +0.030 C 
ATOM      8  C   UNL     1     -33.508  26.372   1.351  0.00  0.00    -0.000 C 
ATOM      9  C   UNL     1     -34.217  24.342   0.247  0.00  0.00    +0.003 C 
ATOM     10  C   UNL     1     -33.700  25.631   0.182  0.00  0.00    +0.000 C 
ENDROOT
BRANCH   2  12
ATOM     11  O   UNL     1     -37.372  24.681   4.545  0.00  0.00    -0.250 OA
ATOM     12  C   UNL     1     -36.464  25.338   5.031  0.00  0.00    +0.318 C 
BRANCH  12  13
ATOM     13  O   UNL     1     -36.622  26.561   5.595  0.00  0.00    -0.480 OA
ATOM     14  H   UNL     1     -36.800  26.635   6.512  0.00  0.00    +0.295 HD
ENDBRANCH  12  13
ENDBRANCH   2  12
BRANCH   5  16
ATOM     15  O   UNL     1     -33.329  28.939   3.858  0.00  0.00    -0.245 OA
ATOM     16  C   UNL     1     -32.851  27.824   3.974  0.00  0.00    +0.341 C 
BRANCH  16  17
ATOM     17  O   UNL     1     -31.560  27.491   4.222  0.00  0.00    -0.449 OA
BRANCH  17  18
ATOM     18  C   UNL     1     -30.745  28.550   4.735  0.00  0.00    +0.169 C 
ATOM     19  C   UNL     1     -29.342  28.414   4.157  0.00  0.00    +0.047 C 
BRANCH  18  20
ATOM     20  C   UNL     1     -30.724  28.472   6.262  0.00  0.00    +0.044 C 
ATOM     21  C   UNL     1     -31.543  29.583   6.908  0.00  0.00    +0.004 C 
ENDBRANCH  18  20
ENDBRANCH  17  18
ENDBRANCH  16  17
ENDBRANCH   5  16
BRANCH   7  22
ATOM     22  C   UNL     1     -35.066  22.426   1.478  0.00  0.00    +0.140 C 
ATOM     23  C   UNL     1     -36.358  22.144   1.769  0.00  0.00    +0.118 C 
BRANCH  22  24
ATOM     24  O   UNL     1     -34.132  21.461   1.134  0.00  0.00    -0.505 OA
ATOM     25  H   UNL     1     -34.245  20.959   0.352  0.00  0.00    +0.292 HD
ENDBRANCH  22  24
BRANCH  23  27
ATOM     26  O   UNL     1     -36.368  19.762   1.384  0.00  0.00    -0.245 OA
ATOM     27  C   UNL     1     -36.923  20.777   1.768  0.00  0.00    +0.341 C 
BRANCH  27  28
ATOM     28  O   UNL     1     -38.178  20.825   2.271  0.00  0.00    -0.477 OA
ATOM     29  H   UNL     1     -38.794  21.448   1.937  0.00  0.00    +0.295 HD
ENDBRANCH  27  28
ENDBRANCH  23  27
ENDBRANCH   7  22
TORSDOF 10
ENDMDL
