MODEL 1
REMARK VINA RESULT:      -5.4      0.000      0.000
REMARK  Name = 195091
REMARK  14 active torsions:
REMARK  status: ('A' for Active; 'I' for Inactive)
REMARK    1  A    between atoms: C_1  and  N_3
REMARK    2  A    between atoms: C_1  and  C_14
REMARK    3  A    between atoms: C_1  and  C_17
REMARK    4  A    between atoms: C_4  and  C_6
REMARK    5  A    between atoms: C_6  and  C_7
REMARK    6  A    between atoms: C_7  and  C_8
REMARK    7  A    between atoms: C_8  and  C_9
REMARK    8  A    between atoms: C_9  and  C_10
REMARK    9  A    between atoms: C_10  and  C_12
REMARK   10  A    between atoms: C_14  and  O_15
REMARK   11  A    between atoms: C_17  and  O_19
REMARK   12  A    between atoms: O_19  and  P_20
REMARK   13  A    between atoms: P_20  and  O_22
REMARK   14  A    between atoms: P_20  and  O_24
REMARK                            x       y       z     vdW  Elec       q    Type
REMARK                         _______ _______ _______ _____ _____    ______ ____
ROOT
ATOM      1  C   UNK A   1     -36.960  22.318   3.150  0.00  0.00    +0.199 C 
ENDROOT
BRANCH   1   3
ATOM      2  O   UNK A   0     -36.062  22.960   5.807  0.00  0.00    -0.275 OA
ATOM      3  N   UNK A   1     -35.835  23.150   3.505  0.00  0.00    -0.295 N 
ATOM      4  C   UNK A   0     -35.478  23.402   4.820  0.00  0.00    +0.223 C 
ATOM      5  H   UNK A   1     -35.299  23.553   2.783  0.00  0.00    +0.150 HD
BRANCH   4   6
ATOM      6  C   UNK A   0     -34.278  24.331   4.909  0.00  0.00    +0.085 C 
BRANCH   6   7
ATOM      7  C   UNK A   0     -34.509  25.552   5.799  0.00  0.00    +0.010 C 
BRANCH   7   8
ATOM      8  C   UNK A   0     -33.542  26.696   5.477  0.00  0.00    +0.001 C 
BRANCH   8   9
ATOM      9  C   UNK A   0     -32.766  27.198   6.699  0.00  0.00    +0.001 C 
BRANCH   9  10
ATOM     10  C   UNK A   0     -31.530  28.048   6.397  0.00  0.00    +0.012 C 
BRANCH  10  12
ATOM     11 BR   UNK A   0     -32.028  30.683   5.441  0.00  0.00    -0.081 Br
ATOM     12  C   UNK A   0     -31.642  29.472   6.918  0.00  0.00    +0.068 C 
ENDBRANCH  10  12
ENDBRANCH   9  10
ENDBRANCH   8   9
ENDBRANCH   7   8
ENDBRANCH   6   7
ENDBRANCH   4   6
ENDBRANCH   1   3
BRANCH   1  14
ATOM     13  O   UNK A   1     -35.903  21.406   1.151  0.00  0.00    -0.248 OA
ATOM     14  C   UNK A   1     -36.438  21.223   2.237  0.00  0.00    +0.334 C 
BRANCH  14  15
ATOM     15  O   UNK A   1     -36.672  19.984   2.744  0.00  0.00    -0.479 OA
ATOM     16  H   UNK A   1     -37.066  19.325   2.207  0.00  0.00    +0.295 HD
ENDBRANCH  14  15
ENDBRANCH   1  14
BRANCH   1  17
ATOM     17  C   UNK A   1     -38.096  23.099   2.482  0.00  0.00    +0.155 C 
ATOM     18  C   UNK A   1     -39.301  22.225   2.154  0.00  0.00    +0.035 C 
BRANCH  17  19
ATOM     19  O   UNK A   1     -38.520  24.175   3.318  0.00  0.00    -0.274 OA
BRANCH  19  20
ATOM     20  P   UNK A   1     -38.345  25.683   2.768  0.00  0.00    +0.473 P 
ATOM     21  O   UNK A   1     -38.290  25.814   1.274  0.00  0.00    -0.227 OA
BRANCH  20  22
ATOM     22  O   UNK A   1     -39.570  26.462   3.477  0.00  0.00    -0.303 OA
ATOM     23  H   UNK A   1     -39.246  26.927   4.264  0.00  0.00    +0.222 HD
ENDBRANCH  20  22
BRANCH  20  24
ATOM     24  O   UNK A   1     -37.046  26.233   3.558  0.00  0.00    -0.303 OA
ATOM     25  H   UNK A   1     -36.704  27.022   3.108  0.00  0.00    +0.222 HD
ENDBRANCH  20  24
ENDBRANCH  19  20
ENDBRANCH  17  19
ENDBRANCH   1  17
TORSDOF 14
ENDMDL
MODEL 2
REMARK VINA RESULT:      -5.3      4.872      7.174
REMARK  Name = 195091
REMARK  14 active torsions:
REMARK  status: ('A' for Active; 'I' for Inactive)
REMARK    1  A    between atoms: C_1  and  N_3
REMARK    2  A    between atoms: C_1  and  C_14
REMARK    3  A    between atoms: C_1  and  C_17
REMARK    4  A    between atoms: C_4  and  C_6
REMARK    5  A    between atoms: C_6  and  C_7
REMARK    6  A    between atoms: C_7  and  C_8
REMARK    7  A    between atoms: C_8  and  C_9
REMARK    8  A    between atoms: C_9  and  C_10
REMARK    9  A    between atoms: C_10  and  C_12
REMARK   10  A    between atoms: C_14  and  O_15
REMARK   11  A    between atoms: C_17  and  O_19
REMARK   12  A    between atoms: O_19  and  P_20
REMARK   13  A    between atoms: P_20  and  O_22
REMARK   14  A    between atoms: P_20  and  O_24
REMARK                            x       y       z     vdW  Elec       q    Type
REMARK                         _______ _______ _______ _____ _____    ______ ____
ROOT
ATOM      1  C   UNK A   1     -36.558  23.063   3.807  0.00  0.00    +0.199 C 
ENDROOT
BRANCH   1   3
ATOM      2  O   UNK A   0     -36.233  20.326   2.983  0.00  0.00    -0.275 OA
ATOM      3  N   UNK A   1     -35.648  22.565   2.804  0.00  0.00    -0.295 N 
ATOM      4  C   UNK A   0     -35.563  21.221   2.473  0.00  0.00    +0.223 C 
ATOM      5  H   UNK A   1     -35.064  23.205   2.335  0.00  0.00    +0.150 HD
BRANCH   4   6
ATOM      6  C   UNK A   0     -34.505  20.970   1.411  0.00  0.00    +0.085 C 
BRANCH   6   7
ATOM      7  C   UNK A   0     -34.018  19.521   1.358  0.00  0.00    +0.010 C 
BRANCH   7   8
ATOM      8  C   UNK A   0     -32.611  19.404   0.764  0.00  0.00    +0.001 C 
BRANCH   8   9
ATOM      9  C   UNK A   0     -31.899  18.100   1.141  0.00  0.00    +0.001 C 
BRANCH   9  10
ATOM     10  C   UNK A   0     -30.433  17.996   0.712  0.00  0.00    +0.012 C 
BRANCH  10  12
ATOM     11 BR   UNK A   0     -31.743  15.695  -0.335  0.00  0.00    -0.081 Br
ATOM     12  C   UNK A   0     -30.100  16.672   0.043  0.00  0.00    +0.068 C 
ENDBRANCH  10  12
ENDBRANCH   9  10
ENDBRANCH   8   9
ENDBRANCH   7   8
ENDBRANCH   6   7
ENDBRANCH   4   6
ENDBRANCH   1   3
BRANCH   1  14
ATOM     13  O   UNK A   1     -37.759  23.980   1.894  0.00  0.00    -0.248 OA
ATOM     14  C   UNK A   1     -37.554  23.965   3.100  0.00  0.00    +0.334 C 
BRANCH  14  15
ATOM     15  O   UNK A   1     -38.178  24.808   3.964  0.00  0.00    -0.479 OA
ATOM     16  H   UNK A   1     -39.038  24.605   4.277  0.00  0.00    +0.295 HD
ENDBRANCH  14  15
ENDBRANCH   1  14
BRANCH   1  17
ATOM     17  C   UNK A   1     -35.849  23.806   4.943  0.00  0.00    +0.155 C 
ATOM     18  C   UNK A   1     -35.118  22.868   5.896  0.00  0.00    +0.035 C 
BRANCH  17  19
ATOM     19  O   UNK A   1     -34.915  24.748   4.417  0.00  0.00    -0.274 OA
BRANCH  19  20
ATOM     20  P   UNK A   1     -34.945  26.256   4.995  0.00  0.00    +0.473 P 
ATOM     21  O   UNK A   1     -34.576  27.324   4.007  0.00  0.00    -0.227 OA
BRANCH  20  22
ATOM     22  O   UNK A   1     -36.438  26.372   5.601  0.00  0.00    -0.303 OA
ATOM     23  H   UNK A   1     -36.437  26.073   6.524  0.00  0.00    +0.222 HD
ENDBRANCH  20  22
BRANCH  20  24
ATOM     24  O   UNK A   1     -34.011  26.182   6.314  0.00  0.00    -0.303 OA
ATOM     25  H   UNK A   1     -34.341  25.486   6.904  0.00  0.00    +0.222 HD
ENDBRANCH  20  24
ENDBRANCH  19  20
ENDBRANCH  17  19
ENDBRANCH   1  17
TORSDOF 14
ENDMDL
MODEL 3
REMARK VINA RESULT:      -5.3      3.915      6.534
REMARK  Name = 195091
REMARK  14 active torsions:
REMARK  status: ('A' for Active; 'I' for Inactive)
REMARK    1  A    between atoms: C_1  and  N_3
REMARK    2  A    between atoms: C_1  and  C_14
REMARK    3  A    between atoms: C_1  and  C_17
REMARK    4  A    between atoms: C_4  and  C_6
REMARK    5  A    between atoms: C_6  and  C_7
REMARK    6  A    between atoms: C_7  and  C_8
REMARK    7  A    between atoms: C_8  and  C_9
REMARK    8  A    between atoms: C_9  and  C_10
REMARK    9  A    between atoms: C_10  and  C_12
REMARK   10  A    between atoms: C_14  and  O_15
REMARK   11  A    between atoms: C_17  and  O_19
REMARK   12  A    between atoms: O_19  and  P_20
REMARK   13  A    between atoms: P_20  and  O_22
REMARK   14  A    between atoms: P_20  and  O_24
REMARK                            x       y       z     vdW  Elec       q    Type
REMARK                         _______ _______ _______ _____ _____    ______ ____
ROOT
ATOM      1  C   UNK A   1     -36.609  23.051   3.728  0.00  0.00    +0.199 C 
ENDROOT
BRANCH   1   3
ATOM      2  O   UNK A   0     -36.015  20.340   2.971  0.00  0.00    -0.275 OA
ATOM      3  N   UNK A   1     -35.723  22.623   2.671  0.00  0.00    -0.295 N 
ATOM      4  C   UNK A   0     -35.500  21.286   2.379  0.00  0.00    +0.223 C 
ATOM      5  H   UNK A   1     -35.260  23.307   2.136  0.00  0.00    +0.150 HD
BRANCH   4   6
ATOM      6  C   UNK A   0     -34.504  21.117   1.244  0.00  0.00    +0.085 C 
BRANCH   6   7
ATOM      7  C   UNK A   0     -34.390  19.681   0.733  0.00  0.00    +0.010 C 
BRANCH   7   8
ATOM      8  C   UNK A   0     -33.315  18.883   1.480  0.00  0.00    +0.001 C 
BRANCH   8   9
ATOM      9  C   UNK A   0     -32.283  18.237   0.550  0.00  0.00    +0.001 C 
BRANCH   9  10
ATOM     10  C   UNK A   0     -31.014  19.054   0.295  0.00  0.00    +0.012 C 
BRANCH  10  12
ATOM     11 BR   UNK A   0     -31.014  21.549  -1.075  0.00  0.00    -0.081 Br
ATOM     12  C   UNK A   0     -30.931  19.603  -1.120  0.00  0.00    +0.068 C 
ENDBRANCH  10  12
ENDBRANCH   9  10
ENDBRANCH   8   9
ENDBRANCH   7   8
ENDBRANCH   6   7
ENDBRANCH   4   6
ENDBRANCH   1   3
BRANCH   1  14
ATOM     13  O   UNK A   1     -38.093  23.723   1.915  0.00  0.00    -0.248 OA
ATOM     14  C   UNK A   1     -37.734  23.837   3.079  0.00  0.00    +0.334 C 
BRANCH  14  15
ATOM     15  O   UNK A   1     -38.286  24.735   3.936  0.00  0.00    -0.479 OA
ATOM     16  H   UNK A   1     -37.864  25.558   4.088  0.00  0.00    +0.295 HD
ENDBRANCH  14  15
ENDBRANCH   1  14
BRANCH   1  17
ATOM     17  C   UNK A   1     -35.901  23.883   4.802  0.00  0.00    +0.155 C 
ATOM     18  C   UNK A   1     -34.944  23.057   5.653  0.00  0.00    +0.035 C 
BRANCH  17  19
ATOM     19  O   UNK A   1     -35.176  24.957   4.204  0.00  0.00    -0.274 OA
BRANCH  19  20
ATOM     20  P   UNK A   1     -35.156  26.381   4.966  0.00  0.00    +0.473 P 
ATOM     21  O   UNK A   1     -33.996  26.589   5.895  0.00  0.00    -0.227 OA
BRANCH  20  22
ATOM     22  O   UNK A   1     -35.252  27.435   3.745  0.00  0.00    -0.303 OA
ATOM     23  H   UNK A   1     -35.669  28.254   4.057  0.00  0.00    +0.222 HD
ENDBRANCH  20  22
BRANCH  20  24
ATOM     24  O   UNK A   1     -36.617  26.471   5.653  0.00  0.00    -0.303 OA
ATOM     25  H   UNK A   1     -36.847  27.402   5.801  0.00  0.00    +0.222 HD
ENDBRANCH  20  24
ENDBRANCH  19  20
ENDBRANCH  17  19
ENDBRANCH   1  17
TORSDOF 14
ENDMDL
MODEL 4
REMARK VINA RESULT:      -5.1      2.507      3.942
REMARK  Name = 195091
REMARK  14 active torsions:
REMARK  status: ('A' for Active; 'I' for Inactive)
REMARK    1  A    between atoms: C_1  and  N_3
REMARK    2  A    between atoms: C_1  and  C_14
REMARK    3  A    between atoms: C_1  and  C_17
REMARK    4  A    between atoms: C_4  and  C_6
REMARK    5  A    between atoms: C_6  and  C_7
REMARK    6  A    between atoms: C_7  and  C_8
REMARK    7  A    between atoms: C_8  and  C_9
REMARK    8  A    between atoms: C_9  and  C_10
REMARK    9  A    between atoms: C_10  and  C_12
REMARK   10  A    between atoms: C_14  and  O_15
REMARK   11  A    between atoms: C_17  and  O_19
REMARK   12  A    between atoms: O_19  and  P_20
REMARK   13  A    between atoms: P_20  and  O_22
REMARK   14  A    between atoms: P_20  and  O_24
REMARK                            x       y       z     vdW  Elec       q    Type
REMARK                         _______ _______ _______ _____ _____    ______ ____
ROOT
ATOM      1  C   UNK A   1     -35.935  22.962   4.776  0.00  0.00    +0.199 C 
ENDROOT
BRANCH   1   3
ATOM      2  O   UNK A   0     -35.881  25.666   5.757  0.00  0.00    -0.275 OA
ATOM      3  N   UNK A   1     -34.898  23.942   4.554  0.00  0.00    -0.295 N 
ATOM      4  C   UNK A   0     -34.961  25.227   5.071  0.00  0.00    +0.223 C 
ATOM      5  H   UNK A   1     -34.114  23.688   4.014  0.00  0.00    +0.150 HD
BRANCH   4   6
ATOM      6  C   UNK A   0     -33.756  26.058   4.660  0.00  0.00    +0.085 C 
BRANCH   6   7
ATOM      7  C   UNK A   0     -33.210  26.945   5.779  0.00  0.00    +0.010 C 
BRANCH   7   8
ATOM      8  C   UNK A   0     -32.234  28.003   5.256  0.00  0.00    +0.001 C 
BRANCH   8   9
ATOM      9  C   UNK A   0     -31.897  29.084   6.289  0.00  0.00    +0.001 C 
BRANCH   9  10
ATOM     10  C   UNK A   0     -31.765  30.507   5.743  0.00  0.00    +0.012 C 
BRANCH  10  12
ATOM     11 BR   UNK A   0     -30.935  32.420   3.804  0.00  0.00    -0.081 Br
ATOM     12  C   UNK A   0     -31.073  30.566   4.391  0.00  0.00    +0.068 C 
ENDBRANCH  10  12
ENDBRANCH   9  10
ENDBRANCH   8   9
ENDBRANCH   7   8
ENDBRANCH   6   7
ENDBRANCH   4   6
ENDBRANCH   1   3
BRANCH   1  14
ATOM     13  O   UNK A   1     -34.962  22.157   6.860  0.00  0.00    -0.248 OA
ATOM     14  C   UNK A   1     -35.374  21.925   5.732  0.00  0.00    +0.334 C 
BRANCH  14  15
ATOM     15  O   UNK A   1     -35.333  20.688   5.172  0.00  0.00    -0.479 OA
ATOM     16  H   UNK A   1     -35.721  20.541   4.331  0.00  0.00    +0.295 HD
ENDBRANCH  14  15
ENDBRANCH   1  14
BRANCH   1  17
ATOM     17  C   UNK A   1     -36.430  22.311   3.481  0.00  0.00    +0.155 C 
ATOM     18  C   UNK A   1     -37.243  23.265   2.614  0.00  0.00    +0.035 C 
BRANCH  17  19
ATOM     19  O   UNK A   1     -35.330  21.818   2.717  0.00  0.00    -0.274 OA
BRANCH  19  20
ATOM     20  P   UNK A   1     -35.537  20.460   1.869  0.00  0.00    +0.473 P 
ATOM     21  O   UNK A   1     -35.615  20.643   0.382  0.00  0.00    -0.227 OA
BRANCH  20  22
ATOM     22  O   UNK A   1     -34.316  19.534   2.381  0.00  0.00    -0.303 OA
ATOM     23  H   UNK A   1     -34.465  18.617   2.102  0.00  0.00    +0.222 HD
ENDBRANCH  20  22
BRANCH  20  24
ATOM     24  O   UNK A   1     -36.835  19.775   2.550  0.00  0.00    -0.303 OA
ATOM     25  H   UNK A   1     -36.769  19.846   3.516  0.00  0.00    +0.222 HD
ENDBRANCH  20  24
ENDBRANCH  19  20
ENDBRANCH  17  19
ENDBRANCH   1  17
TORSDOF 14
ENDMDL
MODEL 5
REMARK VINA RESULT:      -5.1      2.345      2.847
REMARK  Name = 195091
REMARK  14 active torsions:
REMARK  status: ('A' for Active; 'I' for Inactive)
REMARK    1  A    between atoms: C_1  and  N_3
REMARK    2  A    between atoms: C_1  and  C_14
REMARK    3  A    between atoms: C_1  and  C_17
REMARK    4  A    between atoms: C_4  and  C_6
REMARK    5  A    between atoms: C_6  and  C_7
REMARK    6  A    between atoms: C_7  and  C_8
REMARK    7  A    between atoms: C_8  and  C_9
REMARK    8  A    between atoms: C_9  and  C_10
REMARK    9  A    between atoms: C_10  and  C_12
REMARK   10  A    between atoms: C_14  and  O_15
REMARK   11  A    between atoms: C_17  and  O_19
REMARK   12  A    between atoms: O_19  and  P_20
REMARK   13  A    between atoms: P_20  and  O_22
REMARK   14  A    between atoms: P_20  and  O_24
REMARK                            x       y       z     vdW  Elec       q    Type
REMARK                         _______ _______ _______ _____ _____    ______ ____
ROOT
ATOM      1  C   UNK A   1     -36.708  22.187   3.199  0.00  0.00    +0.199 C 
ENDROOT
BRANCH   1   3
ATOM      2  O   UNK A   0     -35.938  23.083   5.823  0.00  0.00    -0.275 OA
ATOM      3  N   UNK A   1     -35.705  23.176   3.515  0.00  0.00    -0.295 N 
ATOM      4  C   UNK A   0     -35.402  23.544   4.817  0.00  0.00    +0.223 C 
ATOM      5  H   UNK A   1     -35.217  23.606   2.776  0.00  0.00    +0.150 HD
BRANCH   4   6
ATOM      6  C   UNK A   0     -34.334  24.624   4.861  0.00  0.00    +0.085 C 
BRANCH   6   7
ATOM      7  C   UNK A   0     -34.732  25.850   5.683  0.00  0.00    +0.010 C 
BRANCH   7   8
ATOM      8  C   UNK A   0     -33.539  26.466   6.421  0.00  0.00    +0.001 C 
BRANCH   8   9
ATOM      9  C   UNK A   0     -32.705  27.408   5.547  0.00  0.00    +0.001 C 
BRANCH   9  10
ATOM     10  C   UNK A   0     -31.990  28.542   6.286  0.00  0.00    +0.012 C 
BRANCH  10  12
ATOM     11 BR   UNK A   0     -29.291  29.337   6.717  0.00  0.00    -0.081 Br
ATOM     12  C   UNK A   0     -30.807  29.105   5.515  0.00  0.00    +0.068 C 
ENDBRANCH  10  12
ENDBRANCH   9  10
ENDBRANCH   8   9
ENDBRANCH   7   8
ENDBRANCH   6   7
ENDBRANCH   4   6
ENDBRANCH   1   3
BRANCH   1  14
ATOM     13  O   UNK A   1     -34.929  21.064   1.968  0.00  0.00    -0.248 OA
ATOM     14  C   UNK A   1     -35.990  21.005   2.574  0.00  0.00    +0.334 C 
BRANCH  14  15
ATOM     15  O   UNK A   1     -36.690  19.849   2.722  0.00  0.00    -0.479 OA
ATOM     16  H   UNK A   1     -37.363  19.789   3.372  0.00  0.00    +0.295 HD
ENDBRANCH  14  15
ENDBRANCH   1  14
BRANCH   1  17
ATOM     17  C   UNK A   1     -37.805  22.720   2.273  0.00  0.00    +0.155 C 
ATOM     18  C   UNK A   1     -37.513  24.126   1.761  0.00  0.00    +0.035 C 
BRANCH  17  19
ATOM     19  O   UNK A   1     -37.983  21.851   1.156  0.00  0.00    -0.274 OA
BRANCH  19  20
ATOM     20  P   UNK A   1     -39.484  21.393   0.777  0.00  0.00    +0.473 P 
ATOM     21  O   UNK A   1     -40.246  22.358  -0.084  0.00  0.00    -0.227 OA
BRANCH  20  22
ATOM     22  O   UNK A   1     -39.254  19.932   0.127  0.00  0.00    -0.303 OA
ATOM     23  H   UNK A   1     -39.060  20.025  -0.819  0.00  0.00    +0.222 HD
ENDBRANCH  20  22
BRANCH  20  24
ATOM     24  O   UNK A   1     -40.159  21.062   2.209  0.00  0.00    -0.303 OA
ATOM     25  H   UNK A   1     -39.619  20.406   2.677  0.00  0.00    +0.222 HD
ENDBRANCH  20  24
ENDBRANCH  19  20
ENDBRANCH  17  19
ENDBRANCH   1  17
TORSDOF 14
ENDMDL
MODEL 6
REMARK VINA RESULT:      -5.1      3.797      6.506
REMARK  Name = 195091
REMARK  14 active torsions:
REMARK  status: ('A' for Active; 'I' for Inactive)
REMARK    1  A    between atoms: C_1  and  N_3
REMARK    2  A    between atoms: C_1  and  C_14
REMARK    3  A    between atoms: C_1  and  C_17
REMARK    4  A    between atoms: C_4  and  C_6
REMARK    5  A    between atoms: C_6  and  C_7
REMARK    6  A    between atoms: C_7  and  C_8
REMARK    7  A    between atoms: C_8  and  C_9
REMARK    8  A    between atoms: C_9  and  C_10
REMARK    9  A    between atoms: C_10  and  C_12
REMARK   10  A    between atoms: C_14  and  O_15
REMARK   11  A    between atoms: C_17  and  O_19
REMARK   12  A    between atoms: O_19  and  P_20
REMARK   13  A    between atoms: P_20  and  O_22
REMARK   14  A    between atoms: P_20  and  O_24
REMARK                            x       y       z     vdW  Elec       q    Type
REMARK                         _______ _______ _______ _____ _____    ______ ____
ROOT
ATOM      1  C   UNK A   1     -36.695  24.850   4.534  0.00  0.00    +0.199 C 
ENDROOT
BRANCH   1   3
ATOM      2  O   UNK A   0     -35.933  22.422   5.877  0.00  0.00    -0.275 OA
ATOM      3  N   UNK A   1     -36.204  23.639   3.920  0.00  0.00    -0.295 N 
ATOM      4  C   UNK A   0     -35.861  22.514   4.654  0.00  0.00    +0.223 C 
ATOM      5  H   UNK A   1     -36.110  23.611   2.939  0.00  0.00    +0.150 HD
BRANCH   4   6
ATOM      6  C   UNK A   0     -35.347  21.397   3.762  0.00  0.00    +0.085 C 
BRANCH   6   7
ATOM      7  C   UNK A   0     -35.733  21.556   2.291  0.00  0.00    +0.010 C 
BRANCH   7   8
ATOM      8  C   UNK A   0     -34.686  20.953   1.349  0.00  0.00    +0.001 C 
BRANCH   8   9
ATOM      9  C   UNK A   0     -34.119  19.618   1.845  0.00  0.00    +0.001 C 
BRANCH   9  10
ATOM     10  C   UNK A   0     -33.827  18.577   0.761  0.00  0.00    +0.012 C 
BRANCH  10  12
ATOM     11 BR   UNK A   0     -31.098  19.105   0.148  0.00  0.00    -0.081 Br
ATOM     12  C   UNK A   0     -32.458  17.933   0.906  0.00  0.00    +0.068 C 
ENDBRANCH  10  12
ENDBRANCH   9  10
ENDBRANCH   8   9
ENDBRANCH   7   8
ENDBRANCH   6   7
ENDBRANCH   4   6
ENDBRANCH   1   3
BRANCH   1  14
ATOM     13  O   UNK A   1     -38.890  24.485   3.538  0.00  0.00    -0.248 OA
ATOM     14  C   UNK A   1     -37.964  25.242   3.800  0.00  0.00    +0.334 C 
BRANCH  14  15
ATOM     15  O   UNK A   1     -37.946  26.544   3.413  0.00  0.00    -0.479 OA
ATOM     16  H   UNK A   1     -38.339  26.797   2.601  0.00  0.00    +0.295 HD
ENDBRANCH  14  15
ENDBRANCH   1  14
BRANCH   1  17
ATOM     17  C   UNK A   1     -35.671  25.989   4.516  0.00  0.00    +0.155 C 
ATOM     18  C   UNK A   1     -34.709  25.936   5.697  0.00  0.00    +0.035 C 
BRANCH  17  19
ATOM     19  O   UNK A   1     -34.917  25.962   3.305  0.00  0.00    -0.274 OA
BRANCH  19  20
ATOM     20  P   UNK A   1     -34.732  27.344   2.491  0.00  0.00    +0.473 P 
ATOM     21  O   UNK A   1     -33.322  27.668   2.096  0.00  0.00    -0.227 OA
BRANCH  20  22
ATOM     22  O   UNK A   1     -35.764  27.169   1.259  0.00  0.00    -0.303 OA
ATOM     23  H   UNK A   1     -36.120  26.266   1.261  0.00  0.00    +0.222 HD
ENDBRANCH  20  22
BRANCH  20  24
ATOM     24  O   UNK A   1     -35.457  28.444   3.429  0.00  0.00    -0.303 OA
ATOM     25  H   UNK A   1     -35.323  28.212   4.362  0.00  0.00    +0.222 HD
ENDBRANCH  20  24
ENDBRANCH  19  20
ENDBRANCH  17  19
ENDBRANCH   1  17
TORSDOF 14
ENDMDL
MODEL 7
REMARK VINA RESULT:      -5.0      3.713      5.903
REMARK  Name = 195091
REMARK  14 active torsions:
REMARK  status: ('A' for Active; 'I' for Inactive)
REMARK    1  A    between atoms: C_1  and  N_3
REMARK    2  A    between atoms: C_1  and  C_14
REMARK    3  A    between atoms: C_1  and  C_17
REMARK    4  A    between atoms: C_4  and  C_6
REMARK    5  A    between atoms: C_6  and  C_7
REMARK    6  A    between atoms: C_7  and  C_8
REMARK    7  A    between atoms: C_8  and  C_9
REMARK    8  A    between atoms: C_9  and  C_10
REMARK    9  A    between atoms: C_10  and  C_12
REMARK   10  A    between atoms: C_14  and  O_15
REMARK   11  A    between atoms: C_17  and  O_19
REMARK   12  A    between atoms: O_19  and  P_20
REMARK   13  A    between atoms: P_20  and  O_22
REMARK   14  A    between atoms: P_20  and  O_24
REMARK                            x       y       z     vdW  Elec       q    Type
REMARK                         _______ _______ _______ _____ _____    ______ ____
ROOT
ATOM      1  C   UNK A   1     -35.721  22.558   3.659  0.00  0.00    +0.199 C 
ENDROOT
BRANCH   1   3
ATOM      2  O   UNK A   0     -37.182  21.741   1.319  0.00  0.00    -0.275 OA
ATOM      3  N   UNK A   1     -37.144  22.669   3.446  0.00  0.00    -0.295 N 
ATOM      4  C   UNK A   0     -37.761  22.245   2.279  0.00  0.00    +0.223 C 
ATOM      5  H   UNK A   1     -37.700  23.061   4.159  0.00  0.00    +0.150 HD
BRANCH   4   6
ATOM      6  C   UNK A   0     -39.257  22.507   2.307  0.00  0.00    +0.085 C 
BRANCH   6   7
ATOM      7  C   UNK A   0     -39.856  22.801   0.931  0.00  0.00    +0.010 C 
BRANCH   7   8
ATOM      8  C   UNK A   0     -40.874  23.945   0.975  0.00  0.00    +0.001 C 
BRANCH   8   9
ATOM      9  C   UNK A   0     -40.577  24.982   2.064  0.00  0.00    +0.001 C 
BRANCH   9  10
ATOM     10  C   UNK A   0     -39.876  26.259   1.592  0.00  0.00    +0.012 C 
BRANCH  10  12
ATOM     11 BR   UNK A   0     -37.382  25.641   0.365  0.00  0.00    -0.081 Br
ATOM     12  C   UNK A   0     -38.390  26.276   1.908  0.00  0.00    +0.068 C 
ENDBRANCH  10  12
ENDBRANCH   9  10
ENDBRANCH   8   9
ENDBRANCH   7   8
ENDBRANCH   6   7
ENDBRANCH   4   6
ENDBRANCH   1   3
BRANCH   1  14
ATOM     13  O   UNK A   1     -35.029  20.924   5.331  0.00  0.00    -0.248 OA
ATOM     14  C   UNK A   1     -35.519  22.013   5.061  0.00  0.00    +0.334 C 
BRANCH  14  15
ATOM     15  O   UNK A   1     -35.993  22.862   6.010  0.00  0.00    -0.479 OA
ATOM     16  H   UNK A   1     -36.429  22.523   6.767  0.00  0.00    +0.295 HD
ENDBRANCH  14  15
ENDBRANCH   1  14
BRANCH   1  17
ATOM     17  C   UNK A   1     -34.981  23.886   3.471  0.00  0.00    +0.155 C 
ATOM     18  C   UNK A   1     -34.439  24.064   2.057  0.00  0.00    +0.035 C 
BRANCH  17  19
ATOM     19  O   UNK A   1     -35.841  24.984   3.776  0.00  0.00    -0.274 OA
BRANCH  19  20
ATOM     20  P   UNK A   1     -35.350  26.051   4.884  0.00  0.00    +0.473 P 
ATOM     21  O   UNK A   1     -34.362  25.525   5.883  0.00  0.00    -0.227 OA
BRANCH  20  22
ATOM     22  O   UNK A   1     -34.817  27.279   3.978  0.00  0.00    -0.303 OA
ATOM     23  H   UNK A   1     -35.560  27.860   3.751  0.00  0.00    +0.222 HD
ENDBRANCH  20  22
BRANCH  20  24
ATOM     24  O   UNK A   1     -36.729  26.620   5.509  0.00  0.00    -0.303 OA
ATOM     25  H   UNK A   1     -37.219  25.894   5.925  0.00  0.00    +0.222 HD
ENDBRANCH  20  24
ENDBRANCH  19  20
ENDBRANCH  17  19
ENDBRANCH   1  17
TORSDOF 14
ENDMDL
MODEL 8
REMARK VINA RESULT:      -5.0      5.244      7.681
REMARK  Name = 195091
REMARK  14 active torsions:
REMARK  status: ('A' for Active; 'I' for Inactive)
REMARK    1  A    between atoms: C_1  and  N_3
REMARK    2  A    between atoms: C_1  and  C_14
REMARK    3  A    between atoms: C_1  and  C_17
REMARK    4  A    between atoms: C_4  and  C_6
REMARK    5  A    between atoms: C_6  and  C_7
REMARK    6  A    between atoms: C_7  and  C_8
REMARK    7  A    between atoms: C_8  and  C_9
REMARK    8  A    between atoms: C_9  and  C_10
REMARK    9  A    between atoms: C_10  and  C_12
REMARK   10  A    between atoms: C_14  and  O_15
REMARK   11  A    between atoms: C_17  and  O_19
REMARK   12  A    between atoms: O_19  and  P_20
REMARK   13  A    between atoms: P_20  and  O_22
REMARK   14  A    between atoms: P_20  and  O_24
REMARK                            x       y       z     vdW  Elec       q    Type
REMARK                         _______ _______ _______ _____ _____    ______ ____
ROOT
ATOM      1  C   UNK A   1     -32.982  28.131   3.657  0.00  0.00    +0.199 C 
ENDROOT
BRANCH   1   3
ATOM      2  O   UNK A   0     -35.303  26.480   3.251  0.00  0.00    -0.275 OA
ATOM      3  N   UNK A   1     -33.669  27.344   4.654  0.00  0.00    -0.295 N 
ATOM      4  C   UNK A   0     -34.785  26.576   4.361  0.00  0.00    +0.223 C 
ATOM      5  H   UNK A   1     -33.330  27.353   5.579  0.00  0.00    +0.150 HD
BRANCH   4   6
ATOM      6  C   UNK A   0     -35.326  25.876   5.598  0.00  0.00    +0.085 C 
BRANCH   6   7
ATOM      7  C   UNK A   0     -35.966  24.519   5.306  0.00  0.00    +0.010 C 
BRANCH   7   8
ATOM      8  C   UNK A   0     -35.028  23.353   5.634  0.00  0.00    +0.001 C 
BRANCH   8   9
ATOM      9  C   UNK A   0     -35.383  22.060   4.893  0.00  0.00    +0.001 C 
BRANCH   9  10
ATOM     10  C   UNK A   0     -35.966  22.238   3.489  0.00  0.00    +0.012 C 
BRANCH  10  12
ATOM     11 BR   UNK A   0     -36.478  20.187   1.582  0.00  0.00    -0.081 Br
ATOM     12  C   UNK A   0     -35.236  21.426   2.432  0.00  0.00    +0.068 C 
ENDBRANCH  10  12
ENDBRANCH   9  10
ENDBRANCH   8   9
ENDBRANCH   7   8
ENDBRANCH   6   7
ENDBRANCH   4   6
ENDBRANCH   1   3
BRANCH   1  14
ATOM     13  O   UNK A   1     -30.730  27.234   3.401  0.00  0.00    -0.248 OA
ATOM     14  C   UNK A   1     -31.904  27.248   3.056  0.00  0.00    +0.334 C 
BRANCH  14  15
ATOM     15  O   UNK A   1     -32.380  26.488   2.035  0.00  0.00    -0.479 OA
ATOM     16  H   UNK A   1     -31.857  25.794   1.685  0.00  0.00    +0.295 HD
ENDBRANCH  14  15
ENDBRANCH   1  14
BRANCH   1  17
ATOM     17  C   UNK A   1     -32.387  29.425   4.221  0.00  0.00    +0.155 C 
ATOM     18  C   UNK A   1     -33.082  30.674   3.689  0.00  0.00    +0.035 C 
BRANCH  17  19
ATOM     19  O   UNK A   1     -32.460  29.429   5.646  0.00  0.00    -0.274 OA
BRANCH  19  20
ATOM     20  P   UNK A   1     -31.095  29.207   6.479  0.00  0.00    +0.473 P 
ATOM     21  O   UNK A   1     -29.913  29.990   5.987  0.00  0.00    -0.227 OA
BRANCH  20  22
ATOM     22  O   UNK A   1     -31.549  29.536   7.995  0.00  0.00    -0.303 OA
ATOM     23  H   UNK A   1     -32.512  29.654   8.026  0.00  0.00    +0.222 HD
ENDBRANCH  20  22
BRANCH  20  24
ATOM     24  O   UNK A   1     -30.905  27.601   6.487  0.00  0.00    -0.303 OA
ATOM     25  H   UNK A   1     -31.735  27.178   6.758  0.00  0.00    +0.222 HD
ENDBRANCH  20  24
ENDBRANCH  19  20
ENDBRANCH  17  19
ENDBRANCH   1  17
TORSDOF 14
ENDMDL
MODEL 9
REMARK VINA RESULT:      -5.0      2.840      3.506
REMARK  Name = 195091
REMARK  14 active torsions:
REMARK  status: ('A' for Active; 'I' for Inactive)
REMARK    1  A    between atoms: C_1  and  N_3
REMARK    2  A    between atoms: C_1  and  C_14
REMARK    3  A    between atoms: C_1  and  C_17
REMARK    4  A    between atoms: C_4  and  C_6
REMARK    5  A    between atoms: C_6  and  C_7
REMARK    6  A    between atoms: C_7  and  C_8
REMARK    7  A    between atoms: C_8  and  C_9
REMARK    8  A    between atoms: C_9  and  C_10
REMARK    9  A    between atoms: C_10  and  C_12
REMARK   10  A    between atoms: C_14  and  O_15
REMARK   11  A    between atoms: C_17  and  O_19
REMARK   12  A    between atoms: O_19  and  P_20
REMARK   13  A    between atoms: P_20  and  O_22
REMARK   14  A    between atoms: P_20  and  O_24
REMARK                            x       y       z     vdW  Elec       q    Type
REMARK                         _______ _______ _______ _____ _____    ______ ____
ROOT
ATOM      1  C   UNK A   1     -36.863  22.127   3.273  0.00  0.00    +0.199 C 
ENDROOT
BRANCH   1   3
ATOM      2  O   UNK A   0     -36.094  22.433   6.029  0.00  0.00    -0.275 OA
ATOM      3  N   UNK A   1     -35.915  23.077   3.806  0.00  0.00    -0.295 N 
ATOM      4  C   UNK A   0     -35.608  23.149   5.156  0.00  0.00    +0.223 C 
ATOM      5  H   UNK A   1     -35.469  23.699   3.186  0.00  0.00    +0.150 HD
BRANCH   4   6
ATOM      6  C   UNK A   0     -34.607  24.255   5.447  0.00  0.00    +0.085 C 
BRANCH   6   7
ATOM      7  C   UNK A   0     -35.215  25.657   5.422  0.00  0.00    +0.010 C 
BRANCH   7   8
ATOM      8  C   UNK A   0     -34.486  26.589   4.448  0.00  0.00    +0.001 C 
BRANCH   8   9
ATOM      9  C   UNK A   0     -35.337  26.990   3.239  0.00  0.00    +0.001 C 
BRANCH   9  10
ATOM     10  C   UNK A   0     -34.581  27.147   1.917  0.00  0.00    +0.012 C 
BRANCH  10  12
ATOM     11 BR   UNK A   0     -35.116  29.885   2.481  0.00  0.00    -0.081 Br
ATOM     12  C   UNK A   0     -33.936  28.514   1.756  0.00  0.00    +0.068 C 
ENDBRANCH  10  12
ENDBRANCH   9  10
ENDBRANCH   8   9
ENDBRANCH   7   8
ENDBRANCH   6   7
ENDBRANCH   4   6
ENDBRANCH   1   3
BRANCH   1  14
ATOM     13  O   UNK A   1     -35.000  21.244   1.972  0.00  0.00    -0.248 OA
ATOM     14  C   UNK A   1     -36.065  21.060   2.546  0.00  0.00    +0.334 C 
BRANCH  14  15
ATOM     15  O   UNK A   1     -36.697  19.857   2.558  0.00  0.00    -0.479 OA
ATOM     16  H   UNK A   1     -36.238  19.090   2.838  0.00  0.00    +0.295 HD
ENDBRANCH  14  15
ENDBRANCH   1  14
BRANCH   1  17
ATOM     17  C   UNK A   1     -37.899  22.770   2.348  0.00  0.00    +0.155 C 
ATOM     18  C   UNK A   1     -37.586  24.229   2.034  0.00  0.00    +0.035 C 
BRANCH  17  19
ATOM     19  O   UNK A   1     -37.993  22.045   1.122  0.00  0.00    -0.274 OA
BRANCH  19  20
ATOM     20  P   UNK A   1     -39.407  21.362   0.746  0.00  0.00    +0.473 P 
ATOM     21  O   UNK A   1     -40.248  22.134  -0.228  0.00  0.00    -0.227 OA
BRANCH  20  22
ATOM     22  O   UNK A   1     -38.966  19.889   0.250  0.00  0.00    -0.303 OA
ATOM     23  H   UNK A   1     -39.583  19.578  -0.431  0.00  0.00    +0.222 HD
ENDBRANCH  20  22
BRANCH  20  24
ATOM     24  O   UNK A   1     -40.094  21.082   2.183  0.00  0.00    -0.303 OA
ATOM     25  H   UNK A   1     -39.437  21.209   2.886  0.00  0.00    +0.222 HD
ENDBRANCH  20  24
ENDBRANCH  19  20
ENDBRANCH  17  19
ENDBRANCH   1  17
TORSDOF 14
ENDMDL
