MODEL 1
REMARK VINA RESULT:      -6.5      0.000      0.000
REMARK  Name = 53392582
REMARK  13 active torsions:
REMARK  status: ('A' for Active; 'I' for Inactive)
REMARK    1  A    between atoms: C_3  and  C_22
REMARK    2  A    between atoms: C_9  and  O_16
REMARK    3  A    between atoms: C_13  and  O_18
REMARK    4  A    between atoms: C_14  and  O_20
REMARK    5  A    between atoms: C_22  and  C_23
REMARK    6  A    between atoms: C_23  and  O_24
REMARK    7  A    between atoms: C_23  and  C_26
REMARK    8  A    between atoms: C_26  and  C_27
REMARK    9  A    between atoms: C_27  and  O_28
REMARK   10  A    between atoms: C_27  and  C_30
REMARK   11  A    between atoms: C_30  and  C_31
REMARK   12  A    between atoms: C_31  and  C_32
REMARK   13  A    between atoms: C_32  and  C_33
REMARK                            x       y       z     vdW  Elec       q    Type
REMARK                         _______ _______ _______ _____ _____    ______ ____
ROOT
ATOM      1  O   UNL     1     -36.279  20.536   0.837  0.00  0.00    -0.449 OA
ATOM      2  O   UNL     1     -36.632  18.414   0.133  0.00  0.00    -0.245 OA
ATOM      3  C   UNL     1     -35.368  21.467   1.466  0.00  0.00    +0.176 C 
ATOM      4  C   UNL     1     -34.086  21.562   0.654  0.00  0.00    +0.070 C 
ATOM      5  C   UNL     1     -33.519  20.179   0.534  0.00  0.00    -0.009 C 
ATOM      6  C   UNL     1     -34.386  19.087   0.453  0.00  0.00    +0.105 C 
ATOM      7  C   UNL     1     -35.854  19.299   0.465  0.00  0.00    +0.344 C 
ATOM      8  C   UNL     1     -32.137  19.969   0.461  0.00  0.00    -0.004 C 
ATOM      9  C   UNL     1     -33.879  17.790   0.318  0.00  0.00    +0.142 C 
ATOM     10  C   UNL     1     -31.610  18.674   0.329  0.00  0.00    +0.009 C 
ATOM     11  C   UNL     1     -32.493  17.571   0.260  0.00  0.00    +0.068 C 
ATOM     12  C   UNL     1     -30.225  18.451   0.264  0.00  0.00    +0.037 C 
ATOM     13  C   UNL     1     -31.963  16.276   0.128  0.00  0.00    +0.140 C 
ATOM     14  C   UNL     1     -29.716  17.158   0.134  0.00  0.00    +0.142 C 
ATOM     15  C   UNL     1     -30.584  16.074   0.066  0.00  0.00    +0.074 C 
ENDROOT
BRANCH   9  16
ATOM     16  O   UNL     1     -34.746  16.735   0.263  0.00  0.00    -0.505 OA
ATOM     17  H   UNL     1     -34.481  15.894   0.578  0.00  0.00    +0.292 HD
ENDBRANCH   9  16
BRANCH  13  18
ATOM     18  O   UNL     1     -32.741  15.157   0.051  0.00  0.00    -0.505 OA
ATOM     19  H   UNL     1     -33.377  14.982   0.716  0.00  0.00    +0.292 HD
ENDBRANCH  13  18
BRANCH  14  20
ATOM     20  O   UNL     1     -28.371  16.961   0.072  0.00  0.00    -0.471 OA
ATOM     21  C   UNL     1     -27.538  18.102   0.273  0.00  0.00    +0.252 C 
ENDBRANCH  14  20
BRANCH   3  22
ATOM     22  C   UNL     1     -36.073  22.814   1.551  0.00  0.00    +0.073 C 
BRANCH  22  23
ATOM     23  C   UNL     1     -37.058  22.875   2.722  0.00  0.00    +0.117 C 
BRANCH  23  24
ATOM     24  O   UNL     1     -37.824  21.675   2.748  0.00  0.00    -0.384 OA
ATOM     25  H   UNL     1     -37.451  21.067   3.405  0.00  0.00    +0.210 HD
ENDBRANCH  23  24
BRANCH  23  26
ATOM     26  C   UNL     1     -37.987  24.103   2.674  0.00  0.00    +0.059 C 
BRANCH  26  27
ATOM     27  C   UNL     1     -37.780  25.134   3.795  0.00  0.00    +0.113 C 
BRANCH  27  28
ATOM     28  O   UNL     1     -38.509  26.321   3.495  0.00  0.00    -0.384 OA
ATOM     29  H   UNL     1     -38.414  26.951   4.225  0.00  0.00    +0.210 HD
ENDBRANCH  27  28
BRANCH  27  30
ATOM     30  C   UNL     1     -36.298  25.484   4.019  0.00  0.00    +0.029 C 
BRANCH  30  31
ATOM     31  C   UNL     1     -35.784  25.189   5.432  0.00  0.00    +0.002 C 
BRANCH  31  32
ATOM     32  C   UNL     1     -34.874  23.958   5.442  0.00  0.00    +0.000 C 
BRANCH  32  33
ATOM     33  C   UNL     1     -35.571  22.756   6.079  0.00  0.00    +0.000 C 
ATOM     34  C   UNL     1     -35.068  21.446   5.495  0.00  0.00    +0.000 C 
ENDBRANCH  32  33
ENDBRANCH  31  32
ENDBRANCH  30  31
ENDBRANCH  27  30
ENDBRANCH  26  27
ENDBRANCH  23  26
ENDBRANCH  22  23
ENDBRANCH   3  22
TORSDOF 13
ENDMDL
MODEL 2
REMARK VINA RESULT:      -6.4      2.068      2.958
REMARK  Name = 53392582
REMARK  13 active torsions:
REMARK  status: ('A' for Active; 'I' for Inactive)
REMARK    1  A    between atoms: C_3  and  C_22
REMARK    2  A    between atoms: C_9  and  O_16
REMARK    3  A    between atoms: C_13  and  O_18
REMARK    4  A    between atoms: C_14  and  O_20
REMARK    5  A    between atoms: C_22  and  C_23
REMARK    6  A    between atoms: C_23  and  O_24
REMARK    7  A    between atoms: C_23  and  C_26
REMARK    8  A    between atoms: C_26  and  C_27
REMARK    9  A    between atoms: C_27  and  O_28
REMARK   10  A    between atoms: C_27  and  C_30
REMARK   11  A    between atoms: C_30  and  C_31
REMARK   12  A    between atoms: C_31  and  C_32
REMARK   13  A    between atoms: C_32  and  C_33
REMARK                            x       y       z     vdW  Elec       q    Type
REMARK                         _______ _______ _______ _____ _____    ______ ____
ROOT
ATOM      1  O   UNL     1     -36.695  22.409  -0.187  0.00  0.00    -0.449 OA
ATOM      2  O   UNL     1     -34.859  23.573  -0.818  0.00  0.00    -0.245 OA
ATOM      3  C   UNL     1     -37.270  21.111   0.085  0.00  0.00    +0.176 C 
ATOM      4  C   UNL     1     -36.498  20.430   1.205  0.00  0.00    +0.070 C 
ATOM      5  C   UNL     1     -35.060  20.357   0.789  0.00  0.00    -0.009 C 
ATOM      6  C   UNL     1     -34.518  21.385   0.013  0.00  0.00    +0.105 C 
ATOM      7  C   UNL     1     -35.355  22.545  -0.377  0.00  0.00    +0.344 C 
ATOM      8  C   UNL     1     -34.242  19.297   1.199  0.00  0.00    -0.004 C 
ATOM      9  C   UNL     1     -33.172  21.347  -0.368  0.00  0.00    +0.142 C 
ATOM     10  C   UNL     1     -32.891  19.242   0.823  0.00  0.00    +0.009 C 
ATOM     11  C   UNL     1     -32.350  20.279   0.027  0.00  0.00    +0.068 C 
ATOM     12  C   UNL     1     -32.064  18.179   1.221  0.00  0.00    +0.037 C 
ATOM     13  C   UNL     1     -30.997  20.221  -0.348  0.00  0.00    +0.140 C 
ATOM     14  C   UNL     1     -30.722  18.138   0.839  0.00  0.00    +0.142 C 
ATOM     15  C   UNL     1     -30.190  19.157   0.057  0.00  0.00    +0.074 C 
ENDROOT
BRANCH   9  16
ATOM     16  O   UNL     1     -32.669  22.353  -1.146  0.00  0.00    -0.505 OA
ATOM     17  H   UNL     1     -32.643  23.229  -0.819  0.00  0.00    +0.292 HD
ENDBRANCH   9  16
BRANCH  13  18
ATOM     18  O   UNL     1     -30.393  21.180  -1.111  0.00  0.00    -0.505 OA
ATOM     19  H   UNL     1     -29.544  21.499  -0.876  0.00  0.00    +0.292 HD
ENDBRANCH  13  18
BRANCH  14  20
ATOM     20  O   UNL     1     -29.935  17.100   1.234  0.00  0.00    -0.471 OA
ATOM     21  C   UNL     1     -28.530  17.340   1.299  0.00  0.00    +0.252 C 
ENDBRANCH  14  20
BRANCH   3  22
ATOM     22  C   UNL     1     -38.729  21.324   0.465  0.00  0.00    +0.073 C 
BRANCH  22  23
ATOM     23  C   UNL     1     -38.893  21.671   1.948  0.00  0.00    +0.117 C 
BRANCH  23  24
ATOM     24  O   UNL     1     -40.028  20.982   2.463  0.00  0.00    -0.384 OA
ATOM     25  H   UNL     1     -39.952  20.909   3.427  0.00  0.00    +0.210 HD
ENDBRANCH  23  24
BRANCH  23  26
ATOM     26  C   UNL     1     -39.020  23.184   2.210  0.00  0.00    +0.059 C 
BRANCH  26  27
ATOM     27  C   UNL     1     -37.977  23.779   3.169  0.00  0.00    +0.113 C 
BRANCH  27  28
ATOM     28  O   UNL     1     -38.588  24.780   3.978  0.00  0.00    -0.384 OA
ATOM     29  H   UNL     1     -38.228  25.649   3.743  0.00  0.00    +0.210 HD
ENDBRANCH  27  28
BRANCH  27  30
ATOM     30  C   UNL     1     -36.765  24.380   2.436  0.00  0.00    +0.029 C 
BRANCH  30  31
ATOM     31  C   UNL     1     -35.408  23.991   3.032  0.00  0.00    +0.002 C 
BRANCH  31  32
ATOM     32  C   UNL     1     -35.537  22.773   3.951  0.00  0.00    +0.000 C 
BRANCH  32  33
ATOM     33  C   UNL     1     -35.083  23.100   5.373  0.00  0.00    +0.000 C 
ATOM     34  C   UNL     1     -35.196  21.890   6.286  0.00  0.00    +0.000 C 
ENDBRANCH  32  33
ENDBRANCH  31  32
ENDBRANCH  30  31
ENDBRANCH  27  30
ENDBRANCH  26  27
ENDBRANCH  23  26
ENDBRANCH  22  23
ENDBRANCH   3  22
TORSDOF 13
ENDMDL
MODEL 3
REMARK VINA RESULT:      -6.4      2.837      6.117
REMARK  Name = 53392582
REMARK  13 active torsions:
REMARK  status: ('A' for Active; 'I' for Inactive)
REMARK    1  A    between atoms: C_3  and  C_22
REMARK    2  A    between atoms: C_9  and  O_16
REMARK    3  A    between atoms: C_13  and  O_18
REMARK    4  A    between atoms: C_14  and  O_20
REMARK    5  A    between atoms: C_22  and  C_23
REMARK    6  A    between atoms: C_23  and  O_24
REMARK    7  A    between atoms: C_23  and  C_26
REMARK    8  A    between atoms: C_26  and  C_27
REMARK    9  A    between atoms: C_27  and  O_28
REMARK   10  A    between atoms: C_27  and  C_30
REMARK   11  A    between atoms: C_30  and  C_31
REMARK   12  A    between atoms: C_31  and  C_32
REMARK   13  A    between atoms: C_32  and  C_33
REMARK                            x       y       z     vdW  Elec       q    Type
REMARK                         _______ _______ _______ _____ _____    ______ ____
ROOT
ATOM      1  O   UNL     1     -36.411  27.181   2.452  0.00  0.00    -0.449 OA
ATOM      2  O   UNL     1     -38.383  26.069   2.456  0.00  0.00    -0.245 OA
ATOM      3  C   UNL     1     -34.973  27.093   2.563  0.00  0.00    +0.176 C 
ATOM      4  C   UNL     1     -34.424  26.191   1.468  0.00  0.00    +0.070 C 
ATOM      5  C   UNL     1     -35.103  24.861   1.591  0.00  0.00    -0.009 C 
ATOM      6  C   UNL     1     -36.431  24.805   2.023  0.00  0.00    +0.105 C 
ATOM      7  C   UNL     1     -37.165  26.055   2.336  0.00  0.00    +0.344 C 
ATOM      8  C   UNL     1     -34.441  23.677   1.242  0.00  0.00    -0.004 C 
ATOM      9  C   UNL     1     -37.090  23.576   2.124  0.00  0.00    +0.142 C 
ATOM     10  C   UNL     1     -35.087  22.435   1.340  0.00  0.00    +0.009 C 
ATOM     11  C   UNL     1     -36.427  22.383   1.789  0.00  0.00    +0.068 C 
ATOM     12  C   UNL     1     -34.430  21.240   1.002  0.00  0.00    +0.037 C 
ATOM     13  C   UNL     1     -37.071  21.137   1.887  0.00  0.00    +0.140 C 
ATOM     14  C   UNL     1     -35.084  20.012   1.105  0.00  0.00    +0.142 C 
ATOM     15  C   UNL     1     -36.402  19.962   1.547  0.00  0.00    +0.074 C 
ENDROOT
BRANCH   9  16
ATOM     16  O   UNL     1     -38.382  23.544   2.570  0.00  0.00    -0.505 OA
ATOM     17  H   UNL     1     -38.674  24.169   3.203  0.00  0.00    +0.292 HD
ENDBRANCH   9  16
BRANCH  13  18
ATOM     18  O   UNL     1     -38.362  20.997   2.308  0.00  0.00    -0.505 OA
ATOM     19  H   UNL     1     -39.069  21.201   1.727  0.00  0.00    +0.292 HD
ENDBRANCH  13  18
BRANCH  14  20
ATOM     20  O   UNL     1     -34.431  18.865   0.772  0.00  0.00    -0.471 OA
ATOM     21  C   UNL     1     -33.211  18.590   1.460  0.00  0.00    +0.252 C 
ENDBRANCH  14  20
BRANCH   3  22
ATOM     22  C   UNL     1     -34.415  28.506   2.452  0.00  0.00    +0.073 C 
BRANCH  22  23
ATOM     23  C   UNL     1     -33.316  28.774   3.484  0.00  0.00    +0.117 C 
BRANCH  23  24
ATOM     24  O   UNL     1     -32.245  29.469   2.852  0.00  0.00    -0.384 OA
ATOM     25  H   UNL     1     -32.094  30.312   3.307  0.00  0.00    +0.210 HD
ENDBRANCH  23  24
BRANCH  23  26
ATOM     26  C   UNL     1     -32.795  27.495   4.167  0.00  0.00    +0.059 C 
BRANCH  26  27
ATOM     27  C   UNL     1     -32.927  27.463   5.698  0.00  0.00    +0.113 C 
BRANCH  27  28
ATOM     28  O   UNL     1     -31.632  27.399   6.288  0.00  0.00    -0.384 OA
ATOM     29  H   UNL     1     -31.635  27.886   7.126  0.00  0.00    +0.210 HD
ENDBRANCH  27  28
BRANCH  27  30
ATOM     30  C   UNL     1     -33.778  26.283   6.200  0.00  0.00    +0.029 C 
BRANCH  30  31
ATOM     31  C   UNL     1     -34.061  25.211   5.141  0.00  0.00    +0.002 C 
BRANCH  31  32
ATOM     32  C   UNL     1     -35.346  24.443   5.464  0.00  0.00    +0.000 C 
BRANCH  32  33
ATOM     33  C   UNL     1     -35.195  22.953   5.157  0.00  0.00    +0.000 C 
ATOM     34  C   UNL     1     -35.210  22.118   6.427  0.00  0.00    +0.000 C 
ENDBRANCH  32  33
ENDBRANCH  31  32
ENDBRANCH  30  31
ENDBRANCH  27  30
ENDBRANCH  26  27
ENDBRANCH  23  26
ENDBRANCH  22  23
ENDBRANCH   3  22
TORSDOF 13
ENDMDL
MODEL 4
REMARK VINA RESULT:      -6.4      1.324      2.366
REMARK  Name = 53392582
REMARK  13 active torsions:
REMARK  status: ('A' for Active; 'I' for Inactive)
REMARK    1  A    between atoms: C_3  and  C_22
REMARK    2  A    between atoms: C_9  and  O_16
REMARK    3  A    between atoms: C_13  and  O_18
REMARK    4  A    between atoms: C_14  and  O_20
REMARK    5  A    between atoms: C_22  and  C_23
REMARK    6  A    between atoms: C_23  and  O_24
REMARK    7  A    between atoms: C_23  and  C_26
REMARK    8  A    between atoms: C_26  and  C_27
REMARK    9  A    between atoms: C_27  and  O_28
REMARK   10  A    between atoms: C_27  and  C_30
REMARK   11  A    between atoms: C_30  and  C_31
REMARK   12  A    between atoms: C_31  and  C_32
REMARK   13  A    between atoms: C_32  and  C_33
REMARK                            x       y       z     vdW  Elec       q    Type
REMARK                         _______ _______ _______ _____ _____    ______ ____
ROOT
ATOM      1  O   UNL     1     -38.267  21.926   1.024  0.00  0.00    -0.449 OA
ATOM      2  O   UNL     1     -38.654  19.846   0.219  0.00  0.00    -0.245 OA
ATOM      3  C   UNL     1     -37.362  22.798   1.739  0.00  0.00    +0.176 C 
ATOM      4  C   UNL     1     -36.032  22.874   1.006  0.00  0.00    +0.070 C 
ATOM      5  C   UNL     1     -35.509  21.476   0.864  0.00  0.00    -0.009 C 
ATOM      6  C   UNL     1     -36.408  20.421   0.691  0.00  0.00    +0.105 C 
ATOM      7  C   UNL     1     -37.866  20.688   0.629  0.00  0.00    +0.344 C 
ATOM      8  C   UNL     1     -34.133  21.217   0.861  0.00  0.00    -0.004 C 
ATOM      9  C   UNL     1     -35.940  19.112   0.536  0.00  0.00    +0.142 C 
ATOM     10  C   UNL     1     -33.646  19.909   0.710  0.00  0.00    +0.009 C 
ATOM     11  C   UNL     1     -34.561  18.843   0.547  0.00  0.00    +0.068 C 
ATOM     12  C   UNL     1     -32.268  19.636   0.714  0.00  0.00    +0.037 C 
ATOM     13  C   UNL     1     -34.071  17.535   0.395  0.00  0.00    +0.140 C 
ATOM     14  C   UNL     1     -31.799  18.331   0.563  0.00  0.00    +0.142 C 
ATOM     15  C   UNL     1     -32.699  17.283   0.404  0.00  0.00    +0.074 C 
ENDROOT
BRANCH   9  16
ATOM     16  O   UNL     1     -36.840  18.093   0.391  0.00  0.00    -0.505 OA
ATOM     17  H   UNL     1     -36.580  17.211   0.564  0.00  0.00    +0.292 HD
ENDBRANCH   9  16
BRANCH  13  18
ATOM     18  O   UNL     1     -34.883  16.449   0.231  0.00  0.00    -0.505 OA
ATOM     19  H   UNL     1     -35.738  16.555  -0.137  0.00  0.00    +0.292 HD
ENDBRANCH  13  18
BRANCH  14  20
ATOM     20  O   UNL     1     -30.460  18.085   0.570  0.00  0.00    -0.471 OA
ATOM     21  C   UNL     1     -29.631  18.991  -0.156  0.00  0.00    +0.252 C 
ENDBRANCH  14  20
BRANCH   3  22
ATOM     22  C   UNL     1     -38.022  24.166   1.837  0.00  0.00    +0.073 C 
BRANCH  22  23
ATOM     23  C   UNL     1     -37.782  24.825   3.198  0.00  0.00    +0.117 C 
BRANCH  23  24
ATOM     24  O   UNL     1     -39.018  24.905   3.901  0.00  0.00    -0.384 OA
ATOM     25  H   UNL     1     -39.725  24.527   3.355  0.00  0.00    +0.210 HD
ENDBRANCH  23  24
BRANCH  23  26
ATOM     26  C   UNL     1     -37.134  26.219   3.095  0.00  0.00    +0.059 C 
BRANCH  26  27
ATOM     27  C   UNL     1     -35.796  26.384   3.833  0.00  0.00    +0.113 C 
BRANCH  27  28
ATOM     28  O   UNL     1     -35.338  27.726   3.701  0.00  0.00    -0.384 OA
ATOM     29  H   UNL     1     -35.869  28.305   4.269  0.00  0.00    +0.210 HD
ENDBRANCH  27  28
BRANCH  27  30
ATOM     30  C   UNL     1     -34.711  25.419   3.325  0.00  0.00    +0.029 C 
BRANCH  30  31
ATOM     31  C   UNL     1     -34.021  24.604   4.425  0.00  0.00    +0.002 C 
BRANCH  31  32
ATOM     32  C   UNL     1     -35.038  24.076   5.441  0.00  0.00    +0.000 C 
BRANCH  32  33
ATOM     33  C   UNL     1     -35.513  22.671   5.073  0.00  0.00    +0.000 C 
ATOM     34  C   UNL     1     -35.308  21.696   6.222  0.00  0.00    +0.000 C 
ENDBRANCH  32  33
ENDBRANCH  31  32
ENDBRANCH  30  31
ENDBRANCH  27  30
ENDBRANCH  26  27
ENDBRANCH  23  26
ENDBRANCH  22  23
ENDBRANCH   3  22
TORSDOF 13
ENDMDL
MODEL 5
REMARK VINA RESULT:      -6.4      5.373      8.216
REMARK  Name = 53392582
REMARK  13 active torsions:
REMARK  status: ('A' for Active; 'I' for Inactive)
REMARK    1  A    between atoms: C_3  and  C_22
REMARK    2  A    between atoms: C_9  and  O_16
REMARK    3  A    between atoms: C_13  and  O_18
REMARK    4  A    between atoms: C_14  and  O_20
REMARK    5  A    between atoms: C_22  and  C_23
REMARK    6  A    between atoms: C_23  and  O_24
REMARK    7  A    between atoms: C_23  and  C_26
REMARK    8  A    between atoms: C_26  and  C_27
REMARK    9  A    between atoms: C_27  and  O_28
REMARK   10  A    between atoms: C_27  and  C_30
REMARK   11  A    between atoms: C_30  and  C_31
REMARK   12  A    between atoms: C_31  and  C_32
REMARK   13  A    between atoms: C_32  and  C_33
REMARK                            x       y       z     vdW  Elec       q    Type
REMARK                         _______ _______ _______ _____ _____    ______ ____
ROOT
ATOM      1  O   UNL     1     -34.160  24.356   5.651  0.00  0.00    -0.449 OA
ATOM      2  O   UNL     1     -34.557  22.144   5.383  0.00  0.00    -0.245 OA
ATOM      3  C   UNL     1     -34.401  25.696   5.166  0.00  0.00    +0.176 C 
ATOM      4  C   UNL     1     -35.891  25.997   5.199  0.00  0.00    +0.070 C 
ATOM      5  C   UNL     1     -36.587  24.946   4.388  0.00  0.00    -0.009 C 
ATOM      6  C   UNL     1     -36.079  23.645   4.369  0.00  0.00    +0.105 C 
ATOM      7  C   UNL     1     -34.872  23.305   5.163  0.00  0.00    +0.344 C 
ATOM      8  C   UNL     1     -37.760  25.238   3.682  0.00  0.00    -0.004 C 
ATOM      9  C   UNL     1     -36.725  22.645   3.636  0.00  0.00    +0.142 C 
ATOM     10  C   UNL     1     -38.420  24.247   2.938  0.00  0.00    +0.009 C 
ATOM     11  C   UNL     1     -37.894  22.935   2.913  0.00  0.00    +0.068 C 
ATOM     12  C   UNL     1     -39.592  24.531   2.219  0.00  0.00    +0.037 C 
ATOM     13  C   UNL     1     -38.556  21.944   2.168  0.00  0.00    +0.140 C 
ATOM     14  C   UNL     1     -40.236  23.536   1.483  0.00  0.00    +0.142 C 
ATOM     15  C   UNL     1     -39.719  22.245   1.458  0.00  0.00    +0.074 C 
ENDROOT
BRANCH   9  16
ATOM     16  O   UNL     1     -36.196  21.384   3.614  0.00  0.00    -0.505 OA
ATOM     17  H   UNL     1     -35.791  21.059   2.835  0.00  0.00    +0.292 HD
ENDBRANCH   9  16
BRANCH  13  18
ATOM     18  O   UNL     1     -38.120  20.653   2.091  0.00  0.00    -0.505 OA
ATOM     19  H   UNL     1     -38.351  20.039   2.761  0.00  0.00    +0.292 HD
ENDBRANCH  13  18
BRANCH  14  20
ATOM     20  O   UNL     1     -41.372  23.829   0.792  0.00  0.00    -0.471 OA
ATOM     21  C   UNL     1     -41.996  25.082   1.071  0.00  0.00    +0.252 C 
ENDBRANCH  14  20
BRANCH   3  22
ATOM     22  C   UNL     1     -33.620  26.655   6.053  0.00  0.00    +0.073 C 
BRANCH  22  23
ATOM     23  C   UNL     1     -32.630  27.505   5.251  0.00  0.00    +0.117 C 
BRANCH  23  24
ATOM     24  O   UNL     1     -32.669  28.844   5.735  0.00  0.00    -0.384 OA
ATOM     25  H   UNL     1     -33.535  29.234   5.538  0.00  0.00    +0.210 HD
ENDBRANCH  23  24
BRANCH  23  26
ATOM     26  C   UNL     1     -32.891  27.476   3.734  0.00  0.00    +0.059 C 
BRANCH  26  27
ATOM     27  C   UNL     1     -33.526  28.747   3.147  0.00  0.00    +0.113 C 
BRANCH  27  28
ATOM     28  O   UNL     1     -34.886  28.837   3.561  0.00  0.00    -0.384 OA
ATOM     29  H   UNL     1     -34.945  29.392   4.354  0.00  0.00    +0.210 HD
ENDBRANCH  27  28
BRANCH  27  30
ATOM     30  C   UNL     1     -33.453  28.796   1.611  0.00  0.00    +0.029 C 
BRANCH  30  31
ATOM     31  C   UNL     1     -34.692  28.243   0.899  0.00  0.00    +0.002 C 
BRANCH  31  32
ATOM     32  C   UNL     1     -34.427  26.844   0.336  0.00  0.00    +0.000 C 
BRANCH  32  33
ATOM     33  C   UNL     1     -35.099  25.766   1.186  0.00  0.00    +0.000 C 
ATOM     34  C   UNL     1     -34.174  24.581   1.415  0.00  0.00    +0.000 C 
ENDBRANCH  32  33
ENDBRANCH  31  32
ENDBRANCH  30  31
ENDBRANCH  27  30
ENDBRANCH  26  27
ENDBRANCH  23  26
ENDBRANCH  22  23
ENDBRANCH   3  22
TORSDOF 13
ENDMDL
MODEL 6
REMARK VINA RESULT:      -6.3      2.056      3.491
REMARK  Name = 53392582
REMARK  13 active torsions:
REMARK  status: ('A' for Active; 'I' for Inactive)
REMARK    1  A    between atoms: C_3  and  C_22
REMARK    2  A    between atoms: C_9  and  O_16
REMARK    3  A    between atoms: C_13  and  O_18
REMARK    4  A    between atoms: C_14  and  O_20
REMARK    5  A    between atoms: C_22  and  C_23
REMARK    6  A    between atoms: C_23  and  O_24
REMARK    7  A    between atoms: C_23  and  C_26
REMARK    8  A    between atoms: C_26  and  C_27
REMARK    9  A    between atoms: C_27  and  O_28
REMARK   10  A    between atoms: C_27  and  C_30
REMARK   11  A    between atoms: C_30  and  C_31
REMARK   12  A    between atoms: C_31  and  C_32
REMARK   13  A    between atoms: C_32  and  C_33
REMARK                            x       y       z     vdW  Elec       q    Type
REMARK                         _______ _______ _______ _____ _____    ______ ____
ROOT
ATOM      1  O   UNL     1     -36.266  24.208   0.992  0.00  0.00    -0.449 OA
ATOM      2  O   UNL     1     -34.242  24.769   0.147  0.00  0.00    -0.245 OA
ATOM      3  C   UNL     1     -37.205  23.148   1.278  0.00  0.00    +0.176 C 
ATOM      4  C   UNL     1     -36.572  22.138   2.222  0.00  0.00    +0.070 C 
ATOM      5  C   UNL     1     -35.310  21.644   1.582  0.00  0.00    -0.009 C 
ATOM      6  C   UNL     1     -34.557  22.514   0.789  0.00  0.00    +0.105 C 
ATOM      7  C   UNL     1     -34.995  23.919   0.602  0.00  0.00    +0.344 C 
ATOM      8  C   UNL     1     -34.853  20.338   1.797  0.00  0.00    -0.004 C 
ATOM      9  C   UNL     1     -33.365  22.080   0.200  0.00  0.00    +0.142 C 
ATOM     10  C   UNL     1     -33.661  19.885   1.211  0.00  0.00    +0.009 C 
ATOM     11  C   UNL     1     -32.909  20.767   0.400  0.00  0.00    +0.068 C 
ATOM     12  C   UNL     1     -33.198  18.575   1.413  0.00  0.00    +0.037 C 
ATOM     13  C   UNL     1     -31.715  20.311  -0.186  0.00  0.00    +0.140 C 
ATOM     14  C   UNL     1     -32.011  18.138   0.823  0.00  0.00    +0.142 C 
ATOM     15  C   UNL     1     -31.272  19.005   0.026  0.00  0.00    +0.074 C 
ENDROOT
BRANCH   9  16
ATOM     16  O   UNL     1     -32.657  22.943  -0.590  0.00  0.00    -0.505 OA
ATOM     17  H   UNL     1     -31.737  22.818  -0.712  0.00  0.00    +0.292 HD
ENDBRANCH   9  16
BRANCH  13  18
ATOM     18  O   UNL     1     -30.928  21.094  -0.979  0.00  0.00    -0.505 OA
ATOM     19  H   UNL     1     -31.076  21.123  -1.904  0.00  0.00    +0.292 HD
ENDBRANCH  13  18
BRANCH  14  20
ATOM     20  O   UNL     1     -31.578  16.865   1.031  0.00  0.00    -0.471 OA
ATOM     21  C   UNL     1     -31.274  16.087  -0.126  0.00  0.00    +0.252 C 
ENDBRANCH  14  20
BRANCH   3  22
ATOM     22  C   UNL     1     -38.444  23.784   1.894  0.00  0.00    +0.073 C 
BRANCH  22  23
ATOM     23  C   UNL     1     -38.097  24.692   3.078  0.00  0.00    +0.117 C 
BRANCH  23  24
ATOM     24  O   UNL     1     -39.194  24.712   3.985  0.00  0.00    -0.384 OA
ATOM     25  H   UNL     1     -40.021  24.822   3.491  0.00  0.00    +0.210 HD
ENDBRANCH  23  24
BRANCH  23  26
ATOM     26  C   UNL     1     -37.723  26.126   2.657  0.00  0.00    +0.059 C 
BRANCH  26  27
ATOM     27  C   UNL     1     -36.399  26.659   3.228  0.00  0.00    +0.113 C 
BRANCH  27  28
ATOM     28  O   UNL     1     -35.437  26.768   2.183  0.00  0.00    -0.384 OA
ATOM     29  H   UNL     1     -35.367  25.919   1.720  0.00  0.00    +0.210 HD
ENDBRANCH  27  28
BRANCH  27  30
ATOM     30  C   UNL     1     -35.836  25.777   4.355  0.00  0.00    +0.029 C 
BRANCH  30  31
ATOM     31  C   UNL     1     -34.532  25.053   4.001  0.00  0.00    +0.002 C 
BRANCH  31  32
ATOM     32  C   UNL     1     -34.353  23.791   4.851  0.00  0.00    +0.000 C 
BRANCH  32  33
ATOM     33  C   UNL     1     -35.658  23.396   5.541  0.00  0.00    +0.000 C 
ATOM     34  C   UNL     1     -35.506  22.100   6.319  0.00  0.00    +0.000 C 
ENDBRANCH  32  33
ENDBRANCH  31  32
ENDBRANCH  30  31
ENDBRANCH  27  30
ENDBRANCH  26  27
ENDBRANCH  23  26
ENDBRANCH  22  23
ENDBRANCH   3  22
TORSDOF 13
ENDMDL
MODEL 7
REMARK VINA RESULT:      -6.1      2.026      3.241
REMARK  Name = 53392582
REMARK  13 active torsions:
REMARK  status: ('A' for Active; 'I' for Inactive)
REMARK    1  A    between atoms: C_3  and  C_22
REMARK    2  A    between atoms: C_9  and  O_16
REMARK    3  A    between atoms: C_13  and  O_18
REMARK    4  A    between atoms: C_14  and  O_20
REMARK    5  A    between atoms: C_22  and  C_23
REMARK    6  A    between atoms: C_23  and  O_24
REMARK    7  A    between atoms: C_23  and  C_26
REMARK    8  A    between atoms: C_26  and  C_27
REMARK    9  A    between atoms: C_27  and  O_28
REMARK   10  A    between atoms: C_27  and  C_30
REMARK   11  A    between atoms: C_30  and  C_31
REMARK   12  A    between atoms: C_31  and  C_32
REMARK   13  A    between atoms: C_32  and  C_33
REMARK                            x       y       z     vdW  Elec       q    Type
REMARK                         _______ _______ _______ _____ _____    ______ ____
ROOT
ATOM      1  O   UNL     1     -36.751  23.441   1.847  0.00  0.00    -0.449 OA
ATOM      2  O   UNL     1     -37.066  21.240   2.273  0.00  0.00    -0.245 OA
ATOM      3  C   UNL     1     -35.804  24.494   1.557  0.00  0.00    +0.176 C 
ATOM      4  C   UNL     1     -35.056  24.175   0.271  0.00  0.00    +0.070 C 
ATOM      5  C   UNL     1     -34.408  22.835   0.441  0.00  0.00    -0.009 C 
ATOM      6  C   UNL     1     -35.046  21.856   1.207  0.00  0.00    +0.105 C 
ATOM      7  C   UNL     1     -36.363  22.138   1.829  0.00  0.00    +0.344 C 
ATOM      8  C   UNL     1     -33.194  22.535  -0.189  0.00  0.00    -0.004 C 
ATOM      9  C   UNL     1     -34.469  20.591   1.360  0.00  0.00    +0.142 C 
ATOM     10  C   UNL     1     -32.599  21.272  -0.043  0.00  0.00    +0.009 C 
ATOM     11  C   UNL     1     -33.244  20.288   0.744  0.00  0.00    +0.068 C 
ATOM     12  C   UNL     1     -31.377  20.962  -0.662  0.00  0.00    +0.037 C 
ATOM     13  C   UNL     1     -32.646  19.025   0.888  0.00  0.00    +0.140 C 
ATOM     14  C   UNL     1     -30.797  19.703  -0.508  0.00  0.00    +0.142 C 
ATOM     15  C   UNL     1     -31.431  18.736   0.266  0.00  0.00    +0.074 C 
ENDROOT
BRANCH   9  16
ATOM     16  O   UNL     1     -35.101  19.657   2.133  0.00  0.00    -0.505 OA
ATOM     17  H   UNL     1     -35.164  19.780   3.059  0.00  0.00    +0.292 HD
ENDBRANCH   9  16
BRANCH  13  18
ATOM     18  O   UNL     1     -33.200  18.018   1.626  0.00  0.00    -0.505 OA
ATOM     19  H   UNL     1     -33.915  17.522   1.279  0.00  0.00    +0.292 HD
ENDBRANCH  13  18
BRANCH  14  20
ATOM     20  O   UNL     1     -29.613  19.421  -1.116  0.00  0.00    -0.471 OA
ATOM     21  C   UNL     1     -28.422  19.760  -0.405  0.00  0.00    +0.252 C 
ENDBRANCH  14  20
BRANCH   3  22
ATOM     22  C   UNL     1     -36.584  25.796   1.438  0.00  0.00    +0.073 C 
BRANCH  22  23
ATOM     23  C   UNL     1     -36.117  26.842   2.455  0.00  0.00    +0.117 C 
BRANCH  23  24
ATOM     24  O   UNL     1     -36.662  28.109   2.101  0.00  0.00    -0.384 OA
ATOM     25  H   UNL     1     -36.040  28.580   1.525  0.00  0.00    +0.210 HD
ENDBRANCH  23  24
BRANCH  23  26
ATOM     26  C   UNL     1     -34.584  26.933   2.575  0.00  0.00    +0.059 C 
BRANCH  26  27
ATOM     27  C   UNL     1     -34.032  26.957   4.009  0.00  0.00    +0.113 C 
BRANCH  27  28
ATOM     28  O   UNL     1     -32.703  26.445   4.020  0.00  0.00    -0.384 OA
ATOM     29  H   UNL     1     -32.601  25.797   3.306  0.00  0.00    +0.210 HD
ENDBRANCH  27  28
BRANCH  27  30
ATOM     30  C   UNL     1     -34.899  26.157   4.996  0.00  0.00    +0.029 C 
BRANCH  30  31
ATOM     31  C   UNL     1     -34.485  24.690   5.158  0.00  0.00    +0.002 C 
BRANCH  31  32
ATOM     32  C   UNL     1     -35.710  23.779   5.272  0.00  0.00    +0.000 C 
BRANCH  32  33
ATOM     33  C   UNL     1     -35.423  22.569   6.160  0.00  0.00    +0.000 C 
ATOM     34  C   UNL     1     -35.075  21.342   5.333  0.00  0.00    +0.000 C 
ENDBRANCH  32  33
ENDBRANCH  31  32
ENDBRANCH  30  31
ENDBRANCH  27  30
ENDBRANCH  26  27
ENDBRANCH  23  26
ENDBRANCH  22  23
ENDBRANCH   3  22
TORSDOF 13
ENDMDL
MODEL 8
REMARK VINA RESULT:      -6.1      2.349      8.045
REMARK  Name = 53392582
REMARK  13 active torsions:
REMARK  status: ('A' for Active; 'I' for Inactive)
REMARK    1  A    between atoms: C_3  and  C_22
REMARK    2  A    between atoms: C_9  and  O_16
REMARK    3  A    between atoms: C_13  and  O_18
REMARK    4  A    between atoms: C_14  and  O_20
REMARK    5  A    between atoms: C_22  and  C_23
REMARK    6  A    between atoms: C_23  and  O_24
REMARK    7  A    between atoms: C_23  and  C_26
REMARK    8  A    between atoms: C_26  and  C_27
REMARK    9  A    between atoms: C_27  and  O_28
REMARK   10  A    between atoms: C_27  and  C_30
REMARK   11  A    between atoms: C_30  and  C_31
REMARK   12  A    between atoms: C_31  and  C_32
REMARK   13  A    between atoms: C_32  and  C_33
REMARK                            x       y       z     vdW  Elec       q    Type
REMARK                         _______ _______ _______ _____ _____    ______ ____
ROOT
ATOM      1  O   UNL     1     -39.109  19.950  -0.073  0.00  0.00    -0.449 OA
ATOM      2  O   UNL     1     -40.578  21.230   1.081  0.00  0.00    -0.245 OA
ATOM      3  C   UNL     1     -37.746  19.777  -0.519  0.00  0.00    +0.176 C 
ATOM      4  C   UNL     1     -36.817  19.695   0.682  0.00  0.00    +0.070 C 
ATOM      5  C   UNL     1     -37.013  20.938   1.496  0.00  0.00    -0.009 C 
ATOM      6  C   UNL     1     -38.279  21.525   1.558  0.00  0.00    +0.105 C 
ATOM      7  C   UNL     1     -39.422  20.909   0.840  0.00  0.00    +0.344 C 
ATOM      8  C   UNL     1     -35.958  21.497   2.227  0.00  0.00    -0.004 C 
ATOM      9  C   UNL     1     -38.489  22.673   2.329  0.00  0.00    +0.142 C 
ATOM     10  C   UNL     1     -36.150  22.651   3.003  0.00  0.00    +0.009 C 
ATOM     11  C   UNL     1     -37.431  23.247   3.053  0.00  0.00    +0.068 C 
ATOM     12  C   UNL     1     -35.096  23.225   3.733  0.00  0.00    +0.037 C 
ATOM     13  C   UNL     1     -37.621  24.402   3.831  0.00  0.00    +0.140 C 
ATOM     14  C   UNL     1     -35.302  24.373   4.500  0.00  0.00    +0.142 C 
ATOM     15  C   UNL     1     -36.562  24.959   4.549  0.00  0.00    +0.074 C 
ENDROOT
BRANCH   9  16
ATOM     16  O   UNL     1     -39.732  23.242   2.357  0.00  0.00    -0.505 OA
ATOM     17  H   UNL     1     -40.345  22.997   3.021  0.00  0.00    +0.292 HD
ENDBRANCH   9  16
BRANCH  13  18
ATOM     18  O   UNL     1     -38.823  25.040   3.937  0.00  0.00    -0.505 OA
ATOM     19  H   UNL     1     -39.326  25.225   3.168  0.00  0.00    +0.292 HD
ENDBRANCH  13  18
BRANCH  14  20
ATOM     20  O   UNL     1     -34.269  24.916   5.201  0.00  0.00    -0.471 OA
ATOM     21  C   UNL     1     -33.896  26.253   4.874  0.00  0.00    +0.252 C 
ENDBRANCH  14  20
BRANCH   3  22
ATOM     22  C   UNL     1     -37.691  18.504  -1.352  0.00  0.00    +0.073 C 
BRANCH  22  23
ATOM     23  C   UNL     1     -36.253  18.043  -1.606  0.00  0.00    +0.117 C 
BRANCH  23  24
ATOM     24  O   UNL     1     -35.836  18.505  -2.887  0.00  0.00    -0.384 OA
ATOM     25  H   UNL     1     -36.616  18.715  -3.425  0.00  0.00    +0.210 HD
ENDBRANCH  23  24
BRANCH  23  26
ATOM     26  C   UNL     1     -36.076  16.516  -1.504  0.00  0.00    +0.059 C 
BRANCH  26  27
ATOM     27  C   UNL     1     -35.015  16.039  -0.499  0.00  0.00    +0.113 C 
BRANCH  27  28
ATOM     28  O   UNL     1     -35.628  15.218   0.491  0.00  0.00    -0.384 OA
ATOM     29  H   UNL     1     -34.957  14.920   1.124  0.00  0.00    +0.210 HD
ENDBRANCH  27  28
BRANCH  27  30
ATOM     30  C   UNL     1     -34.274  17.201   0.185  0.00  0.00    +0.029 C 
BRANCH  30  31
ATOM     31  C   UNL     1     -32.773  16.966   0.386  0.00  0.00    +0.002 C 
BRANCH  31  32
ATOM     32  C   UNL     1     -32.123  18.142   1.119  0.00  0.00    +0.000 C 
BRANCH  32  33
ATOM     33  C   UNL     1     -33.023  19.377   1.095  0.00  0.00    +0.000 C 
ATOM     34  C   UNL     1     -32.472  20.449   0.168  0.00  0.00    +0.000 C 
ENDBRANCH  32  33
ENDBRANCH  31  32
ENDBRANCH  30  31
ENDBRANCH  27  30
ENDBRANCH  26  27
ENDBRANCH  23  26
ENDBRANCH  22  23
ENDBRANCH   3  22
TORSDOF 13
ENDMDL
MODEL 9
REMARK VINA RESULT:      -6.1      5.580      8.752
REMARK  Name = 53392582
REMARK  13 active torsions:
REMARK  status: ('A' for Active; 'I' for Inactive)
REMARK    1  A    between atoms: C_3  and  C_22
REMARK    2  A    between atoms: C_9  and  O_16
REMARK    3  A    between atoms: C_13  and  O_18
REMARK    4  A    between atoms: C_14  and  O_20
REMARK    5  A    between atoms: C_22  and  C_23
REMARK    6  A    between atoms: C_23  and  O_24
REMARK    7  A    between atoms: C_23  and  C_26
REMARK    8  A    between atoms: C_26  and  C_27
REMARK    9  A    between atoms: C_27  and  O_28
REMARK   10  A    between atoms: C_27  and  C_30
REMARK   11  A    between atoms: C_30  and  C_31
REMARK   12  A    between atoms: C_31  and  C_32
REMARK   13  A    between atoms: C_32  and  C_33
REMARK                            x       y       z     vdW  Elec       q    Type
REMARK                         _______ _______ _______ _____ _____    ______ ____
ROOT
ATOM      1  O   UNL     1     -34.243  24.145   5.687  0.00  0.00    -0.449 OA
ATOM      2  O   UNL     1     -34.626  21.946   5.311  0.00  0.00    -0.245 OA
ATOM      3  C   UNL     1     -34.483  25.505   5.260  0.00  0.00    +0.176 C 
ATOM      4  C   UNL     1     -35.975  25.798   5.282  0.00  0.00    +0.070 C 
ATOM      5  C   UNL     1     -36.652  24.783   4.412  0.00  0.00    -0.009 C 
ATOM      6  C   UNL     1     -36.137  23.486   4.342  0.00  0.00    +0.105 C 
ATOM      7  C   UNL     1     -34.942  23.115   5.139  0.00  0.00    +0.344 C 
ATOM      8  C   UNL     1     -37.815  25.103   3.701  0.00  0.00    -0.004 C 
ATOM      9  C   UNL     1     -36.766  22.518   3.553  0.00  0.00    +0.142 C 
ATOM     10  C   UNL     1     -38.457  24.144   2.901  0.00  0.00    +0.009 C 
ATOM     11  C   UNL     1     -37.925  22.836   2.824  0.00  0.00    +0.068 C 
ATOM     12  C   UNL     1     -39.619  24.456   2.176  0.00  0.00    +0.037 C 
ATOM     13  C   UNL     1     -38.570  21.878   2.023  0.00  0.00    +0.140 C 
ATOM     14  C   UNL     1     -40.246  23.493   1.385  0.00  0.00    +0.142 C 
ATOM     15  C   UNL     1     -39.722  22.207   1.309  0.00  0.00    +0.074 C 
ENDROOT
BRANCH   9  16
ATOM     16  O   UNL     1     -36.231  21.262   3.482  0.00  0.00    -0.505 OA
ATOM     17  H   UNL     1     -35.980  20.906   2.653  0.00  0.00    +0.292 HD
ENDBRANCH   9  16
BRANCH  13  18
ATOM     18  O   UNL     1     -38.126  20.593   1.894  0.00  0.00    -0.505 OA
ATOM     19  H   UNL     1     -38.693  19.935   1.543  0.00  0.00    +0.292 HD
ENDBRANCH  13  18
BRANCH  14  20
ATOM     20  O   UNL     1     -41.371  23.813   0.689  0.00  0.00    -0.471 OA
ATOM     21  C   UNL     1     -41.982  25.068   0.986  0.00  0.00    +0.252 C 
ENDBRANCH  14  20
BRANCH   3  22
ATOM     22  C   UNL     1     -33.721  26.425   6.203  0.00  0.00    +0.073 C 
BRANCH  22  23
ATOM     23  C   UNL     1     -32.968  27.526   5.451  0.00  0.00    +0.117 C 
BRANCH  23  24
ATOM     24  O   UNL     1     -32.287  26.949   4.341  0.00  0.00    -0.384 OA
ATOM     25  H   UNL     1     -31.452  27.418   4.194  0.00  0.00    +0.210 HD
ENDBRANCH  23  24
BRANCH  23  26
ATOM     26  C   UNL     1     -31.979  28.305   6.339  0.00  0.00    +0.059 C 
BRANCH  26  27
ATOM     27  C   UNL     1     -30.541  28.397   5.804  0.00  0.00    +0.113 C 
BRANCH  27  28
ATOM     28  O   UNL     1     -29.666  27.661   6.654  0.00  0.00    -0.384 OA
ATOM     29  H   UNL     1     -30.170  26.977   7.121  0.00  0.00    +0.210 HD
ENDBRANCH  27  28
BRANCH  27  30
ATOM     30  C   UNL     1     -30.040  29.847   5.684  0.00  0.00    +0.029 C 
BRANCH  30  31
ATOM     31  C   UNL     1     -31.148  30.885   5.471  0.00  0.00    +0.002 C 
BRANCH  31  32
ATOM     32  C   UNL     1     -31.510  31.010   3.989  0.00  0.00    +0.000 C 
BRANCH  32  33
ATOM     33  C   UNL     1     -33.016  30.864   3.771  0.00  0.00    +0.000 C 
ATOM     34  C   UNL     1     -33.322  29.944   2.601  0.00  0.00    +0.000 C 
ENDBRANCH  32  33
ENDBRANCH  31  32
ENDBRANCH  30  31
ENDBRANCH  27  30
ENDBRANCH  26  27
ENDBRANCH  23  26
ENDBRANCH  22  23
ENDBRANCH   3  22
TORSDOF 13
ENDMDL
