MODEL 1
REMARK VINA RESULT:      -6.0      0.000      0.000
REMARK  Name = 5284378
REMARK  6 active torsions:
REMARK  status: ('A' for Active; 'I' for Inactive)
REMARK    1  A    between atoms: C_1  and  C_3
REMARK    2  A    between atoms: C_2  and  C_16
REMARK    3  A    between atoms: C_4  and  S_9
REMARK    4  A    between atoms: C_7  and  N_13
REMARK    5  A    between atoms: C_17  and  S_22
REMARK    6  A    between atoms: C_20  and  N_26
REMARK                            x       y       z     vdW  Elec       q    Type
REMARK                         _______ _______ _______ _____ _____    ______ ____
ROOT
ATOM      1  C   UNL     1     -36.327  24.717   4.260  0.00  0.00    +0.001 C 
ATOM      2  C   UNL     1     -35.477  25.638   3.752  0.00  0.00    +0.001 C 
ENDROOT
BRANCH   1   3
ATOM      3  C   UNL     1     -37.379  24.043   3.511  0.00  0.00    +0.018 C 
ATOM      4  C   UNL     1     -37.205  22.762   2.988  0.00  0.00    +0.113 C 
ATOM      5  C   UNL     1     -38.238  22.152   2.276  0.00  0.00    +0.033 C 
ATOM      6  C   UNL     1     -38.586  24.716   3.321  0.00  0.00    +0.003 C 
ATOM      7  C   UNL     1     -39.445  22.825   2.086  0.00  0.00    +0.043 C 
ATOM      8  C   UNL     1     -39.619  24.106   2.608  0.00  0.00    +0.014 C 
BRANCH   4   9
ATOM      9  S   UNL     1     -35.707  21.874   3.197  0.00  0.00    +0.042 S 
ATOM     10  O   UNL     1     -36.053  20.346   2.734  0.00  0.00    -0.065 OA
ATOM     11  O   UNL     1     -34.743  22.403   2.247  0.00  0.00    -0.065 OA
ATOM     12  O   UNL     1     -35.423  21.865   4.622  0.00  0.00    -0.065 OA
ENDBRANCH   4   9
BRANCH   7  13
ATOM     13  N   UNL     1     -40.491  22.209   1.367  0.00  0.00    -0.357 N 
ATOM     14  H   UNL     1     -41.193  22.760   0.950  0.00  0.00    +0.142 HD
ATOM     15  H   UNL     1     -40.520  21.229   1.282  0.00  0.00    +0.142 HD
ENDBRANCH   7  13
ENDBRANCH   1   3
BRANCH   2  16
ATOM     16  C   UNL     1     -34.425  26.333   4.514  0.00  0.00    +0.018 C 
ATOM     17  C   UNL     1     -33.611  27.282   3.916  0.00  0.00    +0.113 C 
ATOM     18  C   UNL     1     -32.628  27.918   4.674  0.00  0.00    +0.033 C 
ATOM     19  C   UNL     1     -34.280  26.005   5.855  0.00  0.00    +0.003 C 
ATOM     20  C   UNL     1     -32.471  27.597   6.023  0.00  0.00    +0.043 C 
ATOM     21  C   UNL     1     -33.297  26.641   6.612  0.00  0.00    +0.014 C 
BRANCH  17  22
ATOM     22  S   UNL     1     -33.768  27.721   2.226  0.00  0.00    +0.042 S 
ATOM     23  O   UNL     1     -32.567  28.794   1.955  0.00  0.00    -0.065 OA
ATOM     24  O   UNL     1     -33.475  26.539   1.433  0.00  0.00    -0.065 OA
ATOM     25  O   UNL     1     -35.038  28.414   2.091  0.00  0.00    -0.065 OA
ENDBRANCH  17  22
BRANCH  20  26
ATOM     26  N   UNL     1     -31.477  28.240   6.790  0.00  0.00    -0.357 N 
ATOM     27  H   UNL     1     -30.789  27.707   7.250  0.00  0.00    +0.142 HD
ATOM     28  H   UNL     1     -31.472  29.222   6.865  0.00  0.00    +0.142 HD
ENDBRANCH  20  26
ENDBRANCH   2  16
TORSDOF 6
ENDMDL
MODEL 2
REMARK VINA RESULT:      -6.0      0.045      7.283
REMARK  Name = 5284378
REMARK  6 active torsions:
REMARK  status: ('A' for Active; 'I' for Inactive)
REMARK    1  A    between atoms: C_1  and  C_3
REMARK    2  A    between atoms: C_2  and  C_16
REMARK    3  A    between atoms: C_4  and  S_9
REMARK    4  A    between atoms: C_7  and  N_13
REMARK    5  A    between atoms: C_17  and  S_22
REMARK    6  A    between atoms: C_20  and  N_26
REMARK                            x       y       z     vdW  Elec       q    Type
REMARK                         _______ _______ _______ _____ _____    ______ ____
ROOT
ATOM      1  C   UNL     1     -35.491  25.679   3.752  0.00  0.00    +0.001 C 
ATOM      2  C   UNL     1     -36.319  24.730   4.243  0.00  0.00    +0.001 C 
ENDROOT
BRANCH   1   3
ATOM      3  C   UNL     1     -34.443  26.352   4.508  0.00  0.00    +0.018 C 
ATOM      4  C   UNL     1     -33.606  27.301   3.922  0.00  0.00    +0.113 C 
ATOM      5  C   UNL     1     -32.615  27.921   4.682  0.00  0.00    +0.033 C 
ATOM      6  C   UNL     1     -34.289  26.023   5.855  0.00  0.00    +0.003 C 
ATOM      7  C   UNL     1     -32.460  27.592   6.028  0.00  0.00    +0.043 C 
ATOM      8  C   UNL     1     -33.297  26.643   6.615  0.00  0.00    +0.014 C 
BRANCH   4   9
ATOM      9  S   UNL     1     -33.758  27.749   2.233  0.00  0.00    +0.042 S 
ATOM     10  O   UNL     1     -32.579  28.851   1.982  0.00  0.00    -0.065 OA
ATOM     11  O   UNL     1     -33.429  26.580   1.435  0.00  0.00    -0.065 OA
ATOM     12  O   UNL     1     -35.042  28.413   2.092  0.00  0.00    -0.065 OA
ENDBRANCH   4   9
BRANCH   7  13
ATOM     13  N   UNL     1     -31.458  28.220   6.798  0.00  0.00    -0.357 N 
ATOM     14  H   UNL     1     -31.089  27.765   7.590  0.00  0.00    +0.142 HD
ATOM     15  H   UNL     1     -31.130  29.112   6.546  0.00  0.00    +0.142 HD
ENDBRANCH   7  13
ENDBRANCH   1   3
BRANCH   2  16
ATOM     16  C   UNL     1     -37.391  24.064   3.483  0.00  0.00    +0.018 C 
ATOM     17  C   UNL     1     -37.217  22.794   2.957  0.00  0.00    +0.113 C 
ATOM     18  C   UNL     1     -38.258  22.199   2.244  0.00  0.00    +0.033 C 
ATOM     19  C   UNL     1     -38.584  24.754   3.313  0.00  0.00    +0.003 C 
ATOM     20  C   UNL     1     -39.462  22.881   2.065  0.00  0.00    +0.043 C 
ATOM     21  C   UNL     1     -39.624  24.159   2.600  0.00  0.00    +0.014 C 
BRANCH  17  22
ATOM     22  S   UNL     1     -35.726  21.893   3.153  0.00  0.00    +0.042 S 
ATOM     23  O   UNL     1     -36.087  20.371   2.686  0.00  0.00    -0.065 OA
ATOM     24  O   UNL     1     -34.763  22.419   2.199  0.00  0.00    -0.065 OA
ATOM     25  O   UNL     1     -35.433  21.877   4.576  0.00  0.00    -0.065 OA
ENDBRANCH  17  22
BRANCH  20  26
ATOM     26  N   UNL     1     -40.514  22.280   1.345  0.00  0.00    -0.357 N 
ATOM     27  H   UNL     1     -41.388  22.139   1.775  0.00  0.00    +0.142 HD
ATOM     28  H   UNL     1     -40.373  21.999   0.412  0.00  0.00    +0.142 HD
ENDBRANCH  20  26
ENDBRANCH   2  16
TORSDOF 6
ENDMDL
MODEL 3
REMARK VINA RESULT:      -5.9      4.729      6.324
REMARK  Name = 5284378
REMARK  6 active torsions:
REMARK  status: ('A' for Active; 'I' for Inactive)
REMARK    1  A    between atoms: C_1  and  C_3
REMARK    2  A    between atoms: C_2  and  C_16
REMARK    3  A    between atoms: C_4  and  S_9
REMARK    4  A    between atoms: C_7  and  N_13
REMARK    5  A    between atoms: C_17  and  S_22
REMARK    6  A    between atoms: C_20  and  N_26
REMARK                            x       y       z     vdW  Elec       q    Type
REMARK                         _______ _______ _______ _____ _____    ______ ____
ROOT
ATOM      1  C   UNL     1     -35.548  20.575   1.750  0.00  0.00    +0.001 C 
ATOM      2  C   UNL     1     -34.658  20.606   0.733  0.00  0.00    +0.001 C 
ENDROOT
BRANCH   1   3
ATOM      3  C   UNL     1     -36.813  21.297   1.781  0.00  0.00    +0.018 C 
ATOM      4  C   UNL     1     -37.038  22.351   2.666  0.00  0.00    +0.113 C 
ATOM      5  C   UNL     1     -38.264  23.015   2.664  0.00  0.00    +0.033 C 
ATOM      6  C   UNL     1     -37.815  20.907   0.892  0.00  0.00    +0.003 C 
ATOM      7  C   UNL     1     -39.266  22.625   1.775  0.00  0.00    +0.043 C 
ATOM      8  C   UNL     1     -39.041  21.571   0.890  0.00  0.00    +0.014 C 
BRANCH   4   9
ATOM      9  S   UNL     1     -35.812  22.879   3.804  0.00  0.00    +0.042 S 
ATOM     10  O   UNL     1     -36.575  23.940   4.784  0.00  0.00    -0.065 OA
ATOM     11  O   UNL     1     -35.441  21.734   4.618  0.00  0.00    -0.065 OA
ATOM     12  O   UNL     1     -34.815  23.603   3.036  0.00  0.00    -0.065 OA
ENDBRANCH   4   9
BRANCH   7  13
ATOM     13  N   UNL     1     -40.507  23.296   1.771  0.00  0.00    -0.357 N 
ATOM     14  H   UNL     1     -41.212  23.024   1.140  0.00  0.00    +0.142 HD
ATOM     15  H   UNL     1     -40.668  24.038   2.397  0.00  0.00    +0.142 HD
ENDBRANCH   7  13
ENDBRANCH   1   3
BRANCH   2  16
ATOM     16  C   UNL     1     -33.369  19.892   0.711  0.00  0.00    +0.018 C 
ATOM     17  C   UNL     1     -32.264  20.422   0.064  0.00  0.00    +0.113 C 
ATOM     18  C   UNL     1     -31.063  19.714   0.068  0.00  0.00    +0.033 C 
ATOM     19  C   UNL     1     -33.301  18.668   1.362  0.00  0.00    +0.003 C 
ATOM     20  C   UNL     1     -30.980  18.482   0.718  0.00  0.00    +0.043 C 
ATOM     21  C   UNL     1     -32.100  17.960   1.365  0.00  0.00    +0.014 C 
BRANCH  17  22
ATOM     22  S   UNL     1     -32.314  21.965  -0.768  0.00  0.00    +0.042 S 
ATOM     23  O   UNL     1     -30.751  22.401  -0.944  0.00  0.00    -0.065 OA
ATOM     24  O   UNL     1     -32.848  21.732  -2.099  0.00  0.00    -0.065 OA
ATOM     25  O   UNL     1     -32.951  22.906   0.138  0.00  0.00    -0.065 OA
ENDBRANCH  17  22
BRANCH  20  26
ATOM     26  N   UNL     1     -29.766  17.766   0.722  0.00  0.00    -0.357 N 
ATOM     27  H   UNL     1     -29.414  17.389  -0.116  0.00  0.00    +0.142 HD
ATOM     28  H   UNL     1     -29.271  17.643   1.564  0.00  0.00    +0.142 HD
ENDBRANCH  20  26
ENDBRANCH   2  16
TORSDOF 6
ENDMDL
MODEL 4
REMARK VINA RESULT:      -5.8      4.748      7.584
REMARK  Name = 5284378
REMARK  6 active torsions:
REMARK  status: ('A' for Active; 'I' for Inactive)
REMARK    1  A    between atoms: C_1  and  C_3
REMARK    2  A    between atoms: C_2  and  C_16
REMARK    3  A    between atoms: C_4  and  S_9
REMARK    4  A    between atoms: C_7  and  N_13
REMARK    5  A    between atoms: C_17  and  S_22
REMARK    6  A    between atoms: C_20  and  N_26
REMARK                            x       y       z     vdW  Elec       q    Type
REMARK                         _______ _______ _______ _____ _____    ______ ____
ROOT
ATOM      1  C   UNL     1     -34.641  20.643   0.743  0.00  0.00    +0.001 C 
ATOM      2  C   UNL     1     -35.589  20.502   1.696  0.00  0.00    +0.001 C 
ENDROOT
BRANCH   1   3
ATOM      3  C   UNL     1     -33.372  19.927   0.709  0.00  0.00    +0.018 C 
ATOM      4  C   UNL     1     -32.271  20.415   0.005  0.00  0.00    +0.113 C 
ATOM      5  C   UNL     1     -31.075  19.698  -0.003  0.00  0.00    +0.033 C 
ATOM      6  C   UNL     1     -33.277  18.722   1.406  0.00  0.00    +0.003 C 
ATOM      7  C   UNL     1     -30.979  18.493   0.694  0.00  0.00    +0.043 C 
ATOM      8  C   UNL     1     -32.080  18.006   1.398  0.00  0.00    +0.014 C 
BRANCH   4   9
ATOM      9  S   UNL     1     -32.339  21.923  -0.887  0.00  0.00    +0.042 S 
ATOM     10  O   UNL     1     -30.799  22.209  -1.351  0.00  0.00    -0.065 OA
ATOM     11  O   UNL     1     -33.113  21.688  -2.094  0.00  0.00    -0.065 OA
ATOM     12  O   UNL     1     -32.729  22.952   0.061  0.00  0.00    -0.065 OA
ENDBRANCH   4   9
BRANCH   7  13
ATOM     13  N   UNL     1     -29.769  17.768   0.688  0.00  0.00    -0.357 N 
ATOM     14  H   UNL     1     -28.916  18.236   0.541  0.00  0.00    +0.142 HD
ATOM     15  H   UNL     1     -29.778  16.794   0.828  0.00  0.00    +0.142 HD
ENDBRANCH   7  13
ENDBRANCH   1   3
BRANCH   2  16
ATOM     16  C   UNL     1     -36.863  21.240   1.741  0.00  0.00    +0.018 C 
ATOM     17  C   UNL     1     -37.056  22.291   2.624  0.00  0.00    +0.113 C 
ATOM     18  C   UNL     1     -38.277  22.964   2.633  0.00  0.00    +0.033 C 
ATOM     19  C   UNL     1     -37.865  20.847   0.864  0.00  0.00    +0.003 C 
ATOM     20  C   UNL     1     -39.293  22.578   1.758  0.00  0.00    +0.043 C 
ATOM     21  C   UNL     1     -39.086  21.520   0.874  0.00  0.00    +0.014 C 
BRANCH  17  22
ATOM     22  S   UNL     1     -35.812  22.814   3.744  0.00  0.00    +0.042 S 
ATOM     23  O   UNL     1     -36.557  23.875   4.737  0.00  0.00    -0.065 OA
ATOM     24  O   UNL     1     -35.432  21.666   4.551  0.00  0.00    -0.065 OA
ATOM     25  O   UNL     1     -34.824  23.536   2.962  0.00  0.00    -0.065 OA
ENDBRANCH  17  22
BRANCH  20  26
ATOM     26  N   UNL     1     -40.528  23.259   1.767  0.00  0.00    -0.357 N 
ATOM     27  H   UNL     1     -40.561  24.221   1.563  0.00  0.00    +0.142 HD
ATOM     28  H   UNL     1     -41.357  22.771   1.979  0.00  0.00    +0.142 HD
ENDBRANCH  20  26
ENDBRANCH   2  16
TORSDOF 6
ENDMDL
MODEL 5
REMARK VINA RESULT:      -5.8      4.287      5.991
REMARK  Name = 5284378
REMARK  6 active torsions:
REMARK  status: ('A' for Active; 'I' for Inactive)
REMARK    1  A    between atoms: C_1  and  C_3
REMARK    2  A    between atoms: C_2  and  C_16
REMARK    3  A    between atoms: C_4  and  S_9
REMARK    4  A    between atoms: C_7  and  N_13
REMARK    5  A    between atoms: C_17  and  S_22
REMARK    6  A    between atoms: C_20  and  N_26
REMARK                            x       y       z     vdW  Elec       q    Type
REMARK                         _______ _______ _______ _____ _____    ______ ____
ROOT
ATOM      1  C   UNL     1     -35.551  22.071   2.559  0.00  0.00    +0.001 C 
ATOM      2  C   UNL     1     -35.180  21.643   1.332  0.00  0.00    +0.001 C 
ENDROOT
BRANCH   1   3
ATOM      3  C   UNL     1     -36.648  22.990   2.831  0.00  0.00    +0.018 C 
ATOM      4  C   UNL     1     -36.508  24.063   3.712  0.00  0.00    +0.113 C 
ATOM      5  C   UNL     1     -37.583  24.919   3.945  0.00  0.00    +0.033 C 
ATOM      6  C   UNL     1     -37.865  22.773   2.184  0.00  0.00    +0.003 C 
ATOM      7  C   UNL     1     -38.800  24.702   3.298  0.00  0.00    +0.043 C 
ATOM      8  C   UNL     1     -38.941  23.629   2.418  0.00  0.00    +0.014 C 
BRANCH   4   9
ATOM      9  S   UNL     1     -35.001  24.378   4.551  0.00  0.00    +0.042 S 
ATOM     10  O   UNL     1     -35.308  25.672   5.500  0.00  0.00    -0.065 OA
ATOM     11  O   UNL     1     -34.741  23.252   5.432  0.00  0.00    -0.065 OA
ATOM     12  O   UNL     1     -34.035  24.773   3.540  0.00  0.00    -0.065 OA
ENDBRANCH   4   9
BRANCH   7  13
ATOM     13  N   UNL     1     -39.889  25.568   3.533  0.00  0.00    -0.357 N 
ATOM     14  H   UNL     1     -40.388  25.513   4.380  0.00  0.00    +0.142 HD
ATOM     15  H   UNL     1     -40.151  26.227   2.850  0.00  0.00    +0.142 HD
ENDBRANCH   7  13
ENDBRANCH   1   3
BRANCH   2  16
ATOM     16  C   UNL     1     -34.058  20.729   1.055  0.00  0.00    +0.018 C 
ATOM     17  C   UNL     1     -33.029  21.091   0.199  0.00  0.00    +0.113 C 
ATOM     18  C   UNL     1     -31.985  20.196  -0.034  0.00  0.00    +0.033 C 
ATOM     19  C   UNL     1     -34.067  19.492   1.684  0.00  0.00    +0.003 C 
ATOM     20  C   UNL     1     -31.983  18.948   0.590  0.00  0.00    +0.043 C 
ATOM     21  C   UNL     1     -33.024  18.597   1.449  0.00  0.00    +0.014 C 
BRANCH  17  22
ATOM     22  S   UNL     1     -32.985  22.645  -0.610  0.00  0.00    +0.042 S 
ATOM     23  O   UNL     1     -31.516  22.711  -1.320  0.00  0.00    -0.065 OA
ATOM     24  O   UNL     1     -33.976  22.618  -1.674  0.00  0.00    -0.065 OA
ATOM     25  O   UNL     1     -33.035  23.658   0.430  0.00  0.00    -0.065 OA
ENDBRANCH  17  22
BRANCH  20  26
ATOM     26  N   UNL     1     -30.927  18.043   0.354  0.00  0.00    -0.357 N 
ATOM     27  H   UNL     1     -30.689  17.376   1.037  0.00  0.00    +0.142 HD
ATOM     28  H   UNL     1     -30.428  18.080  -0.494  0.00  0.00    +0.142 HD
ENDBRANCH  20  26
ENDBRANCH   2  16
TORSDOF 6
ENDMDL
MODEL 6
REMARK VINA RESULT:      -5.7      2.274      2.811
REMARK  Name = 5284378
REMARK  6 active torsions:
REMARK  status: ('A' for Active; 'I' for Inactive)
REMARK    1  A    between atoms: C_1  and  C_3
REMARK    2  A    between atoms: C_2  and  C_16
REMARK    3  A    between atoms: C_4  and  S_9
REMARK    4  A    between atoms: C_7  and  N_13
REMARK    5  A    between atoms: C_17  and  S_22
REMARK    6  A    between atoms: C_20  and  N_26
REMARK                            x       y       z     vdW  Elec       q    Type
REMARK                         _______ _______ _______ _____ _____    ______ ____
ROOT
ATOM      1  C   UNL     1     -35.234  23.522   3.736  0.00  0.00    +0.001 C 
ATOM      2  C   UNL     1     -34.457  24.506   3.230  0.00  0.00    +0.001 C 
ENDROOT
BRANCH   1   3
ATOM      3  C   UNL     1     -35.848  22.455   2.958  0.00  0.00    +0.018 C 
ATOM      4  C   UNL     1     -37.136  22.574   2.435  0.00  0.00    +0.113 C 
ATOM      5  C   UNL     1     -37.689  21.528   1.696  0.00  0.00    +0.033 C 
ATOM      6  C   UNL     1     -35.113  21.289   2.742  0.00  0.00    +0.003 C 
ATOM      7  C   UNL     1     -36.953  20.362   1.480  0.00  0.00    +0.043 C 
ATOM      8  C   UNL     1     -35.666  20.243   2.003  0.00  0.00    +0.014 C 
BRANCH   4   9
ATOM      9  S   UNL     1     -38.102  24.017   2.679  0.00  0.00    +0.042 S 
ATOM     10  O   UNL     1     -39.641  23.547   2.397  0.00  0.00    -0.065 OA
ATOM     11  O   UNL     1     -38.014  24.376   4.084  0.00  0.00    -0.065 OA
ATOM     12  O   UNL     1     -37.716  24.957   1.641  0.00  0.00    -0.065 OA
ENDBRANCH   4   9
BRANCH   7  13
ATOM     13  N   UNL     1     -37.511  19.304   0.732  0.00  0.00    -0.357 N 
ATOM     14  H   UNL     1     -38.451  19.045   0.870  0.00  0.00    +0.142 HD
ATOM     15  H   UNL     1     -36.960  18.823   0.073  0.00  0.00    +0.142 HD
ENDBRANCH   7  13
ENDBRANCH   1   3
BRANCH   2  16
ATOM     16  C   UNL     1     -33.851  25.596   4.014  0.00  0.00    +0.018 C 
ATOM     17  C   UNL     1     -33.087  26.581   3.407  0.00  0.00    +0.113 C 
ATOM     18  C   UNL     1     -32.532  27.596   4.186  0.00  0.00    +0.033 C 
ATOM     19  C   UNL     1     -34.074  25.604   5.384  0.00  0.00    +0.003 C 
ATOM     20  C   UNL     1     -32.748  27.615   5.564  0.00  0.00    +0.043 C 
ATOM     21  C   UNL     1     -33.519  26.618   6.163  0.00  0.00    +0.014 C 
BRANCH  17  22
ATOM     22  S   UNL     1     -32.786  26.603   1.680  0.00  0.00    +0.042 S 
ATOM     23  O   UNL     1     -31.954  27.983   1.413  0.00  0.00    -0.065 OA
ATOM     24  O   UNL     1     -31.893  25.497   1.373  0.00  0.00    -0.065 OA
ATOM     25  O   UNL     1     -34.081  26.718   1.033  0.00  0.00    -0.065 OA
ENDBRANCH  17  22
BRANCH  20  26
ATOM     26  N   UNL     1     -32.187  28.641   6.353  0.00  0.00    -0.357 N 
ATOM     27  H   UNL     1     -31.284  28.977   6.153  0.00  0.00    +0.142 HD
ATOM     28  H   UNL     1     -32.699  29.020   7.103  0.00  0.00    +0.142 HD
ENDBRANCH  20  26
ENDBRANCH   2  16
TORSDOF 6
ENDMDL
MODEL 7
REMARK VINA RESULT:      -5.6      2.212      7.107
REMARK  Name = 5284378
REMARK  6 active torsions:
REMARK  status: ('A' for Active; 'I' for Inactive)
REMARK    1  A    between atoms: C_1  and  C_3
REMARK    2  A    between atoms: C_2  and  C_16
REMARK    3  A    between atoms: C_4  and  S_9
REMARK    4  A    between atoms: C_7  and  N_13
REMARK    5  A    between atoms: C_17  and  S_22
REMARK    6  A    between atoms: C_20  and  N_26
REMARK                            x       y       z     vdW  Elec       q    Type
REMARK                         _______ _______ _______ _____ _____    ______ ____
ROOT
ATOM      1  C   UNL     1     -34.536  24.577   3.460  0.00  0.00    +0.001 C 
ATOM      2  C   UNL     1     -35.403  23.640   3.904  0.00  0.00    +0.001 C 
ENDROOT
BRANCH   1   3
ATOM      3  C   UNL     1     -33.920  25.608   4.285  0.00  0.00    +0.018 C 
ATOM      4  C   UNL     1     -33.196  26.661   3.726  0.00  0.00    +0.113 C 
ATOM      5  C   UNL     1     -32.621  27.627   4.552  0.00  0.00    +0.033 C 
ATOM      6  C   UNL     1     -34.069  25.520   5.669  0.00  0.00    +0.003 C 
ATOM      7  C   UNL     1     -32.770  27.539   5.936  0.00  0.00    +0.043 C 
ATOM      8  C   UNL     1     -33.494  26.486   6.494  0.00  0.00    +0.014 C 
BRANCH   4   9
ATOM      9  S   UNL     1     -32.978  26.816   1.993  0.00  0.00    +0.042 S 
ATOM     10  O   UNL     1     -32.099  28.179   1.799  0.00  0.00    -0.065 OA
ATOM     11  O   UNL     1     -32.151  25.706   1.551  0.00  0.00    -0.065 OA
ATOM     12  O   UNL     1     -34.296  27.038   1.426  0.00  0.00    -0.065 OA
ENDBRANCH   4   9
BRANCH   7  13
ATOM     13  N   UNL     1     -32.189  28.516   6.772  0.00  0.00    -0.357 N 
ATOM     14  H   UNL     1     -31.928  29.390   6.400  0.00  0.00    +0.142 HD
ATOM     15  H   UNL     1     -32.044  28.325   7.726  0.00  0.00    +0.142 HD
ENDBRANCH   7  13
ENDBRANCH   1   3
BRANCH   2  16
ATOM     16  C   UNL     1     -36.042  22.609   3.066  0.00  0.00    +0.018 C 
ATOM     17  C   UNL     1     -37.265  22.836   2.454  0.00  0.00    +0.113 C 
ATOM     18  C   UNL     1     -37.834  21.834   1.668  0.00  0.00    +0.033 C 
ATOM     19  C   UNL     1     -35.373  21.403   2.909  0.00  0.00    +0.003 C 
ATOM     20  C   UNL     1     -37.173  20.617   1.503  0.00  0.00    +0.043 C 
ATOM     21  C   UNL     1     -35.943  20.402   2.124  0.00  0.00    +0.014 C 
BRANCH  17  22
ATOM     22  S   UNL     1     -38.136  24.347   2.630  0.00  0.00    +0.042 S 
ATOM     23  O   UNL     1     -39.630  24.044   2.044  0.00  0.00    -0.065 OA
ATOM     24  O   UNL     1     -38.279  24.612   4.052  0.00  0.00    -0.065 OA
ATOM     25  O   UNL     1     -37.487  25.306   1.753  0.00  0.00    -0.065 OA
ENDBRANCH  17  22
BRANCH  20  26
ATOM     26  N   UNL     1     -37.748  19.603   0.708  0.00  0.00    -0.357 N 
ATOM     27  H   UNL     1     -38.494  19.067   1.059  0.00  0.00    +0.142 HD
ATOM     28  H   UNL     1     -37.402  19.434  -0.198  0.00  0.00    +0.142 HD
ENDBRANCH  20  26
ENDBRANCH   2  16
TORSDOF 6
ENDMDL
MODEL 8
REMARK VINA RESULT:      -5.6      3.312      6.871
REMARK  Name = 5284378
REMARK  6 active torsions:
REMARK  status: ('A' for Active; 'I' for Inactive)
REMARK    1  A    between atoms: C_1  and  C_3
REMARK    2  A    between atoms: C_2  and  C_16
REMARK    3  A    between atoms: C_4  and  S_9
REMARK    4  A    between atoms: C_7  and  N_13
REMARK    5  A    between atoms: C_17  and  S_22
REMARK    6  A    between atoms: C_20  and  N_26
REMARK                            x       y       z     vdW  Elec       q    Type
REMARK                         _______ _______ _______ _____ _____    ______ ____
ROOT
ATOM      1  C   UNL     1     -34.234  27.087   3.579  0.00  0.00    +0.001 C 
ATOM      2  C   UNL     1     -35.309  26.477   4.127  0.00  0.00    +0.001 C 
ENDROOT
BRANCH   1   3
ATOM      3  C   UNL     1     -34.161  28.498   3.225  0.00  0.00    +0.018 C 
ATOM      4  C   UNL     1     -33.133  29.320   3.688  0.00  0.00    +0.113 C 
ATOM      5  C   UNL     1     -33.100  30.667   3.327  0.00  0.00    +0.033 C 
ATOM      6  C   UNL     1     -35.156  29.023   2.400  0.00  0.00    +0.003 C 
ATOM      7  C   UNL     1     -34.095  31.191   2.502  0.00  0.00    +0.043 C 
ATOM      8  C   UNL     1     -35.123  30.370   2.039  0.00  0.00    +0.014 C 
BRANCH   4   9
ATOM      9  S   UNL     1     -31.860  28.710   4.728  0.00  0.00    +0.042 S 
ATOM     10  O   UNL     1     -30.893  29.996   5.010  0.00  0.00    -0.065 OA
ATOM     11  O   UNL     1     -32.464  28.341   5.997  0.00  0.00    -0.065 OA
ATOM     12  O   UNL     1     -31.112  27.740   3.947  0.00  0.00    -0.065 OA
ENDBRANCH   4   9
BRANCH   7  13
ATOM     13  N   UNL     1     -34.063  32.553   2.135  0.00  0.00    -0.357 N 
ATOM     14  H   UNL     1     -33.845  32.808   1.209  0.00  0.00    +0.142 HD
ATOM     15  H   UNL     1     -34.255  33.249   2.803  0.00  0.00    +0.142 HD
ENDBRANCH   7  13
ENDBRANCH   1   3
BRANCH   2  16
ATOM     16  C   UNL     1     -35.390  25.045   4.467  0.00  0.00    +0.018 C 
ATOM     17  C   UNL     1     -36.141  24.166   3.703  0.00  0.00    +0.113 C 
ATOM     18  C   UNL     1     -36.190  22.818   4.059  0.00  0.00    +0.033 C 
ATOM     19  C   UNL     1     -34.685  24.607   5.580  0.00  0.00    +0.003 C 
ATOM     20  C   UNL     1     -35.487  22.365   5.176  0.00  0.00    +0.043 C 
ATOM     21  C   UNL     1     -34.735  23.260   5.936  0.00  0.00    +0.014 C 
BRANCH  17  22
ATOM     22  S   UNL     1     -37.042  24.684   2.291  0.00  0.00    +0.042 S 
ATOM     23  O   UNL     1     -37.893  23.370   1.827  0.00  0.00    -0.065 OA
ATOM     24  O   UNL     1     -38.002  25.686   2.723  0.00  0.00    -0.065 OA
ATOM     25  O   UNL     1     -36.064  24.983   1.259  0.00  0.00    -0.065 OA
ENDBRANCH  17  22
BRANCH  20  26
ATOM     26  N   UNL     1     -35.536  21.002   5.535  0.00  0.00    -0.357 N 
ATOM     27  H   UNL     1     -34.703  20.489   5.633  0.00  0.00    +0.142 HD
ATOM     28  H   UNL     1     -36.405  20.565   5.688  0.00  0.00    +0.142 HD
ENDBRANCH  20  26
ENDBRANCH   2  16
TORSDOF 6
ENDMDL
MODEL 9
REMARK VINA RESULT:      -5.6      3.431      6.980
REMARK  Name = 5284378
REMARK  6 active torsions:
REMARK  status: ('A' for Active; 'I' for Inactive)
REMARK    1  A    between atoms: C_1  and  C_3
REMARK    2  A    between atoms: C_2  and  C_16
REMARK    3  A    between atoms: C_4  and  S_9
REMARK    4  A    between atoms: C_7  and  N_13
REMARK    5  A    between atoms: C_17  and  S_22
REMARK    6  A    between atoms: C_20  and  N_26
REMARK                            x       y       z     vdW  Elec       q    Type
REMARK                         _______ _______ _______ _____ _____    ______ ____
ROOT
ATOM      1  C   UNL     1     -35.465  26.091   2.048  0.00  0.00    +0.001 C 
ATOM      2  C   UNL     1     -36.487  25.354   2.537  0.00  0.00    +0.001 C 
ENDROOT
BRANCH   1   3
ATOM      3  C   UNL     1     -35.368  27.542   2.121  0.00  0.00    +0.018 C 
ATOM      4  C   UNL     1     -34.535  28.178   3.042  0.00  0.00    +0.113 C 
ATOM      5  C   UNL     1     -34.472  29.571   3.081  0.00  0.00    +0.033 C 
ATOM      6  C   UNL     1     -36.138  28.300   1.239  0.00  0.00    +0.003 C 
ATOM      7  C   UNL     1     -35.242  30.328   2.198  0.00  0.00    +0.043 C 
ATOM      8  C   UNL     1     -36.075  29.692   1.277  0.00  0.00    +0.014 C 
BRANCH   4   9
ATOM      9  S   UNL     1     -33.548  27.273   4.174  0.00  0.00    +0.042 S 
ATOM     10  O   UNL     1     -32.707  28.404   4.999  0.00  0.00    -0.065 OA
ATOM     11  O   UNL     1     -34.441  26.627   5.121  0.00  0.00    -0.065 OA
ATOM     12  O   UNL     1     -32.611  26.496   3.381  0.00  0.00    -0.065 OA
ENDBRANCH   4   9
BRANCH   7  13
ATOM     13  N   UNL     1     -35.179  31.737   2.234  0.00  0.00    -0.357 N 
ATOM     14  H   UNL     1     -34.367  32.202   1.926  0.00  0.00    +0.142 HD
ATOM     15  H   UNL     1     -35.944  32.256   2.570  0.00  0.00    +0.142 HD
ENDBRANCH   7  13
ENDBRANCH   1   3
BRANCH   2  16
ATOM     16  C   UNL     1     -36.594  23.886   2.446  0.00  0.00    +0.018 C 
ATOM     17  C   UNL     1     -37.826  23.261   2.332  0.00  0.00    +0.113 C 
ATOM     18  C   UNL     1     -37.883  21.870   2.246  0.00  0.00    +0.033 C 
ATOM     19  C   UNL     1     -35.417  23.152   2.476  0.00  0.00    +0.003 C 
ATOM     20  C   UNL     1     -36.707  21.120   2.277  0.00  0.00    +0.043 C 
ATOM     21  C   UNL     1     -35.475  21.762   2.391  0.00  0.00    +0.014 C 
BRANCH  17  22
ATOM     22  S   UNL     1     -39.333  24.157   2.289  0.00  0.00    +0.042 S 
ATOM     23  O   UNL     1     -40.470  23.052   1.899  0.00  0.00    -0.065 OA
ATOM     24  O   UNL     1     -39.618  24.607   3.642  0.00  0.00    -0.065 OA
ATOM     25  O   UNL     1     -39.223  25.106   1.195  0.00  0.00    -0.065 OA
ENDBRANCH  17  22
BRANCH  20  26
ATOM     26  N   UNL     1     -36.765  19.713   2.191  0.00  0.00    -0.357 N 
ATOM     27  H   UNL     1     -37.453  19.218   2.690  0.00  0.00    +0.142 HD
ATOM     28  H   UNL     1     -36.116  19.228   1.631  0.00  0.00    +0.142 HD
ENDBRANCH  20  26
ENDBRANCH   2  16
TORSDOF 6
ENDMDL
