MODEL 1
REMARK VINA RESULT:      -6.6      0.000      0.000
REMARK  Name = 6091659
REMARK  8 active torsions:
REMARK  status: ('A' for Active; 'I' for Inactive)
REMARK    1  A    between atoms: C_1  and  C_20
REMARK    2  A    between atoms: C_2  and  O_9
REMARK    3  A    between atoms: C_4  and  C_11
REMARK    4  A    between atoms: C_5  and  O_7
REMARK    5  A    between atoms: C_12  and  C_15
REMARK    6  A    between atoms: C_12  and  C_19
REMARK    7  A    between atoms: C_20  and  S_21
REMARK    8  A    between atoms: S_21  and  C_26
REMARK                            x       y       z     vdW  Elec       q    Type
REMARK                         _______ _______ _______ _____ _____    ______ ____
ROOT
ATOM      1  C   UNL     1     -35.762  20.890   1.921  0.00  0.00    +0.026 C 
ATOM      2  C   UNL     1     -37.086  20.617   1.598  0.00  0.00    +0.164 C 
ATOM      3  C   UNL     1     -35.422  22.055   2.598  0.00  0.00    -0.000 C 
ATOM      4  C   UNL     1     -36.421  22.961   2.957  0.00  0.00    +0.004 C 
ATOM      5  C   UNL     1     -38.084  21.521   1.957  0.00  0.00    +0.172 C 
ATOM      6  C   UNL     1     -37.752  22.694   2.637  0.00  0.00    +0.040 C 
ENDROOT
BRANCH   5   7
ATOM      7  O   UNL     1     -39.389  21.272   1.651  0.00  0.00    -0.468 OA
ATOM      8  C   UNL     1     -39.948  22.000   0.561  0.00  0.00    +0.253 C 
ENDBRANCH   5   7
BRANCH   2   9
ATOM      9  O   UNL     1     -37.414  19.471   0.934  0.00  0.00    -0.503 OA
ATOM     10  H   UNL     1     -38.289  19.341   0.627  0.00  0.00    +0.292 HD
ENDBRANCH   2   9
BRANCH   4  11
ATOM     11  C   UNL     1     -36.077  24.183   3.665  0.00  0.00    +0.015 C 
ATOM     12  C   UNL     1     -35.725  24.279   4.973  0.00  0.00    +0.121 C 
BRANCH  12  15
ATOM     13  O   UNL     1     -34.357  25.916   6.076  0.00  0.00    -0.270 OA
ATOM     14  N   UNL     1     -36.395  26.592   5.295  0.00  0.00    -0.325 N 
ATOM     15  C   UNL     1     -35.411  25.651   5.501  0.00  0.00    +0.252 C 
ATOM     16  H   UNL     1     -36.267  27.516   5.611  0.00  0.00    +0.145 HD
ATOM     17  H   UNL     1     -37.227  26.341   4.832  0.00  0.00    +0.145 HD
ENDBRANCH  12  15
BRANCH  12  19
ATOM     18  N   UNL     1     -35.641  22.194   6.503  0.00  0.00    -0.191 NA
ATOM     19  C   UNL     1     -35.676  23.129   5.816  0.00  0.00    +0.105 C 
ENDBRANCH  12  19
ENDBRANCH   4  11
BRANCH   1  20
ATOM     20  C   UNL     1     -34.672  19.926   1.542  0.00  0.00    +0.094 C 
BRANCH  20  21
ATOM     21  S   UNL     1     -33.927  20.333  -0.059  0.00  0.00    -0.071 S 
BRANCH  21  26
ATOM     22  S   UNL     1     -32.082  18.186   1.029  0.00  0.00    -0.065 S 
ATOM     23  N   UNL     1     -31.278  20.174  -0.404  0.00  0.00    -0.392 NA
ATOM     24  C   UNL     1     -30.396  18.283   0.680  0.00  0.00    +0.129 C 
ATOM     25  C   UNL     1     -30.155  19.417  -0.101  0.00  0.00    +0.124 C 
ATOM     26  C   UNL     1     -32.339  19.622   0.135  0.00  0.00    +0.183 C 
ATOM     27  C   UNL     1     -29.362  17.416   1.068  0.00  0.00    -0.008 C 
ATOM     28  C   UNL     1     -28.831  19.692  -0.504  0.00  0.00    +0.029 C 
ATOM     29  C   UNL     1     -28.061  17.712   0.655  0.00  0.00    -0.003 C 
ATOM     30  C   UNL     1     -27.796  18.834  -0.122  0.00  0.00    +0.002 C 
ENDBRANCH  21  26
ENDBRANCH  20  21
ENDBRANCH   1  20
TORSDOF 8
ENDMDL
MODEL 2
REMARK VINA RESULT:      -6.6      4.567      8.306
REMARK  Name = 6091659
REMARK  8 active torsions:
REMARK  status: ('A' for Active; 'I' for Inactive)
REMARK    1  A    between atoms: C_1  and  C_20
REMARK    2  A    between atoms: C_2  and  O_9
REMARK    3  A    between atoms: C_4  and  C_11
REMARK    4  A    between atoms: C_5  and  O_7
REMARK    5  A    between atoms: C_12  and  C_15
REMARK    6  A    between atoms: C_12  and  C_19
REMARK    7  A    between atoms: C_20  and  S_21
REMARK    8  A    between atoms: S_21  and  C_26
REMARK                            x       y       z     vdW  Elec       q    Type
REMARK                         _______ _______ _______ _____ _____    ______ ____
ROOT
ATOM      1  C   UNL     1     -35.056  24.555   2.548  0.00  0.00    +0.026 C 
ATOM      2  C   UNL     1     -35.316  24.518   3.913  0.00  0.00    +0.164 C 
ATOM      3  C   UNL     1     -35.075  23.391   1.789  0.00  0.00    -0.000 C 
ATOM      4  C   UNL     1     -35.358  22.171   2.404  0.00  0.00    +0.004 C 
ATOM      5  C   UNL     1     -35.600  23.299   4.527  0.00  0.00    +0.172 C 
ATOM      6  C   UNL     1     -35.620  22.125   3.773  0.00  0.00    +0.040 C 
ENDROOT
BRANCH   5   7
ATOM      7  O   UNL     1     -35.858  23.239   5.864  0.00  0.00    -0.468 OA
ATOM      8  C   UNL     1     -35.440  22.064   6.553  0.00  0.00    +0.253 C 
ENDBRANCH   5   7
BRANCH   2   9
ATOM      9  O   UNL     1     -35.297  25.663   4.653  0.00  0.00    -0.503 OA
ATOM     10  H   UNL     1     -35.934  26.331   4.499  0.00  0.00    +0.292 HD
ENDBRANCH   2   9
BRANCH   4  11
ATOM     11  C   UNL     1     -35.379  20.947   1.619  0.00  0.00    +0.015 C 
ATOM     12  C   UNL     1     -36.480  20.356   1.089  0.00  0.00    +0.121 C 
BRANCH  12  15
ATOM     13  O   UNL     1     -35.254  18.871  -0.347  0.00  0.00    -0.270 OA
ATOM     14  N   UNL     1     -37.303  18.180   0.389  0.00  0.00    -0.325 N 
ATOM     15  C   UNL     1     -36.270  19.086   0.312  0.00  0.00    +0.252 C 
ATOM     16  H   UNL     1     -37.244  17.322  -0.092  0.00  0.00    +0.145 HD
ATOM     17  H   UNL     1     -38.103  18.388   0.925  0.00  0.00    +0.145 HD
ENDBRANCH  12  15
BRANCH  12  19
ATOM     18  N   UNL     1     -38.842  21.354   1.433  0.00  0.00    -0.191 NA
ATOM     19  C   UNL     1     -37.783  20.904   1.278  0.00  0.00    +0.105 C 
ENDBRANCH  12  19
ENDBRANCH   4  11
BRANCH   1  20
ATOM     20  C   UNL     1     -34.748  25.861   1.868  0.00  0.00    +0.094 C 
BRANCH  20  21
ATOM     21  S   UNL     1     -32.968  26.113   1.647  0.00  0.00    -0.071 S 
BRANCH  21  26
ATOM     22  S   UNL     1     -32.591  28.996   2.509  0.00  0.00    -0.065 S 
ATOM     23  N   UNL     1     -32.470  26.990   4.125  0.00  0.00    -0.392 NA
ATOM     24  C   UNL     1     -32.277  29.333   4.170  0.00  0.00    +0.129 C 
ATOM     25  C   UNL     1     -32.248  28.131   4.883  0.00  0.00    +0.124 C 
ATOM     26  C   UNL     1     -32.661  27.326   2.871  0.00  0.00    +0.183 C 
ATOM     27  C   UNL     1     -32.072  30.573   4.797  0.00  0.00    -0.008 C 
ATOM     28  C   UNL     1     -32.004  28.174   6.273  0.00  0.00    +0.029 C 
ATOM     29  C   UNL     1     -31.832  30.586   6.173  0.00  0.00    -0.003 C 
ATOM     30  C   UNL     1     -31.799  29.404   6.904  0.00  0.00    +0.002 C 
ENDBRANCH  21  26
ENDBRANCH  20  21
ENDBRANCH   1  20
TORSDOF 8
ENDMDL
MODEL 3
REMARK VINA RESULT:      -6.4      2.812      4.250
REMARK  Name = 6091659
REMARK  8 active torsions:
REMARK  status: ('A' for Active; 'I' for Inactive)
REMARK    1  A    between atoms: C_1  and  C_20
REMARK    2  A    between atoms: C_2  and  O_9
REMARK    3  A    between atoms: C_4  and  C_11
REMARK    4  A    between atoms: C_5  and  O_7
REMARK    5  A    between atoms: C_12  and  C_15
REMARK    6  A    between atoms: C_12  and  C_19
REMARK    7  A    between atoms: C_20  and  S_21
REMARK    8  A    between atoms: S_21  and  C_26
REMARK                            x       y       z     vdW  Elec       q    Type
REMARK                         _______ _______ _______ _____ _____    ______ ____
ROOT
ATOM      1  C   UNL     1     -36.107  23.866   2.222  0.00  0.00    +0.026 C 
ATOM      2  C   UNL     1     -36.272  23.046   3.331  0.00  0.00    +0.164 C 
ATOM      3  C   UNL     1     -35.613  25.158   2.360  0.00  0.00    -0.000 C 
ATOM      4  C   UNL     1     -35.280  25.637   3.627  0.00  0.00    +0.004 C 
ATOM      5  C   UNL     1     -35.939  23.524   4.598  0.00  0.00    +0.172 C 
ATOM      6  C   UNL     1     -35.443  24.820   4.746  0.00  0.00    +0.040 C 
ENDROOT
BRANCH   5   7
ATOM      7  O   UNL     1     -36.092  22.737   5.699  0.00  0.00    -0.468 OA
ATOM      8  C   UNL     1     -34.973  21.944   6.090  0.00  0.00    +0.253 C 
ENDBRANCH   5   7
BRANCH   2   9
ATOM      9  O   UNL     1     -36.756  21.779   3.190  0.00  0.00    -0.503 OA
ATOM     10  H   UNL     1     -36.333  21.178   2.610  0.00  0.00    +0.292 HD
ENDBRANCH   2   9
BRANCH   4  11
ATOM     11  C   UNL     1     -34.764  26.987   3.783  0.00  0.00    +0.015 C 
ATOM     12  C   UNL     1     -33.518  27.411   3.451  0.00  0.00    +0.121 C 
BRANCH  12  15
ATOM     13  O   UNL     1     -32.108  29.228   4.142  0.00  0.00    -0.270 OA
ATOM     14  N   UNL     1     -34.210  29.740   3.408  0.00  0.00    -0.325 N 
ATOM     15  C   UNL     1     -33.195  28.858   3.703  0.00  0.00    +0.252 C 
ATOM     16  H   UNL     1     -34.079  30.706   3.545  0.00  0.00    +0.145 HD
ATOM     17  H   UNL     1     -35.069  29.405   3.059  0.00  0.00    +0.145 HD
ENDBRANCH  12  15
BRANCH  12  19
ATOM     18  N   UNL     1     -31.758  25.793   2.462  0.00  0.00    -0.191 NA
ATOM     19  C   UNL     1     -32.550  26.518   2.904  0.00  0.00    +0.105 C 
ENDBRANCH  12  19
ENDBRANCH   4  11
BRANCH   1  20
ATOM     20  C   UNL     1     -36.461  23.367   0.848  0.00  0.00    +0.094 C 
BRANCH  20  21
ATOM     21  S   UNL     1     -35.128  23.652  -0.346  0.00  0.00    -0.071 S 
BRANCH  21  26
ATOM     22  S   UNL     1     -32.531  22.117  -0.656  0.00  0.00    -0.065 S 
ATOM     23  N   UNL     1     -34.564  21.239   0.666  0.00  0.00    -0.392 NA
ATOM     24  C   UNL     1     -32.387  20.567   0.087  0.00  0.00    +0.129 C 
ATOM     25  C   UNL     1     -33.579  20.266   0.751  0.00  0.00    +0.124 C 
ATOM     26  C   UNL     1     -34.124  22.250  -0.046  0.00  0.00    +0.183 C 
ATOM     27  C   UNL     1     -31.296  19.684   0.082  0.00  0.00    -0.008 C 
ATOM     28  C   UNL     1     -33.681  19.035   1.434  0.00  0.00    +0.029 C 
ATOM     29  C   UNL     1     -31.424  18.472   0.765  0.00  0.00    -0.003 C 
ATOM     30  C   UNL     1     -32.600  18.150   1.434  0.00  0.00    +0.002 C 
ENDBRANCH  21  26
ENDBRANCH  20  21
ENDBRANCH   1  20
TORSDOF 8
ENDMDL
MODEL 4
REMARK VINA RESULT:      -6.4      1.586      2.184
REMARK  Name = 6091659
REMARK  8 active torsions:
REMARK  status: ('A' for Active; 'I' for Inactive)
REMARK    1  A    between atoms: C_1  and  C_20
REMARK    2  A    between atoms: C_2  and  O_9
REMARK    3  A    between atoms: C_4  and  C_11
REMARK    4  A    between atoms: C_5  and  O_7
REMARK    5  A    between atoms: C_12  and  C_15
REMARK    6  A    between atoms: C_12  and  C_19
REMARK    7  A    between atoms: C_20  and  S_21
REMARK    8  A    between atoms: S_21  and  C_26
REMARK                            x       y       z     vdW  Elec       q    Type
REMARK                         _______ _______ _______ _____ _____    ______ ____
ROOT
ATOM      1  C   UNL     1     -37.199  21.238   1.858  0.00  0.00    +0.026 C 
ATOM      2  C   UNL     1     -38.547  21.572   1.803  0.00  0.00    +0.164 C 
ATOM      3  C   UNL     1     -36.265  22.133   2.365  0.00  0.00    -0.000 C 
ATOM      4  C   UNL     1     -36.685  23.382   2.823  0.00  0.00    +0.004 C 
ATOM      5  C   UNL     1     -38.967  22.820   2.261  0.00  0.00    +0.172 C 
ATOM      6  C   UNL     1     -38.036  23.726   2.771  0.00  0.00    +0.040 C 
ENDROOT
BRANCH   5   7
ATOM      7  O   UNL     1     -40.284  23.168   2.217  0.00  0.00    -0.468 OA
ATOM      8  C   UNL     1     -40.622  24.329   1.463  0.00  0.00    +0.253 C 
ENDBRANCH   5   7
BRANCH   2   9
ATOM      9  O   UNL     1     -39.459  20.689   1.305  0.00  0.00    -0.503 OA
ATOM     10  H   UNL     1     -39.191  20.030   0.696  0.00  0.00    +0.292 HD
ENDBRANCH   2   9
BRANCH   4  11
ATOM     11  C   UNL     1     -35.716  24.327   3.355  0.00  0.00    +0.015 C 
ATOM     12  C   UNL     1     -35.143  24.280   4.584  0.00  0.00    +0.121 C 
BRANCH  12  15
ATOM     13  O   UNL     1     -33.082  25.492   4.359  0.00  0.00    -0.270 OA
ATOM     14  N   UNL     1     -34.571  26.218   5.933  0.00  0.00    -0.325 N 
ATOM     15  C   UNL     1     -34.165  25.368   4.928  0.00  0.00    +0.252 C 
ATOM     16  H   UNL     1     -33.987  26.958   6.218  0.00  0.00    +0.145 HD
ATOM     17  H   UNL     1     -35.445  26.086   6.367  0.00  0.00    +0.145 HD
ENDBRANCH  12  15
BRANCH  12  19
ATOM     18  N   UNL     1     -35.735  22.417   6.281  0.00  0.00    -0.191 NA
ATOM     19  C   UNL     1     -35.471  23.253   5.519  0.00  0.00    +0.105 C 
ENDBRANCH  12  19
ENDBRANCH   4  11
BRANCH   1  20
ATOM     20  C   UNL     1     -36.727  19.896   1.368  0.00  0.00    +0.094 C 
BRANCH  20  21
ATOM     21  S   UNL     1     -36.260  19.934  -0.382  0.00  0.00    -0.071 S 
BRANCH  21  26
ATOM     22  S   UNL     1     -33.400  20.641  -1.103  0.00  0.00    -0.065 S 
ATOM     23  N   UNL     1     -34.040  18.722   0.496  0.00  0.00    -0.392 NA
ATOM     24  C   UNL     1     -32.116  19.719  -0.414  0.00  0.00    +0.129 C 
ATOM     25  C   UNL     1     -32.656  18.734   0.417  0.00  0.00    +0.124 C 
ATOM     26  C   UNL     1     -34.532  19.677  -0.258  0.00  0.00    +0.183 C 
ATOM     27  C   UNL     1     -30.731  19.860  -0.597  0.00  0.00    -0.008 C 
ATOM     28  C   UNL     1     -31.775  17.858   1.088  0.00  0.00    +0.029 C 
ATOM     29  C   UNL     1     -29.882  18.979   0.079  0.00  0.00    -0.003 C 
ATOM     30  C   UNL     1     -30.395  17.991   0.912  0.00  0.00    +0.002 C 
ENDBRANCH  21  26
ENDBRANCH  20  21
ENDBRANCH   1  20
TORSDOF 8
ENDMDL
MODEL 5
REMARK VINA RESULT:      -6.4      5.363      7.772
REMARK  Name = 6091659
REMARK  8 active torsions:
REMARK  status: ('A' for Active; 'I' for Inactive)
REMARK    1  A    between atoms: C_1  and  C_20
REMARK    2  A    between atoms: C_2  and  O_9
REMARK    3  A    between atoms: C_4  and  C_11
REMARK    4  A    between atoms: C_5  and  O_7
REMARK    5  A    between atoms: C_12  and  C_15
REMARK    6  A    between atoms: C_12  and  C_19
REMARK    7  A    between atoms: C_20  and  S_21
REMARK    8  A    between atoms: S_21  and  C_26
REMARK                            x       y       z     vdW  Elec       q    Type
REMARK                         _______ _______ _______ _____ _____    ______ ____
ROOT
ATOM      1  C   UNL     1     -35.997  26.431   1.574  0.00  0.00    +0.026 C 
ATOM      2  C   UNL     1     -37.295  26.907   1.712  0.00  0.00    +0.164 C 
ATOM      3  C   UNL     1     -35.627  25.208   2.122  0.00  0.00    -0.000 C 
ATOM      4  C   UNL     1     -36.569  24.452   2.819  0.00  0.00    +0.004 C 
ATOM      5  C   UNL     1     -38.237  26.151   2.408  0.00  0.00    +0.172 C 
ATOM      6  C   UNL     1     -37.874  24.923   2.962  0.00  0.00    +0.040 C 
ENDROOT
BRANCH   5   7
ATOM      7  O   UNL     1     -39.515  26.599   2.555  0.00  0.00    -0.468 OA
ATOM      8  C   UNL     1     -40.537  25.614   2.679  0.00  0.00    +0.253 C 
ENDBRANCH   5   7
BRANCH   2   9
ATOM      9  O   UNL     1     -37.653  28.107   1.171  0.00  0.00    -0.503 OA
ATOM     10  H   UNL     1     -37.279  28.386   0.359  0.00  0.00    +0.292 HD
ENDBRANCH   2   9
BRANCH   4  11
ATOM     11  C   UNL     1     -36.192  23.172   3.398  0.00  0.00    +0.015 C 
ATOM     12  C   UNL     1     -35.426  22.988   4.503  0.00  0.00    +0.121 C 
BRANCH  12  15
ATOM     13  O   UNL     1     -35.229  20.621   4.144  0.00  0.00    -0.270 OA
ATOM     14  N   UNL     1     -34.828  21.410   6.251  0.00  0.00    -0.325 N 
ATOM     15  C   UNL     1     -35.158  21.570   4.924  0.00  0.00    +0.252 C 
ATOM     16  H   UNL     1     -34.638  20.511   6.607  0.00  0.00    +0.145 HD
ATOM     17  H   UNL     1     -34.783  22.194   6.845  0.00  0.00    +0.145 HD
ENDBRANCH  12  15
BRANCH  12  19
ATOM     18  N   UNL     1     -34.439  24.992   5.808  0.00  0.00    -0.191 NA
ATOM     19  C   UNL     1     -34.879  24.092   5.222  0.00  0.00    +0.105 C 
ENDBRANCH  12  19
ENDBRANCH   4  11
BRANCH   1  20
ATOM     20  C   UNL     1     -34.968  27.232   0.825  0.00  0.00    +0.094 C 
BRANCH  20  21
ATOM     21  S   UNL     1     -33.280  26.679   1.183  0.00  0.00    -0.071 S 
BRANCH  21  26
ATOM     22  S   UNL     1     -32.846  29.399   2.453  0.00  0.00    -0.065 S 
ATOM     23  N   UNL     1     -32.624  27.170   3.730  0.00  0.00    -0.392 NA
ATOM     24  C   UNL     1     -32.426  29.479   4.123  0.00  0.00    +0.129 C 
ATOM     25  C   UNL     1     -32.354  28.182   4.639  0.00  0.00    +0.124 C 
ATOM     26  C   UNL     1     -32.894  27.692   2.558  0.00  0.00    +0.183 C 
ATOM     27  C   UNL     1     -32.180  30.610   4.919  0.00  0.00    -0.008 C 
ATOM     28  C   UNL     1     -32.022  28.014   6.001  0.00  0.00    +0.029 C 
ATOM     29  C   UNL     1     -31.853  30.414   6.263  0.00  0.00    -0.003 C 
ATOM     30  C   UNL     1     -31.775  29.134   6.799  0.00  0.00    +0.002 C 
ENDBRANCH  21  26
ENDBRANCH  20  21
ENDBRANCH   1  20
TORSDOF 8
ENDMDL
MODEL 6
REMARK VINA RESULT:      -6.4      3.684      8.455
REMARK  Name = 6091659
REMARK  8 active torsions:
REMARK  status: ('A' for Active; 'I' for Inactive)
REMARK    1  A    between atoms: C_1  and  C_20
REMARK    2  A    between atoms: C_2  and  O_9
REMARK    3  A    between atoms: C_4  and  C_11
REMARK    4  A    between atoms: C_5  and  O_7
REMARK    5  A    between atoms: C_12  and  C_15
REMARK    6  A    between atoms: C_12  and  C_19
REMARK    7  A    between atoms: C_20  and  S_21
REMARK    8  A    between atoms: S_21  and  C_26
REMARK                            x       y       z     vdW  Elec       q    Type
REMARK                         _______ _______ _______ _____ _____    ______ ____
ROOT
ATOM      1  C   UNL     1     -37.995  21.577   1.888  0.00  0.00    +0.026 C 
ATOM      2  C   UNL     1     -37.057  20.592   1.604  0.00  0.00    +0.164 C 
ATOM      3  C   UNL     1     -37.627  22.736   2.562  0.00  0.00    -0.000 C 
ATOM      4  C   UNL     1     -36.301  22.911   2.959  0.00  0.00    +0.004 C 
ATOM      5  C   UNL     1     -35.732  20.768   2.000  0.00  0.00    +0.172 C 
ATOM      6  C   UNL     1     -35.354  21.927   2.679  0.00  0.00    +0.040 C 
ENDROOT
BRANCH   5   7
ATOM      7  O   UNL     1     -34.796  19.815   1.732  0.00  0.00    -0.468 OA
ATOM      8  C   UNL     1     -33.866  20.096   0.688  0.00  0.00    +0.253 C 
ENDBRANCH   5   7
BRANCH   2   9
ATOM      9  O   UNL     1     -37.423  19.458   0.941  0.00  0.00    -0.503 OA
ATOM     10  H   UNL     1     -37.445  19.449   0.005  0.00  0.00    +0.292 HD
ENDBRANCH   2   9
BRANCH   4  11
ATOM     11  C   UNL     1     -35.906  24.119   3.666  0.00  0.00    +0.015 C 
ATOM     12  C   UNL     1     -35.611  24.212   4.988  0.00  0.00    +0.121 C 
BRANCH  12  15
ATOM     13  O   UNL     1     -34.117  25.807   5.983  0.00  0.00    -0.270 OA
ATOM     14  N   UNL     1     -36.214  26.525   5.426  0.00  0.00    -0.325 N 
ATOM     15  C   UNL     1     -35.227  25.568   5.511  0.00  0.00    +0.252 C 
ATOM     16  H   UNL     1     -36.042  27.440   5.748  0.00  0.00    +0.145 HD
ATOM     17  H   UNL     1     -37.091  26.295   5.044  0.00  0.00    +0.145 HD
ENDBRANCH  12  15
BRANCH  12  19
ATOM     18  N   UNL     1     -35.741  22.155   6.552  0.00  0.00    -0.191 NA
ATOM     19  C   UNL     1     -35.684  23.077   5.848  0.00  0.00    +0.105 C 
ENDBRANCH  12  19
ENDBRANCH   4  11
BRANCH   1  20
ATOM     20  C   UNL     1     -39.429  21.406   1.468  0.00  0.00    +0.094 C 
BRANCH  20  21
ATOM     21  S   UNL     1     -39.822  22.356  -0.024  0.00  0.00    -0.071 S 
BRANCH  21  26
ATOM     22  S   UNL     1     -42.179  24.264  -0.041  0.00  0.00    -0.065 S 
ATOM     23  N   UNL     1     -40.343  24.273   1.770  0.00  0.00    -0.392 NA
ATOM     24  C   UNL     1     -42.316  25.428   1.224  0.00  0.00    +0.129 C 
ATOM     25  C   UNL     1     -41.238  25.279   2.101  0.00  0.00    +0.124 C 
ATOM     26  C   UNL     1     -40.737  23.678   0.669  0.00  0.00    +0.183 C 
ATOM     27  C   UNL     1     -43.307  26.402   1.424  0.00  0.00    -0.008 C 
ATOM     28  C   UNL     1     -41.151  26.138   3.218  0.00  0.00    +0.029 C 
ATOM     29  C   UNL     1     -43.196  27.239   2.538  0.00  0.00    -0.003 C 
ATOM     30  C   UNL     1     -42.134  27.109   3.425  0.00  0.00    +0.002 C 
ENDBRANCH  21  26
ENDBRANCH  20  21
ENDBRANCH   1  20
TORSDOF 8
ENDMDL
MODEL 7
REMARK VINA RESULT:      -6.3      2.773      3.628
REMARK  Name = 6091659
REMARK  8 active torsions:
REMARK  status: ('A' for Active; 'I' for Inactive)
REMARK    1  A    between atoms: C_1  and  C_20
REMARK    2  A    between atoms: C_2  and  O_9
REMARK    3  A    between atoms: C_4  and  C_11
REMARK    4  A    between atoms: C_5  and  O_7
REMARK    5  A    between atoms: C_12  and  C_15
REMARK    6  A    between atoms: C_12  and  C_19
REMARK    7  A    between atoms: C_20  and  S_21
REMARK    8  A    between atoms: S_21  and  C_26
REMARK                            x       y       z     vdW  Elec       q    Type
REMARK                         _______ _______ _______ _____ _____    ______ ____
ROOT
ATOM      1  C   UNL     1     -35.473  20.733   2.072  0.00  0.00    +0.026 C 
ATOM      2  C   UNL     1     -36.763  20.422   1.661  0.00  0.00    +0.164 C 
ATOM      3  C   UNL     1     -35.204  21.930   2.725  0.00  0.00    -0.000 C 
ATOM      4  C   UNL     1     -36.242  22.831   2.968  0.00  0.00    +0.004 C 
ATOM      5  C   UNL     1     -37.800  21.321   1.905  0.00  0.00    +0.172 C 
ATOM      6  C   UNL     1     -37.540  22.526   2.558  0.00  0.00    +0.040 C 
ENDROOT
BRANCH   5   7
ATOM      7  O   UNL     1     -39.073  21.035   1.510  0.00  0.00    -0.468 OA
ATOM      8  C   UNL     1     -39.633  21.855   0.488  0.00  0.00    +0.253 C 
ENDBRANCH   5   7
BRANCH   2   9
ATOM      9  O   UNL     1     -37.021  19.245   1.022  0.00  0.00    -0.503 OA
ATOM     10  H   UNL     1     -36.874  18.431   1.461  0.00  0.00    +0.292 HD
ENDBRANCH   2   9
BRANCH   4  11
ATOM     11  C   UNL     1     -35.972  24.087   3.649  0.00  0.00    +0.015 C 
ATOM     12  C   UNL     1     -35.688  24.238   4.968  0.00  0.00    +0.121 C 
BRANCH  12  15
ATOM     13  O   UNL     1     -34.402  25.971   6.020  0.00  0.00    -0.270 OA
ATOM     14  N   UNL     1     -36.481  26.517   5.246  0.00  0.00    -0.325 N 
ATOM     15  C   UNL     1     -35.445  25.636   5.462  0.00  0.00    +0.252 C 
ATOM     16  H   UNL     1     -36.401  27.454   5.541  0.00  0.00    +0.145 HD
ATOM     17  H   UNL     1     -37.303  26.211   4.798  0.00  0.00    +0.145 HD
ENDBRANCH  12  15
BRANCH  12  19
ATOM     18  N   UNL     1     -35.608  22.211   6.574  0.00  0.00    -0.191 NA
ATOM     19  C   UNL     1     -35.643  23.119   5.852  0.00  0.00    +0.105 C 
ENDBRANCH  12  19
ENDBRANCH   4  11
BRANCH   1  20
ATOM     20  C   UNL     1     -34.341  19.775   1.818  0.00  0.00    +0.094 C 
BRANCH  20  21
ATOM     21  S   UNL     1     -33.574  20.039   0.199  0.00  0.00    -0.071 S 
BRANCH  21  26
ATOM     22  S   UNL     1     -33.731  18.291  -2.274  0.00  0.00    -0.065 S 
ATOM     23  N   UNL     1     -34.505  17.534   0.067  0.00  0.00    -0.392 NA
ATOM     24  C   UNL     1     -34.371  16.697  -2.126  0.00  0.00    +0.129 C 
ATOM     25  C   UNL     1     -34.733  16.471  -0.795  0.00  0.00    +0.124 C 
ATOM     26  C   UNL     1     -33.983  18.536  -0.600  0.00  0.00    +0.183 C 
ATOM     27  C   UNL     1     -34.540  15.717  -3.117  0.00  0.00    -0.008 C 
ATOM     28  C   UNL     1     -35.284  15.219  -0.446  0.00  0.00    +0.029 C 
ATOM     29  C   UNL     1     -35.088  14.487  -2.745  0.00  0.00    -0.003 C 
ATOM     30  C   UNL     1     -35.455  14.238  -1.427  0.00  0.00    +0.002 C 
ENDBRANCH  21  26
ENDBRANCH  20  21
ENDBRANCH   1  20
TORSDOF 8
ENDMDL
MODEL 8
REMARK VINA RESULT:      -6.3      4.085      8.500
REMARK  Name = 6091659
REMARK  8 active torsions:
REMARK  status: ('A' for Active; 'I' for Inactive)
REMARK    1  A    between atoms: C_1  and  C_20
REMARK    2  A    between atoms: C_2  and  O_9
REMARK    3  A    between atoms: C_4  and  C_11
REMARK    4  A    between atoms: C_5  and  O_7
REMARK    5  A    between atoms: C_12  and  C_15
REMARK    6  A    between atoms: C_12  and  C_19
REMARK    7  A    between atoms: C_20  and  S_21
REMARK    8  A    between atoms: S_21  and  C_26
REMARK                            x       y       z     vdW  Elec       q    Type
REMARK                         _______ _______ _______ _____ _____    ______ ____
ROOT
ATOM      1  C   UNL     1     -35.601  24.545   4.219  0.00  0.00    +0.026 C 
ATOM      2  C   UNL     1     -36.936  24.886   4.040  0.00  0.00    +0.164 C 
ATOM      3  C   UNL     1     -35.117  23.316   3.787  0.00  0.00    -0.000 C 
ATOM      4  C   UNL     1     -35.981  22.413   3.168  0.00  0.00    +0.004 C 
ATOM      5  C   UNL     1     -37.800  23.984   3.420  0.00  0.00    +0.172 C 
ATOM      6  C   UNL     1     -37.323  22.747   2.984  0.00  0.00    +0.040 C 
ENDROOT
BRANCH   5   7
ATOM      7  O   UNL     1     -39.113  24.298   3.233  0.00  0.00    -0.468 OA
ATOM      8  C   UNL     1     -39.860  23.463   2.351  0.00  0.00    +0.253 C 
ENDBRANCH   5   7
BRANCH   2   9
ATOM      9  O   UNL     1     -37.405  26.094   4.464  0.00  0.00    -0.503 OA
ATOM     10  H   UNL     1     -36.894  26.867   4.335  0.00  0.00    +0.292 HD
ENDBRANCH   2   9
BRANCH   4  11
ATOM     11  C   UNL     1     -35.486  21.124   2.713  0.00  0.00    +0.015 C 
ATOM     12  C   UNL     1     -34.738  20.900   1.603  0.00  0.00    +0.121 C 
BRANCH  12  15
ATOM     13  O   UNL     1     -33.208  19.050   1.553  0.00  0.00    -0.270 OA
ATOM     14  N   UNL     1     -35.328  18.692   0.779  0.00  0.00    -0.325 N 
ATOM     15  C   UNL     1     -34.336  19.479   1.321  0.00  0.00    +0.252 C 
ATOM     16  H   UNL     1     -35.145  17.748   0.565  0.00  0.00    +0.145 HD
ATOM     17  H   UNL     1     -36.219  19.072   0.605  0.00  0.00    +0.145 HD
ENDBRANCH  12  15
BRANCH  12  19
ATOM     18  N   UNL     1     -34.070  22.832   0.015  0.00  0.00    -0.191 NA
ATOM     19  C   UNL     1     -34.368  21.965   0.728  0.00  0.00    +0.105 C 
ENDBRANCH  12  19
ENDBRANCH   4  11
BRANCH   1  20
ATOM     20  C   UNL     1     -34.654  25.505   4.885  0.00  0.00    +0.094 C 
BRANCH  20  21
ATOM     21  S   UNL     1     -33.426  26.167   3.728  0.00  0.00    -0.071 S 
BRANCH  21  26
ATOM     22  S   UNL     1     -35.297  27.245   1.599  0.00  0.00    -0.065 S 
ATOM     23  N   UNL     1     -34.323  28.679   3.508  0.00  0.00    -0.392 NA
ATOM     24  C   UNL     1     -35.747  28.908   1.651  0.00  0.00    +0.129 C 
ATOM     25  C   UNL     1     -35.125  29.516   2.746  0.00  0.00    +0.124 C 
ATOM     26  C   UNL     1     -34.341  27.469   2.999  0.00  0.00    +0.183 C 
ATOM     27  C   UNL     1     -36.590  29.623   0.786  0.00  0.00    -0.008 C 
ATOM     28  C   UNL     1     -35.357  30.888   2.980  0.00  0.00    +0.029 C 
ATOM     29  C   UNL     1     -36.801  30.981   1.040  0.00  0.00    -0.003 C 
ATOM     30  C   UNL     1     -36.194  31.607   2.123  0.00  0.00    +0.002 C 
ENDBRANCH  21  26
ENDBRANCH  20  21
ENDBRANCH   1  20
TORSDOF 8
ENDMDL
MODEL 9
REMARK VINA RESULT:      -6.3      3.128      5.224
REMARK  Name = 6091659
REMARK  8 active torsions:
REMARK  status: ('A' for Active; 'I' for Inactive)
REMARK    1  A    between atoms: C_1  and  C_20
REMARK    2  A    between atoms: C_2  and  O_9
REMARK    3  A    between atoms: C_4  and  C_11
REMARK    4  A    between atoms: C_5  and  O_7
REMARK    5  A    between atoms: C_12  and  C_15
REMARK    6  A    between atoms: C_12  and  C_19
REMARK    7  A    between atoms: C_20  and  S_21
REMARK    8  A    between atoms: S_21  and  C_26
REMARK                            x       y       z     vdW  Elec       q    Type
REMARK                         _______ _______ _______ _____ _____    ______ ____
ROOT
ATOM      1  C   UNL     1     -33.218  25.643   1.485  0.00  0.00    +0.026 C 
ATOM      2  C   UNL     1     -32.480  26.088   2.575  0.00  0.00    +0.164 C 
ATOM      3  C   UNL     1     -34.606  25.722   1.486  0.00  0.00    -0.000 C 
ATOM      4  C   UNL     1     -35.265  26.253   2.594  0.00  0.00    +0.004 C 
ATOM      5  C   UNL     1     -33.139  26.620   3.682  0.00  0.00    +0.172 C 
ATOM      6  C   UNL     1     -34.532  26.702   3.692  0.00  0.00    +0.040 C 
ENDROOT
BRANCH   5   7
ATOM      7  O   UNL     1     -32.435  27.063   4.762  0.00  0.00    -0.468 OA
ATOM      8  C   UNL     1     -33.056  26.932   6.038  0.00  0.00    +0.253 C 
ENDBRANCH   5   7
BRANCH   2   9
ATOM      9  O   UNL     1     -31.119  26.009   2.567  0.00  0.00    -0.503 OA
ATOM     10  H   UNL     1     -30.660  25.749   3.341  0.00  0.00    +0.292 HD
ENDBRANCH   2   9
BRANCH   4  11
ATOM     11  C   UNL     1     -36.717  26.339   2.607  0.00  0.00    +0.015 C 
ATOM     12  C   UNL     1     -37.568  25.422   3.131  0.00  0.00    +0.121 C 
BRANCH  12  15
ATOM     13  O   UNL     1     -39.491  26.607   2.316  0.00  0.00    -0.270 OA
ATOM     14  N   UNL     1     -39.846  24.908   3.801  0.00  0.00    -0.325 N 
ATOM     15  C   UNL     1     -39.040  25.714   3.030  0.00  0.00    +0.252 C 
ATOM     16  H   UNL     1     -40.823  25.035   3.792  0.00  0.00    +0.145 HD
ATOM     17  H   UNL     1     -39.448  24.204   4.363  0.00  0.00    +0.145 HD
ENDBRANCH  12  15
BRANCH  12  19
ATOM     18  N   UNL     1     -36.699  23.244   4.226  0.00  0.00    -0.191 NA
ATOM     19  C   UNL     1     -37.089  24.220   3.733  0.00  0.00    +0.105 C 
ENDBRANCH  12  19
ENDBRANCH   4  11
BRANCH   1  20
ATOM     20  C   UNL     1     -32.525  25.067   0.281  0.00  0.00    +0.094 C 
BRANCH  20  21
ATOM     21  S   UNL     1     -33.660  24.134  -0.780  0.00  0.00    -0.071 S 
BRANCH  21  26
ATOM     22  S   UNL     1     -34.541  21.653   0.725  0.00  0.00    -0.065 S 
ATOM     23  N   UNL     1     -32.256  21.880  -0.449  0.00  0.00    -0.392 NA
ATOM     24  C   UNL     1     -33.467  20.307   0.811  0.00  0.00    +0.129 C 
ATOM     25  C   UNL     1     -32.290  20.616   0.122  0.00  0.00    +0.124 C 
ATOM     26  C   UNL     1     -33.380  22.507  -0.197  0.00  0.00    +0.183 C 
ATOM     27  C   UNL     1     -33.653  19.067   1.442  0.00  0.00    -0.008 C 
ATOM     28  C   UNL     1     -31.265  19.648   0.065  0.00  0.00    +0.029 C 
ATOM     29  C   UNL     1     -32.622  18.127   1.370  0.00  0.00    -0.003 C 
ATOM     30  C   UNL     1     -31.442  18.411   0.690  0.00  0.00    +0.002 C 
ENDBRANCH  21  26
ENDBRANCH  20  21
ENDBRANCH   1  20
TORSDOF 8
ENDMDL
