MODEL 1
REMARK VINA RESULT:      -6.8      0.000      0.000
REMARK  Name = 21126551
REMARK  6 active torsions:
REMARK  status: ('A' for Active; 'I' for Inactive)
REMARK    1  A    between atoms: C_9  and  C_29
REMARK    2  A    between atoms: C_11  and  O_24
REMARK    3  A    between atoms: C_14  and  O_26
REMARK    4  A    between atoms: C_22  and  O_33
REMARK    5  A    between atoms: C_29  and  O_30
REMARK    6  A    between atoms: O_30  and  C_31
REMARK                            x       y       z     vdW  Elec       q    Type
REMARK                         _______ _______ _______ _____ _____    ______ ____
ROOT
ATOM      1  O   UNL     1     -35.192  24.591   1.895  0.00  0.00    -0.345 OA
ATOM      2  O   UNL     1     -32.678  27.194   4.880  0.00  0.00    -0.452 OA
ATOM      3  O   UNL     1     -33.197  26.757   7.025  0.00  0.00    -0.250 OA
ATOM      4  O   UNL     1     -35.709  32.291   1.482  0.00  0.00    -0.288 OA
ATOM      5  C   UNL     1     -34.064  26.402   2.970  0.00  0.00    +0.070 C 
ATOM      6  C   UNL     1     -35.098  27.587   2.827  0.00  0.00    +0.036 C 
ATOM      7  C   UNL     1     -34.556  25.367   3.980  0.00  0.00    +0.055 C 
ATOM      8  C   UNL     1     -34.525  28.873   2.090  0.00  0.00    +0.014 C 
ATOM      9  C   UNL     1     -35.748  24.817   3.215  0.00  0.00    +0.208 C 
ATOM     10  C   UNL     1     -32.693  26.871   3.451  0.00  0.00    +0.171 C 
ATOM     11  C   UNL     1     -36.511  27.099   2.373  0.00  0.00    +0.140 C 
ATOM     12  C   UNL     1     -33.191  29.282   2.804  0.00  0.00    +0.025 C 
ATOM     13  C   UNL     1     -34.048  25.473   1.744  0.00  0.00    +0.146 C 
ATOM     14  C   UNL     1     -36.934  25.782   3.060  0.00  0.00    +0.172 C 
ATOM     15  C   UNL     1     -32.173  28.119   2.731  0.00  0.00    +0.048 C 
ATOM     16  C   UNL     1     -34.705  25.916   5.380  0.00  0.00    +0.113 C 
ATOM     17  C   UNL     1     -35.521  30.044   2.272  0.00  0.00    +0.073 C 
ATOM     18  C   UNL     1     -34.291  28.687   0.567  0.00  0.00    +0.001 C 
ATOM     19  C   UNL     1     -32.662  30.643   2.346  0.00  0.00    -0.008 C 
ATOM     20  C   UNL     1     -33.452  26.621   5.831  0.00  0.00    +0.317 C 
ATOM     21  C   UNL     1     -34.962  31.380   1.838  0.00  0.00    +0.206 C 
ATOM     22  C   UNL     1     -33.490  31.609   1.899  0.00  0.00    +0.160 C 
ATOM     23  C   UNL     1     -31.182  30.897   2.483  0.00  0.00    +0.030 C 
ENDROOT
BRANCH  11  24
ATOM     24  O   UNL     1     -36.562  26.899   0.965  0.00  0.00    -0.382 OA
ATOM     25  H   UNL     1     -37.421  26.520   0.723  0.00  0.00    +0.210 HD
ENDBRANCH  11  24
BRANCH  14  26
ATOM     26  O   UNL     1     -37.517  26.092   4.320  0.00  0.00    -0.379 OA
ATOM     27  H   UNL     1     -36.819  26.164   4.991  0.00  0.00    +0.211 HD
ENDBRANCH  14  26
BRANCH   9  29
ATOM     28  O   UNL     1     -37.325  23.067   3.709  0.00  0.00    -0.247 OA
ATOM     29  C   UNL     1     -36.165  23.455   3.679  0.00  0.00    +0.344 C 
BRANCH  29  30
ATOM     30  O   UNL     1     -35.064  22.743   4.054  0.00  0.00    -0.447 OA
BRANCH  30  31
ATOM     31  C   UNL     1     -35.305  21.676   4.977  0.00  0.00    +0.209 C 
ATOM     32  C   UNL     1     -35.308  22.232   6.384  0.00  0.00    +0.051 C 
ENDBRANCH  30  31
ENDBRANCH  29  30
ENDBRANCH   9  29
BRANCH  22  33
ATOM     33  O   UNL     1     -33.027  32.846   1.500  0.00  0.00    -0.503 OA
ATOM     34  H   UNL     1     -32.399  32.911   0.807  0.00  0.00    +0.292 HD
ENDBRANCH  22  33
TORSDOF 6
ENDMDL
MODEL 2
REMARK VINA RESULT:      -6.4      4.347      7.178
REMARK  Name = 21126551
REMARK  6 active torsions:
REMARK  status: ('A' for Active; 'I' for Inactive)
REMARK    1  A    between atoms: C_9  and  C_29
REMARK    2  A    between atoms: C_11  and  O_24
REMARK    3  A    between atoms: C_14  and  O_26
REMARK    4  A    between atoms: C_22  and  O_33
REMARK    5  A    between atoms: C_29  and  O_30
REMARK    6  A    between atoms: O_30  and  C_31
REMARK                            x       y       z     vdW  Elec       q    Type
REMARK                         _______ _______ _______ _____ _____    ______ ____
ROOT
ATOM      1  O   UNL     1     -36.134  19.785  -0.504  0.00  0.00    -0.345 OA
ATOM      2  O   UNL     1     -33.649  23.755  -0.229  0.00  0.00    -0.452 OA
ATOM      3  O   UNL     1     -31.472  23.422  -0.690  0.00  0.00    -0.250 OA
ATOM      4  O   UNL     1     -35.954  23.620   6.204  0.00  0.00    -0.288 OA
ATOM      5  C   UNL     1     -35.236  21.886   0.197  0.00  0.00    +0.070 C 
ATOM      6  C   UNL     1     -35.069  21.688   1.755  0.00  0.00    +0.036 C 
ATOM      7  C   UNL     1     -34.205  21.062  -0.573  0.00  0.00    +0.055 C 
ATOM      8  C   UNL     1     -35.838  22.760   2.640  0.00  0.00    +0.014 C 
ATOM      9  C   UNL     1     -34.710  19.666  -0.253  0.00  0.00    +0.208 C 
ATOM     10  C   UNL     1     -35.054  23.339  -0.235  0.00  0.00    +0.171 C 
ATOM     11  C   UNL     1     -35.217  20.194   2.189  0.00  0.00    +0.140 C 
ATOM     12  C   UNL     1     -35.424  24.185   2.136  0.00  0.00    +0.025 C 
ATOM     13  C   UNL     1     -36.488  21.187  -0.363  0.00  0.00    +0.146 C 
ATOM     14  C   UNL     1     -34.533  19.218   1.206  0.00  0.00    +0.172 C 
ATOM     15  C   UNL     1     -35.797  24.349   0.644  0.00  0.00    +0.048 C 
ATOM     16  C   UNL     1     -32.778  21.468  -0.287  0.00  0.00    +0.113 C 
ATOM     17  C   UNL     1     -35.364  22.634   4.108  0.00  0.00    +0.073 C 
ATOM     18  C   UNL     1     -37.383  22.608   2.630  0.00  0.00    +0.001 C 
ATOM     19  C   UNL     1     -35.908  25.307   3.058  0.00  0.00    -0.008 C 
ATOM     20  C   UNL     1     -32.583  22.952  -0.455  0.00  0.00    +0.317 C 
ATOM     21  C   UNL     1     -35.833  23.771   4.988  0.00  0.00    +0.206 C 
ATOM     22  C   UNL     1     -36.096  25.106   4.378  0.00  0.00    +0.160 C 
ATOM     23  C   UNL     1     -36.097  26.674   2.451  0.00  0.00    +0.030 C 
ENDROOT
BRANCH  11  24
ATOM     24  O   UNL     1     -36.586  19.821   2.299  0.00  0.00    -0.382 OA
ATOM     25  H   UNL     1     -36.655  18.855   2.361  0.00  0.00    +0.210 HD
ENDBRANCH  11  24
BRANCH  14  26
ATOM     26  O   UNL     1     -33.157  19.115   1.552  0.00  0.00    -0.379 OA
ATOM     27  H   UNL     1     -32.922  19.832   2.163  0.00  0.00    +0.211 HD
ENDBRANCH  14  26
BRANCH   9  29
ATOM     28  O   UNL     1     -33.930  18.883  -2.392  0.00  0.00    -0.247 OA
ATOM     29  C   UNL     1     -34.246  18.635  -1.236  0.00  0.00    +0.344 C 
BRANCH  29  30
ATOM     30  O   UNL     1     -34.237  17.409  -0.640  0.00  0.00    -0.447 OA
BRANCH  30  31
ATOM     31  C   UNL     1     -33.289  16.475  -1.168  0.00  0.00    +0.209 C 
ATOM     32  C   UNL     1     -32.407  15.978  -0.044  0.00  0.00    +0.051 C 
ENDBRANCH  30  31
ENDBRANCH  29  30
ENDBRANCH   9  29
BRANCH  22  33
ATOM     33  O   UNL     1     -36.514  26.115   5.222  0.00  0.00    -0.503 OA
ATOM     34  H   UNL     1     -35.885  26.611   5.707  0.00  0.00    +0.292 HD
ENDBRANCH  22  33
TORSDOF 6
ENDMDL
MODEL 3
REMARK VINA RESULT:      -6.3      4.200      7.454
REMARK  Name = 21126551
REMARK  6 active torsions:
REMARK  status: ('A' for Active; 'I' for Inactive)
REMARK    1  A    between atoms: C_9  and  C_29
REMARK    2  A    between atoms: C_11  and  O_24
REMARK    3  A    between atoms: C_14  and  O_26
REMARK    4  A    between atoms: C_22  and  O_33
REMARK    5  A    between atoms: C_29  and  O_30
REMARK    6  A    between atoms: O_30  and  C_31
REMARK                            x       y       z     vdW  Elec       q    Type
REMARK                         _______ _______ _______ _____ _____    ______ ____
ROOT
ATOM      1  O   UNL     1     -37.783  23.626   1.162  0.00  0.00    -0.345 OA
ATOM      2  O   UNL     1     -35.215  20.718   3.799  0.00  0.00    -0.452 OA
ATOM      3  O   UNL     1     -34.802  21.571   5.840  0.00  0.00    -0.250 OA
ATOM      4  O   UNL     1     -30.773  21.533  -1.332  0.00  0.00    -0.288 OA
ATOM      5  C   UNL     1     -36.129  22.082   1.929  0.00  0.00    +0.070 C 
ATOM      6  C   UNL     1     -34.803  22.647   1.283  0.00  0.00    +0.036 C 
ATOM      7  C   UNL     1     -36.617  22.989   3.057  0.00  0.00    +0.055 C 
ATOM      8  C   UNL     1     -34.026  21.610   0.364  0.00  0.00    +0.014 C 
ATOM      9  C   UNL     1     -37.013  24.209   2.243  0.00  0.00    +0.208 C 
ATOM     10  C   UNL     1     -35.944  20.690   2.529  0.00  0.00    +0.171 C 
ATOM     11  C   UNL     1     -34.983  24.088   0.705  0.00  0.00    +0.140 C 
ATOM     12  C   UNL     1     -33.814  20.297   1.193  0.00  0.00    +0.025 C 
ATOM     13  C   UNL     1     -37.355  22.246   1.014  0.00  0.00    +0.146 C 
ATOM     14  C   UNL     1     -35.847  24.989   1.614  0.00  0.00    +0.172 C 
ATOM     15  C   UNL     1     -35.182  19.718   1.625  0.00  0.00    +0.048 C 
ATOM     16  C   UNL     1     -35.645  23.092   4.208  0.00  0.00    +0.113 C 
ATOM     17  C   UNL     1     -32.623  22.179   0.036  0.00  0.00    +0.073 C 
ATOM     18  C   UNL     1     -34.731  21.295  -0.983  0.00  0.00    +0.001 C 
ATOM     19  C   UNL     1     -32.870  19.306   0.509  0.00  0.00    -0.008 C 
ATOM     20  C   UNL     1     -35.222  21.731   4.696  0.00  0.00    +0.317 C 
ATOM     21  C   UNL     1     -31.703  21.169  -0.612  0.00  0.00    +0.206 C 
ATOM     22  C   UNL     1     -31.896  19.718  -0.327  0.00  0.00    +0.160 C 
ATOM     23  C   UNL     1     -33.018  17.847   0.861  0.00  0.00    +0.030 C 
ENDROOT
BRANCH  11  24
ATOM     24  O   UNL     1     -35.585  24.056  -0.585  0.00  0.00    -0.382 OA
ATOM     25  H   UNL     1     -36.455  23.630  -0.525  0.00  0.00    +0.210 HD
ENDBRANCH  11  24
BRANCH  14  26
ATOM     26  O   UNL     1     -35.011  25.564   2.611  0.00  0.00    -0.379 OA
ATOM     27  H   UNL     1     -35.376  25.372   3.490  0.00  0.00    +0.211 HD
ENDBRANCH  14  26
BRANCH   9  29
ATOM     28  O   UNL     1     -37.810  26.293   3.148  0.00  0.00    -0.247 OA
ATOM     29  C   UNL     1     -37.987  25.098   2.955  0.00  0.00    +0.344 C 
BRANCH  29  30
ATOM     30  O   UNL     1     -39.073  24.368   3.340  0.00  0.00    -0.447 OA
BRANCH  30  31
ATOM     31  C   UNL     1     -40.324  25.061   3.307  0.00  0.00    +0.209 C 
ATOM     32  C   UNL     1     -40.883  25.005   1.902  0.00  0.00    +0.051 C 
ENDBRANCH  30  31
ENDBRANCH  29  30
ENDBRANCH   9  29
BRANCH  22  33
ATOM     33  O   UNL     1     -31.027  18.835  -0.935  0.00  0.00    -0.503 OA
ATOM     34  H   UNL     1     -30.740  18.990  -1.813  0.00  0.00    +0.292 HD
ENDBRANCH  22  33
TORSDOF 6
ENDMDL
MODEL 4
REMARK VINA RESULT:      -6.2      3.318      5.664
REMARK  Name = 21126551
REMARK  6 active torsions:
REMARK  status: ('A' for Active; 'I' for Inactive)
REMARK    1  A    between atoms: C_9  and  C_29
REMARK    2  A    between atoms: C_11  and  O_24
REMARK    3  A    between atoms: C_14  and  O_26
REMARK    4  A    between atoms: C_22  and  O_33
REMARK    5  A    between atoms: C_29  and  O_30
REMARK    6  A    between atoms: O_30  and  C_31
REMARK                            x       y       z     vdW  Elec       q    Type
REMARK                         _______ _______ _______ _____ _____    ______ ____
ROOT
ATOM      1  O   UNL     1     -37.457  21.746   0.969  0.00  0.00    -0.345 OA
ATOM      2  O   UNL     1     -33.305  23.642  -0.115  0.00  0.00    -0.452 OA
ATOM      3  O   UNL     1     -31.772  22.079  -0.632  0.00  0.00    -0.250 OA
ATOM      4  O   UNL     1     -33.846  26.092   6.242  0.00  0.00    -0.288 OA
ATOM      5  C   UNL     1     -35.482  23.092   0.957  0.00  0.00    +0.070 C 
ATOM      6  C   UNL     1     -35.096  23.150   2.488  0.00  0.00    +0.036 C 
ATOM      7  C   UNL     1     -35.219  21.702   0.381  0.00  0.00    +0.055 C 
ATOM      8  C   UNL     1     -34.988  24.620   3.082  0.00  0.00    +0.014 C 
ATOM      9  C   UNL     1     -36.281  20.914   1.129  0.00  0.00    +0.208 C 
ATOM     10  C   UNL     1     -34.685  24.081   0.110  0.00  0.00    +0.171 C 
ATOM     11  C   UNL     1     -35.884  22.110   3.347  0.00  0.00    +0.140 C 
ATOM     12  C   UNL     1     -34.029  25.444   2.157  0.00  0.00    +0.025 C 
ATOM     13  C   UNL     1     -37.003  23.105   0.726  0.00  0.00    +0.146 C 
ATOM     14  C   UNL     1     -36.035  20.746   2.637  0.00  0.00    +0.172 C 
ATOM     15  C   UNL     1     -34.589  25.484   0.715  0.00  0.00    +0.048 C 
ATOM     16  C   UNL     1     -33.764  21.299   0.422  0.00  0.00    +0.113 C 
ATOM     17  C   UNL     1     -34.330  24.550   4.482  0.00  0.00    +0.073 C 
ATOM     18  C   UNL     1     -36.350  25.348   3.239  0.00  0.00    +0.001 C 
ATOM     19  C   UNL     1     -33.651  26.803   2.750  0.00  0.00    -0.008 C 
ATOM     20  C   UNL     1     -32.881  22.359  -0.183  0.00  0.00    +0.317 C 
ATOM     21  C   UNL     1     -33.940  25.905   5.029  0.00  0.00    +0.206 C 
ATOM     22  C   UNL     1     -33.614  27.008   4.081  0.00  0.00    +0.160 C 
ATOM     23  C   UNL     1     -33.245  27.893   1.789  0.00  0.00    +0.030 C 
ENDROOT
BRANCH  11  24
ATOM     24  O   UNL     1     -37.186  22.586   3.668  0.00  0.00    -0.382 OA
ATOM     25  H   UNL     1     -37.503  22.144   4.471  0.00  0.00    +0.210 HD
ENDBRANCH  11  24
BRANCH  14  26
ATOM     26  O   UNL     1     -34.868  19.971   2.889  0.00  0.00    -0.379 OA
ATOM     27  H   UNL     1     -34.399  19.813   2.054  0.00  0.00    +0.211 HD
ENDBRANCH  14  26
BRANCH   9  29
ATOM     28  O   UNL     1     -37.728  19.407  -0.066  0.00  0.00    -0.247 OA
ATOM     29  C   UNL     1     -36.642  19.627   0.454  0.00  0.00    +0.344 C 
BRANCH  29  30
ATOM     30  O   UNL     1     -35.586  18.767   0.517  0.00  0.00    -0.447 OA
BRANCH  30  31
ATOM     31  C   UNL     1     -35.515  17.801  -0.537  0.00  0.00    +0.209 C 
ATOM     32  C   UNL     1     -34.764  18.400  -1.706  0.00  0.00    +0.051 C 
ENDBRANCH  30  31
ENDBRANCH  29  30
ENDBRANCH   9  29
BRANCH  22  33
ATOM     33  O   UNL     1     -33.257  28.225   4.627  0.00  0.00    -0.503 OA
ATOM     34  H   UNL     1     -32.862  28.259   5.476  0.00  0.00    +0.292 HD
ENDBRANCH  22  33
TORSDOF 6
ENDMDL
MODEL 5
REMARK VINA RESULT:      -5.8      5.596      9.040
REMARK  Name = 21126551
REMARK  6 active torsions:
REMARK  status: ('A' for Active; 'I' for Inactive)
REMARK    1  A    between atoms: C_9  and  C_29
REMARK    2  A    between atoms: C_11  and  O_24
REMARK    3  A    between atoms: C_14  and  O_26
REMARK    4  A    between atoms: C_22  and  O_33
REMARK    5  A    between atoms: C_29  and  O_30
REMARK    6  A    between atoms: O_30  and  C_31
REMARK                            x       y       z     vdW  Elec       q    Type
REMARK                         _______ _______ _______ _____ _____    ______ ____
ROOT
ATOM      1  O   UNL     1     -35.540  20.440   2.955  0.00  0.00    -0.345 OA
ATOM      2  O   UNL     1     -32.901  22.059  -0.569  0.00  0.00    -0.452 OA
ATOM      3  O   UNL     1     -33.254  24.248  -0.953  0.00  0.00    -0.250 OA
ATOM      4  O   UNL     1     -36.313  17.268  -4.050  0.00  0.00    -0.288 OA
ATOM      5  C   UNL     1     -34.393  20.686   0.873  0.00  0.00    +0.070 C 
ATOM      6  C   UNL     1     -35.469  20.196  -0.174  0.00  0.00    +0.036 C 
ATOM      7  C   UNL     1     -34.782  22.040   1.464  0.00  0.00    +0.055 C 
ATOM      8  C   UNL     1     -34.988  18.997  -1.099  0.00  0.00    +0.014 C 
ATOM      9  C   UNL     1     -36.007  21.624   2.260  0.00  0.00    +0.208 C 
ATOM     10  C   UNL     1     -33.006  20.854   0.257  0.00  0.00    +0.171 C 
ATOM     11  C   UNL     1     -36.896  20.063   0.449  0.00  0.00    +0.140 C 
ATOM     12  C   UNL     1     -33.620  19.407  -1.744  0.00  0.00    +0.025 C 
ATOM     13  C   UNL     1     -34.436  19.889   2.189  0.00  0.00    +0.146 C 
ATOM     14  C   UNL     1     -37.230  21.216   1.422  0.00  0.00    +0.172 C 
ATOM     15  C   UNL     1     -32.576  19.689  -0.638  0.00  0.00    +0.048 C 
ATOM     16  C   UNL     1     -34.848  23.147   0.438  0.00  0.00    +0.113 C 
ATOM     17  C   UNL     1     -36.004  18.812  -2.252  0.00  0.00    +0.073 C 
ATOM     18  C   UNL     1     -34.857  17.636  -0.365  0.00  0.00    +0.001 C 
ATOM     19  C   UNL     1     -33.166  18.442  -2.842  0.00  0.00    -0.008 C 
ATOM     20  C   UNL     1     -33.589  23.210  -0.386  0.00  0.00    +0.317 C 
ATOM     21  C   UNL     1     -35.516  17.877  -3.336  0.00  0.00    +0.206 C 
ATOM     22  C   UNL     1     -34.051  17.736  -3.573  0.00  0.00    +0.160 C 
ATOM     23  C   UNL     1     -31.688  18.362  -3.131  0.00  0.00    +0.030 C 
ENDROOT
BRANCH  11  24
ATOM     24  O   UNL     1     -37.039  18.836   1.154  0.00  0.00    -0.382 OA
ATOM     25  H   UNL     1     -37.347  18.146   0.545  0.00  0.00    +0.210 HD
ENDBRANCH  11  24
BRANCH  14  26
ATOM     26  O   UNL     1     -37.732  22.315   0.670  0.00  0.00    -0.379 OA
ATOM     27  H   UNL     1     -38.097  22.981   1.274  0.00  0.00    +0.211 HD
ENDBRANCH  14  26
BRANCH   9  29
ATOM     28  O   UNL     1     -37.468  23.052   3.533  0.00  0.00    -0.247 OA
ATOM     29  C   UNL     1     -36.351  22.586   3.355  0.00  0.00    +0.344 C 
BRANCH  29  30
ATOM     30  O   UNL     1     -35.237  22.848   4.097  0.00  0.00    -0.447 OA
BRANCH  30  31
ATOM     31  C   UNL     1     -35.479  23.248   5.450  0.00  0.00    +0.209 C 
ATOM     32  C   UNL     1     -35.339  22.043   6.355  0.00  0.00    +0.051 C 
ENDBRANCH  30  31
ENDBRANCH  29  30
ENDBRANCH   9  29
BRANCH  22  33
ATOM     33  O   UNL     1     -33.654  16.876  -4.578  0.00  0.00    -0.503 OA
ATOM     34  H   UNL     1     -32.934  17.105  -5.132  0.00  0.00    +0.292 HD
ENDBRANCH  22  33
TORSDOF 6
ENDMDL
MODEL 6
REMARK VINA RESULT:      -5.8      1.775      7.112
REMARK  Name = 21126551
REMARK  6 active torsions:
REMARK  status: ('A' for Active; 'I' for Inactive)
REMARK    1  A    between atoms: C_9  and  C_29
REMARK    2  A    between atoms: C_11  and  O_24
REMARK    3  A    between atoms: C_14  and  O_26
REMARK    4  A    between atoms: C_22  and  O_33
REMARK    5  A    between atoms: C_29  and  O_30
REMARK    6  A    between atoms: O_30  and  C_31
REMARK                            x       y       z     vdW  Elec       q    Type
REMARK                         _______ _______ _______ _____ _____    ______ ____
ROOT
ATOM      1  O   UNL     1     -31.503  29.171   2.037  0.00  0.00    -0.345 OA
ATOM      2  O   UNL     1     -36.150  29.616   1.578  0.00  0.00    -0.452 OA
ATOM      3  O   UNL     1     -36.887  31.605   2.332  0.00  0.00    -0.250 OA
ATOM      4  O   UNL     1     -36.110  24.105   5.619  0.00  0.00    -0.288 OA
ATOM      5  C   UNL     1     -33.858  28.766   2.040  0.00  0.00    +0.070 C 
ATOM      6  C   UNL     1     -34.077  28.018   3.415  0.00  0.00    +0.036 C 
ATOM      7  C   UNL     1     -33.541  30.243   2.267  0.00  0.00    +0.055 C 
ATOM      8  C   UNL     1     -34.758  26.589   3.283  0.00  0.00    +0.014 C 
ATOM      9  C   UNL     1     -32.174  30.110   2.915  0.00  0.00    +0.208 C 
ATOM     10  C   UNL     1     -35.087  28.710   1.137  0.00  0.00    +0.171 C 
ATOM     11  C   UNL     1     -32.832  28.111   4.354  0.00  0.00    +0.140 C 
ATOM     12  C   UNL     1     -36.068  26.756   2.439  0.00  0.00    +0.025 C 
ATOM     13  C   UNL     1     -32.527  28.392   1.364  0.00  0.00    +0.146 C 
ATOM     14  C   UNL     1     -32.170  29.506   4.328  0.00  0.00    +0.172 C 
ATOM     15  C   UNL     1     -35.728  27.323   1.041  0.00  0.00    +0.048 C 
ATOM     16  C   UNL     1     -34.661  31.001   2.939  0.00  0.00    +0.113 C 
ATOM     17  C   UNL     1     -35.177  26.099   4.691  0.00  0.00    +0.073 C 
ATOM     18  C   UNL     1     -33.845  25.500   2.660  0.00  0.00    +0.001 C 
ATOM     19  C   UNL     1     -36.942  25.500   2.441  0.00  0.00    -0.008 C 
ATOM     20  C   UNL     1     -35.974  30.788   2.233  0.00  0.00    +0.317 C 
ATOM     21  C   UNL     1     -36.064  24.875   4.660  0.00  0.00    +0.206 C 
ATOM     22  C   UNL     1     -36.933  24.633   3.473  0.00  0.00    +0.160 C 
ATOM     23  C   UNL     1     -37.877  25.301   1.274  0.00  0.00    +0.030 C 
ENDROOT
BRANCH  11  24
ATOM     24  O   UNL     1     -31.845  27.148   4.000  0.00  0.00    -0.382 OA
ATOM     25  H   UNL     1     -32.149  26.641   3.231  0.00  0.00    +0.210 HD
ENDBRANCH  11  24
BRANCH  14  26
ATOM     26  O   UNL     1     -32.849  30.348   5.253  0.00  0.00    -0.379 OA
ATOM     27  H   UNL     1     -32.320  31.146   5.413  0.00  0.00    +0.211 HD
ENDBRANCH  14  26
BRANCH   9  29
ATOM     28  O   UNL     1     -30.585  31.746   3.688  0.00  0.00    -0.247 OA
ATOM     29  C   UNL     1     -31.354  31.360   2.817  0.00  0.00    +0.344 C 
BRANCH  29  30
ATOM     30  O   UNL     1     -31.604  31.977   1.627  0.00  0.00    -0.447 OA
BRANCH  30  31
ATOM     31  C   UNL     1     -31.458  33.401   1.629  0.00  0.00    +0.209 C 
ATOM     32  C   UNL     1     -32.736  34.028   2.141  0.00  0.00    +0.051 C 
ENDBRANCH  30  31
ENDBRANCH  29  30
ENDBRANCH   9  29
BRANCH  22  33
ATOM     33  O   UNL     1     -37.731  23.507   3.494  0.00  0.00    -0.503 OA
ATOM     34  H   UNL     1     -38.640  23.573   3.275  0.00  0.00    +0.292 HD
ENDBRANCH  22  33
TORSDOF 6
ENDMDL
MODEL 7
REMARK VINA RESULT:      -5.8      2.569      6.675
REMARK  Name = 21126551
REMARK  6 active torsions:
REMARK  status: ('A' for Active; 'I' for Inactive)
REMARK    1  A    between atoms: C_9  and  C_29
REMARK    2  A    between atoms: C_11  and  O_24
REMARK    3  A    between atoms: C_14  and  O_26
REMARK    4  A    between atoms: C_22  and  O_33
REMARK    5  A    between atoms: C_29  and  O_30
REMARK    6  A    between atoms: O_30  and  C_31
REMARK                            x       y       z     vdW  Elec       q    Type
REMARK                         _______ _______ _______ _____ _____    ______ ____
ROOT
ATOM      1  O   UNL     1     -34.881  27.861   3.216  0.00  0.00    -0.345 OA
ATOM      2  O   UNL     1     -36.573  23.811   4.874  0.00  0.00    -0.452 OA
ATOM      3  O   UNL     1     -35.187  22.869   6.376  0.00  0.00    -0.250 OA
ATOM      4  O   UNL     1     -36.304  22.101  -1.738  0.00  0.00    -0.288 OA
ATOM      5  C   UNL     1     -35.886  25.701   3.408  0.00  0.00    +0.070 C 
ATOM      6  C   UNL     1     -35.281  24.928   2.171  0.00  0.00    +0.036 C 
ATOM      7  C   UNL     1     -34.826  25.926   4.484  0.00  0.00    +0.055 C 
ATOM      8  C   UNL     1     -36.365  24.333   1.173  0.00  0.00    +0.014 C 
ATOM      9  C   UNL     1     -33.928  26.908   3.751  0.00  0.00    +0.208 C 
ATOM     10  C   UNL     1     -37.036  24.945   4.070  0.00  0.00    +0.171 C 
ATOM     11  C   UNL     1     -34.079  25.684   1.519  0.00  0.00    +0.140 C 
ATOM     12  C   UNL     1     -37.378  23.483   2.015  0.00  0.00    +0.025 C 
ATOM     13  C   UNL     1     -36.162  27.185   3.106  0.00  0.00    +0.146 C 
ATOM     14  C   UNL     1     -33.141  26.325   2.566  0.00  0.00    +0.172 C 
ATOM     15  C   UNL     1     -38.057  24.374   3.082  0.00  0.00    +0.048 C 
ATOM     16  C   UNL     1     -34.279  24.643   5.066  0.00  0.00    +0.113 C 
ATOM     17  C   UNL     1     -35.665  23.368   0.185  0.00  0.00    +0.073 C 
ATOM     18  C   UNL     1     -37.116  25.401   0.334  0.00  0.00    +0.001 C 
ATOM     19  C   UNL     1     -38.332  22.661   1.146  0.00  0.00    -0.008 C 
ATOM     20  C   UNL     1     -35.386  23.728   5.520  0.00  0.00    +0.317 C 
ATOM     21  C   UNL     1     -36.632  22.548  -0.638  0.00  0.00    +0.206 C 
ATOM     22  C   UNL     1     -37.979  22.233  -0.082  0.00  0.00    +0.160 C 
ATOM     23  C   UNL     1     -39.663  22.278   1.744  0.00  0.00    +0.030 C 
ENDROOT
BRANCH  11  24
ATOM     24  O   UNL     1     -34.529  26.711   0.643  0.00  0.00    -0.382 OA
ATOM     25  H   UNL     1     -35.027  26.316  -0.090  0.00  0.00    +0.210 HD
ENDBRANCH  11  24
BRANCH  14  26
ATOM     26  O   UNL     1     -32.205  25.345   2.999  0.00  0.00    -0.379 OA
ATOM     27  H   UNL     1     -32.678  24.539   3.263  0.00  0.00    +0.211 HD
ENDBRANCH  14  26
BRANCH   9  29
ATOM     28  O   UNL     1     -32.294  27.240   5.487  0.00  0.00    -0.247 OA
ATOM     29  C   UNL     1     -33.071  27.720   4.673  0.00  0.00    +0.344 C 
BRANCH  29  30
ATOM     30  O   UNL     1     -33.298  29.047   4.457  0.00  0.00    -0.447 OA
BRANCH  30  31
ATOM     31  C   UNL     1     -32.130  29.875   4.426  0.00  0.00    +0.209 C 
ATOM     32  C   UNL     1     -32.113  30.750   5.660  0.00  0.00    +0.051 C 
ENDBRANCH  30  31
ENDBRANCH  29  30
ENDBRANCH   9  29
BRANCH  22  33
ATOM     33  O   UNL     1     -38.825  21.475  -0.868  0.00  0.00    -0.503 OA
ATOM     34  H   UNL     1     -38.471  20.837  -1.456  0.00  0.00    +0.292 HD
ENDBRANCH  22  33
TORSDOF 6
ENDMDL
MODEL 8
REMARK VINA RESULT:      -5.7      2.638      7.032
REMARK  Name = 21126551
REMARK  6 active torsions:
REMARK  status: ('A' for Active; 'I' for Inactive)
REMARK    1  A    between atoms: C_9  and  C_29
REMARK    2  A    between atoms: C_11  and  O_24
REMARK    3  A    between atoms: C_14  and  O_26
REMARK    4  A    between atoms: C_22  and  O_33
REMARK    5  A    between atoms: C_29  and  O_30
REMARK    6  A    between atoms: O_30  and  C_31
REMARK                            x       y       z     vdW  Elec       q    Type
REMARK                         _______ _______ _______ _____ _____    ______ ____
ROOT
ATOM      1  O   UNL     1     -38.534  26.946   1.156  0.00  0.00    -0.345 OA
ATOM      2  O   UNL     1     -34.974  26.801   4.208  0.00  0.00    -0.452 OA
ATOM      3  O   UNL     1     -33.281  28.150   3.595  0.00  0.00    -0.250 OA
ATOM      4  O   UNL     1     -35.023  20.189   2.478  0.00  0.00    -0.288 OA
ATOM      5  C   UNL     1     -36.846  26.209   2.679  0.00  0.00    +0.070 C 
ATOM      6  C   UNL     1     -36.261  24.933   1.955  0.00  0.00    +0.036 C 
ATOM      7  C   UNL     1     -36.430  27.487   1.953  0.00  0.00    +0.055 C 
ATOM      8  C   UNL     1     -36.328  23.600   2.818  0.00  0.00    +0.014 C 
ATOM      9  C   UNL     1     -37.220  27.314   0.667  0.00  0.00    +0.208 C 
ATOM     10  C   UNL     1     -36.363  26.342   4.121  0.00  0.00    +0.171 C 
ATOM     11  C   UNL     1     -36.726  24.821   0.467  0.00  0.00    +0.140 C 
ATOM     12  C   UNL     1     -35.670  23.894   4.209  0.00  0.00    +0.025 C 
ATOM     13  C   UNL     1     -38.363  26.367   2.477  0.00  0.00    +0.146 C 
ATOM     14  C   UNL     1     -36.736  26.185  -0.257  0.00  0.00    +0.172 C 
ATOM     15  C   UNL     1     -36.427  25.039   4.922  0.00  0.00    +0.048 C 
ATOM     16  C   UNL     1     -34.936  27.709   1.935  0.00  0.00    +0.113 C 
ATOM     17  C   UNL     1     -35.475  22.509   2.126  0.00  0.00    +0.073 C 
ATOM     18  C   UNL     1     -37.760  23.030   3.004  0.00  0.00    +0.001 C 
ATOM     19  C   UNL     1     -35.454  22.631   5.045  0.00  0.00    -0.008 C 
ATOM     20  C   UNL     1     -34.347  27.605   3.318  0.00  0.00    +0.317 C 
ATOM     21  C   UNL     1     -35.254  21.286   2.987  0.00  0.00    +0.206 C 
ATOM     22  C   UNL     1     -35.264  21.427   4.471  0.00  0.00    +0.160 C 
ATOM     23  C   UNL     1     -35.386  22.792   6.543  0.00  0.00    +0.030 C 
ENDROOT
BRANCH  11  24
ATOM     24  O   UNL     1     -38.032  24.262   0.374  0.00  0.00    -0.382 OA
ATOM     25  H   UNL     1     -38.332  24.293  -0.548  0.00  0.00    +0.210 HD
ENDBRANCH  11  24
BRANCH  14  26
ATOM     26  O   UNL     1     -35.428  26.446  -0.753  0.00  0.00    -0.379 OA
ATOM     27  H   UNL     1     -35.084  27.258  -0.347  0.00  0.00    +0.211 HD
ENDBRANCH  14  26
BRANCH   9  29
ATOM     28  O   UNL     1     -38.459  29.278   0.035  0.00  0.00    -0.247 OA
ATOM     29  C   UNL     1     -37.443  28.604  -0.062  0.00  0.00    +0.344 C 
BRANCH  29  30
ATOM     30  O   UNL     1     -36.354  28.888  -0.831  0.00  0.00    -0.447 OA
BRANCH  30  31
ATOM     31  C   UNL     1     -36.621  29.621  -2.031  0.00  0.00    +0.209 C 
ATOM     32  C   UNL     1     -36.953  28.648  -3.141  0.00  0.00    +0.051 C 
ENDBRANCH  30  31
ENDBRANCH  29  30
ENDBRANCH   9  29
BRANCH  22  33
ATOM     33  O   UNL     1     -35.050  20.284   5.215  0.00  0.00    -0.503 OA
ATOM     34  H   UNL     1     -34.684  20.346   6.075  0.00  0.00    +0.292 HD
ENDBRANCH  22  33
TORSDOF 6
ENDMDL
MODEL 9
REMARK VINA RESULT:      -5.7      4.726      8.592
REMARK  Name = 21126551
REMARK  6 active torsions:
REMARK  status: ('A' for Active; 'I' for Inactive)
REMARK    1  A    between atoms: C_9  and  C_29
REMARK    2  A    between atoms: C_11  and  O_24
REMARK    3  A    between atoms: C_14  and  O_26
REMARK    4  A    between atoms: C_22  and  O_33
REMARK    5  A    between atoms: C_29  and  O_30
REMARK    6  A    between atoms: O_30  and  C_31
REMARK                            x       y       z     vdW  Elec       q    Type
REMARK                         _______ _______ _______ _____ _____    ______ ____
ROOT
ATOM      1  O   UNL     1     -36.616  25.149   0.861  0.00  0.00    -0.345 OA
ATOM      2  O   UNL     1     -38.881  21.166  -0.142  0.00  0.00    -0.452 OA
ATOM      3  O   UNL     1     -40.731  20.907   1.112  0.00  0.00    -0.250 OA
ATOM      4  O   UNL     1     -32.916  18.423   1.758  0.00  0.00    -0.288 OA
ATOM      5  C   UNL     1     -37.142  22.873   0.359  0.00  0.00    +0.070 C 
ATOM      6  C   UNL     1     -36.203  22.076   1.348  0.00  0.00    +0.036 C 
ATOM      7  C   UNL     1     -38.277  23.559   1.117  0.00  0.00    +0.055 C 
ATOM      8  C   UNL     1     -35.222  21.047   0.638  0.00  0.00    +0.014 C 
ATOM      9  C   UNL     1     -37.476  24.594   1.887  0.00  0.00    +0.208 C 
ATOM     10  C   UNL     1     -37.790  21.974  -0.691  0.00  0.00    +0.171 C 
ATOM     11  C   UNL     1     -35.572  22.992   2.446  0.00  0.00    +0.140 C 
ATOM     12  C   UNL     1     -36.083  20.127  -0.295  0.00  0.00    +0.025 C 
ATOM     13  C   UNL     1     -36.483  24.152  -0.187  0.00  0.00    +0.146 C 
ATOM     14  C   UNL     1     -36.571  24.034   2.996  0.00  0.00    +0.172 C 
ATOM     15  C   UNL     1     -36.822  20.986  -1.348  0.00  0.00    +0.048 C 
ATOM     16  C   UNL     1     -39.199  22.592   1.821  0.00  0.00    +0.113 C 
ATOM     17  C   UNL     1     -34.580  20.139   1.714  0.00  0.00    +0.073 C 
ATOM     18  C   UNL     1     -34.072  21.711  -0.165  0.00  0.00    +0.001 C 
ATOM     19  C   UNL     1     -35.295  18.941  -0.853  0.00  0.00    -0.008 C 
ATOM     20  C   UNL     1     -39.687  21.515   0.888  0.00  0.00    +0.317 C 
ATOM     21  C   UNL     1     -33.833  18.959   1.134  0.00  0.00    +0.206 C 
ATOM     22  C   UNL     1     -34.253  18.406  -0.185  0.00  0.00    +0.160 C 
ATOM     23  C   UNL     1     -35.773  18.336  -2.149  0.00  0.00    +0.030 C 
ENDROOT
BRANCH  11  24
ATOM     24  O   UNL     1     -34.437  23.689   1.948  0.00  0.00    -0.382 OA
ATOM     25  H   UNL     1     -34.077  23.215   1.181  0.00  0.00    +0.210 HD
ENDBRANCH  11  24
BRANCH  14  26
ATOM     26  O   UNL     1     -37.335  23.429   4.033  0.00  0.00    -0.379 OA
ATOM     27  H   UNL     1     -37.271  23.966   4.838  0.00  0.00    +0.211 HD
ENDBRANCH  14  26
BRANCH   9  29
ATOM     28  O   UNL     1     -38.108  26.913   2.006  0.00  0.00    -0.247 OA
ATOM     29  C   UNL     1     -38.304  25.755   2.346  0.00  0.00    +0.344 C 
BRANCH  29  30
ATOM     30  O   UNL     1     -39.285  25.312   3.183  0.00  0.00    -0.447 OA
BRANCH  30  31
ATOM     31  C   UNL     1     -40.514  26.044   3.132  0.00  0.00    +0.209 C 
ATOM     32  C   UNL     1     -41.333  25.553   1.958  0.00  0.00    +0.051 C 
ENDBRANCH  30  31
ENDBRANCH  29  30
ENDBRANCH   9  29
BRANCH  22  33
ATOM     33  O   UNL     1     -33.547  17.324  -0.670  0.00  0.00    -0.503 OA
ATOM     34  H   UNL     1     -32.639  17.225  -0.460  0.00  0.00    +0.292 HD
ENDBRANCH  22  33
TORSDOF 6
ENDMDL
