MODEL 1
REMARK VINA RESULT:      -6.6      0.000      0.000
REMARK  Name = 19988
REMARK  5 active torsions:
REMARK  status: ('A' for Active; 'I' for Inactive)
REMARK    1  A    between atoms: C_1  and  S_7
REMARK    2  A    between atoms: C_2  and  C_16
REMARK    3  A    between atoms: C_4  and  O_11
REMARK    4  A    between atoms: C_5  and  O_13
REMARK    5  A    between atoms: C_16  and  C_17
REMARK                            x       y       z     vdW  Elec       q    Type
REMARK                         _______ _______ _______ _____ _____    ______ ____
ROOT
ATOM      1  C   UNL     1     -36.040  24.239   3.336  0.00  0.00    +0.146 C 
ATOM      2  C   UNL     1     -35.617  21.896   3.205  0.00  0.00    +0.074 C 
ATOM      3  C   UNL     1     -35.939  23.077   2.572  0.00  0.00    +0.028 C 
ATOM      4  C   UNL     1     -35.817  24.190   4.714  0.00  0.00    +0.159 C 
ATOM      5  C   UNL     1     -35.392  21.817   4.560  0.00  0.00    +0.140 C 
ATOM      6  C   UNL     1     -35.493  22.980   5.325  0.00  0.00    +0.075 C 
ENDROOT
BRANCH   1   7
ATOM      7  S   UNL     1     -36.447  25.745   2.546  0.00  0.00    +0.045 S 
ATOM      8  O   UNL     1     -36.669  25.356   0.975  0.00  0.00    -0.065 OA
ATOM      9  O   UNL     1     -37.733  26.187   3.062  0.00  0.00    -0.065 OA
ATOM     10  O   UNL     1     -35.274  26.600   2.640  0.00  0.00    -0.065 OA
ENDBRANCH   1   7
BRANCH   4  11
ATOM     11  O   UNL     1     -35.911  25.313   5.480  0.00  0.00    -0.470 OA
ATOM     12  C   UNL     1     -34.688  25.904   5.914  0.00  0.00    +0.253 C 
ENDBRANCH   4  11
BRANCH   5  13
ATOM     13  O   UNL     1     -35.076  20.643   5.177  0.00  0.00    -0.505 OA
ATOM     14  H   UNL     1     -35.643  20.294   5.836  0.00  0.00    +0.292 HD
ENDBRANCH   5  13
BRANCH   2  16
ATOM     15  O   UNL     1     -36.485  19.892   2.369  0.00  0.00    -0.286 OA
ATOM     16  C   UNL     1     -35.514  20.663   2.368  0.00  0.00    +0.199 C 
BRANCH  16  17
ATOM     17  C   UNL     1     -34.335  20.357   1.575  0.00  0.00    +0.039 C 
ATOM     18  C   UNL     1     -33.848  21.289   0.658  0.00  0.00    +0.003 C 
ATOM     19  C   UNL     1     -33.689  19.129   1.730  0.00  0.00    +0.003 C 
ATOM     20  C   UNL     1     -32.718  20.995  -0.102  0.00  0.00    +0.000 C 
ATOM     21  C   UNL     1     -32.558  18.835   0.968  0.00  0.00    +0.000 C 
ATOM     22  C   UNL     1     -32.072  19.768   0.052  0.00  0.00    +0.000 C 
ENDBRANCH  16  17
ENDBRANCH   2  16
TORSDOF 5
ENDMDL
MODEL 2
REMARK VINA RESULT:      -6.1      1.585      2.131
REMARK  Name = 19988
REMARK  5 active torsions:
REMARK  status: ('A' for Active; 'I' for Inactive)
REMARK    1  A    between atoms: C_1  and  S_7
REMARK    2  A    between atoms: C_2  and  C_16
REMARK    3  A    between atoms: C_4  and  O_11
REMARK    4  A    between atoms: C_5  and  O_13
REMARK    5  A    between atoms: C_16  and  C_17
REMARK                            x       y       z     vdW  Elec       q    Type
REMARK                         _______ _______ _______ _____ _____    ______ ____
ROOT
ATOM      1  C   UNL     1     -34.809  25.666   3.548  0.00  0.00    +0.146 C 
ATOM      2  C   UNL     1     -35.602  23.432   3.297  0.00  0.00    +0.074 C 
ATOM      3  C   UNL     1     -35.149  24.597   2.719  0.00  0.00    +0.028 C 
ATOM      4  C   UNL     1     -34.932  25.541   4.934  0.00  0.00    +0.159 C 
ATOM      5  C   UNL     1     -35.733  23.278   4.657  0.00  0.00    +0.140 C 
ATOM      6  C   UNL     1     -35.394  24.347   5.487  0.00  0.00    +0.075 C 
ENDROOT
BRANCH   1   7
ATOM      7  S   UNL     1     -34.232  27.152   2.830  0.00  0.00    +0.045 S 
ATOM      8  O   UNL     1     -34.560  27.011   1.235  0.00  0.00    -0.065 OA
ATOM      9  O   UNL     1     -35.051  28.242   3.338  0.00  0.00    -0.065 OA
ATOM     10  O   UNL     1     -32.788  27.166   2.995  0.00  0.00    -0.065 OA
ENDBRANCH   1   7
BRANCH   4  11
ATOM     11  O   UNL     1     -34.607  26.571   5.762  0.00  0.00    -0.470 OA
ATOM     12  C   UNL     1     -33.358  26.483   6.447  0.00  0.00    +0.253 C 
ENDBRANCH   4  11
BRANCH   5  13
ATOM     13  O   UNL     1     -36.184  22.121   5.218  0.00  0.00    -0.505 OA
ATOM     14  H   UNL     1     -35.578  21.523   5.609  0.00  0.00    +0.292 HD
ENDBRANCH   5  13
BRANCH   2  16
ATOM     15  O   UNL     1     -37.166  22.086   2.195  0.00  0.00    -0.286 OA
ATOM     16  C   UNL     1     -35.960  22.299   2.390  0.00  0.00    +0.199 C 
BRANCH  16  17
ATOM     17  C   UNL     1     -34.955  21.466   1.749  0.00  0.00    +0.039 C 
ATOM     18  C   UNL     1     -34.793  20.138   2.146  0.00  0.00    +0.003 C 
ATOM     19  C   UNL     1     -34.153  21.994   0.737  0.00  0.00    +0.003 C 
ATOM     20  C   UNL     1     -33.830  19.339   1.532  0.00  0.00    +0.000 C 
ATOM     21  C   UNL     1     -33.189  21.194   0.123  0.00  0.00    +0.000 C 
ATOM     22  C   UNL     1     -33.028  19.867   0.519  0.00  0.00    +0.000 C 
ENDBRANCH  16  17
ENDBRANCH   2  16
TORSDOF 5
ENDMDL
MODEL 3
REMARK VINA RESULT:      -6.1      3.300      5.645
REMARK  Name = 19988
REMARK  5 active torsions:
REMARK  status: ('A' for Active; 'I' for Inactive)
REMARK    1  A    between atoms: C_1  and  S_7
REMARK    2  A    between atoms: C_2  and  C_16
REMARK    3  A    between atoms: C_4  and  O_11
REMARK    4  A    between atoms: C_5  and  O_13
REMARK    5  A    between atoms: C_16  and  C_17
REMARK                            x       y       z     vdW  Elec       q    Type
REMARK                         _______ _______ _______ _____ _____    ______ ____
ROOT
ATOM      1  C   UNL     1     -33.334  27.537   4.094  0.00  0.00    +0.146 C 
ATOM      2  C   UNL     1     -35.218  26.168   3.585  0.00  0.00    +0.074 C 
ATOM      3  C   UNL     1     -34.273  26.587   4.495  0.00  0.00    +0.028 C 
ATOM      4  C   UNL     1     -33.364  28.043   2.793  0.00  0.00    +0.159 C 
ATOM      5  C   UNL     1     -35.274  26.648   2.297  0.00  0.00    +0.140 C 
ATOM      6  C   UNL     1     -34.334  27.598   1.896  0.00  0.00    +0.075 C 
ENDROOT
BRANCH   1   7
ATOM      7  S   UNL     1     -32.128  28.079   5.239  0.00  0.00    +0.045 S 
ATOM      8  O   UNL     1     -32.348  27.147   6.563  0.00  0.00    -0.065 OA
ATOM      9  O   UNL     1     -30.818  27.748   4.698  0.00  0.00    -0.065 OA
ATOM     10  O   UNL     1     -32.465  29.449   5.587  0.00  0.00    -0.065 OA
ENDBRANCH   1   7
BRANCH   4  11
ATOM     11  O   UNL     1     -32.457  28.971   2.380  0.00  0.00    -0.470 OA
ATOM     12  C   UNL     1     -32.947  30.286   2.124  0.00  0.00    +0.253 C 
ENDBRANCH   4  11
BRANCH   5  13
ATOM     13  O   UNL     1     -36.212  26.226   1.403  0.00  0.00    -0.505 OA
ATOM     14  H   UNL     1     -36.706  26.853   0.912  0.00  0.00    +0.292 HD
ENDBRANCH   5  13
BRANCH   2  16
ATOM     15  O   UNL     1     -37.410  25.477   4.015  0.00  0.00    -0.286 OA
ATOM     16  C   UNL     1     -36.214  25.150   4.035  0.00  0.00    +0.199 C 
BRANCH  16  17
ATOM     17  C   UNL     1     -35.825  23.823   4.482  0.00  0.00    +0.039 C 
ATOM     18  C   UNL     1     -35.718  22.780   3.561  0.00  0.00    +0.003 C 
ATOM     19  C   UNL     1     -35.558  23.592   5.832  0.00  0.00    +0.003 C 
ATOM     20  C   UNL     1     -35.344  21.507   3.990  0.00  0.00    +0.000 C 
ATOM     21  C   UNL     1     -35.184  22.318   6.260  0.00  0.00    +0.000 C 
ATOM     22  C   UNL     1     -35.076  21.275   5.339  0.00  0.00    +0.000 C 
ENDBRANCH  16  17
ENDBRANCH   2  16
TORSDOF 5
ENDMDL
MODEL 4
REMARK VINA RESULT:      -6.1      1.535      2.322
REMARK  Name = 19988
REMARK  5 active torsions:
REMARK  status: ('A' for Active; 'I' for Inactive)
REMARK    1  A    between atoms: C_1  and  S_7
REMARK    2  A    between atoms: C_2  and  C_16
REMARK    3  A    between atoms: C_4  and  O_11
REMARK    4  A    between atoms: C_5  and  O_13
REMARK    5  A    between atoms: C_16  and  C_17
REMARK                            x       y       z     vdW  Elec       q    Type
REMARK                         _______ _______ _______ _____ _____    ______ ____
ROOT
ATOM      1  C   UNL     1     -34.850  23.761   2.443  0.00  0.00    +0.146 C 
ATOM      2  C   UNL     1     -35.077  21.546   1.590  0.00  0.00    +0.074 C 
ATOM      3  C   UNL     1     -34.504  22.796   1.498  0.00  0.00    +0.028 C 
ATOM      4  C   UNL     1     -35.760  23.451   3.456  0.00  0.00    +0.159 C 
ATOM      5  C   UNL     1     -35.976  21.211   2.576  0.00  0.00    +0.140 C 
ATOM      6  C   UNL     1     -36.322  22.177   3.521  0.00  0.00    +0.075 C 
ENDROOT
BRANCH   1   7
ATOM      7  S   UNL     1     -34.131  25.352   2.339  0.00  0.00    +0.045 S 
ATOM      8  O   UNL     1     -33.260  25.336   0.957  0.00  0.00    -0.065 OA
ATOM      9  O   UNL     1     -35.205  26.316   2.155  0.00  0.00    -0.065 OA
ATOM     10  O   UNL     1     -33.208  25.469   3.455  0.00  0.00    -0.065 OA
ENDBRANCH   1   7
BRANCH   4  11
ATOM     11  O   UNL     1     -36.113  24.378   4.389  0.00  0.00    -0.470 OA
ATOM     12  C   UNL     1     -35.589  24.205   5.704  0.00  0.00    +0.253 C 
ENDBRANCH   4  11
BRANCH   5  13
ATOM     13  O   UNL     1     -36.538  19.972   2.657  0.00  0.00    -0.505 OA
ATOM     14  H   UNL     1     -36.907  19.679   3.466  0.00  0.00    +0.292 HD
ENDBRANCH   5  13
BRANCH   2  16
ATOM     15  O   UNL     1     -35.507  20.294  -0.338  0.00  0.00    -0.286 OA
ATOM     16  C   UNL     1     -34.692  20.527   0.568  0.00  0.00    +0.199 C 
BRANCH  16  17
ATOM     17  C   UNL     1     -33.421  19.823   0.608  0.00  0.00    +0.039 C 
ATOM     18  C   UNL     1     -33.304  18.633   1.327  0.00  0.00    +0.003 C 
ATOM     19  C   UNL     1     -32.316  20.338  -0.072  0.00  0.00    +0.003 C 
ATOM     20  C   UNL     1     -32.085  17.958   1.365  0.00  0.00    +0.000 C 
ATOM     21  C   UNL     1     -31.097  19.663  -0.033  0.00  0.00    +0.000 C 
ATOM     22  C   UNL     1     -30.981  18.472   0.685  0.00  0.00    +0.000 C 
ENDBRANCH  16  17
ENDBRANCH   2  16
TORSDOF 5
ENDMDL
MODEL 5
REMARK VINA RESULT:      -6.0      3.506      5.879
REMARK  Name = 19988
REMARK  5 active torsions:
REMARK  status: ('A' for Active; 'I' for Inactive)
REMARK    1  A    between atoms: C_1  and  S_7
REMARK    2  A    between atoms: C_2  and  C_16
REMARK    3  A    between atoms: C_4  and  O_11
REMARK    4  A    between atoms: C_5  and  O_13
REMARK    5  A    between atoms: C_16  and  C_17
REMARK                            x       y       z     vdW  Elec       q    Type
REMARK                         _______ _______ _______ _____ _____    ______ ____
ROOT
ATOM      1  C   UNL     1     -39.590  23.092   1.153  0.00  0.00    +0.146 C 
ATOM      2  C   UNL     1     -37.952  24.285   2.408  0.00  0.00    +0.074 C 
ATOM      3  C   UNL     1     -38.282  23.201   1.625  0.00  0.00    +0.028 C 
ATOM      4  C   UNL     1     -40.533  24.069   1.476  0.00  0.00    +0.159 C 
ATOM      5  C   UNL     1     -38.858  25.264   2.744  0.00  0.00    +0.140 C 
ATOM      6  C   UNL     1     -40.167  25.154   2.271  0.00  0.00    +0.075 C 
ENDROOT
BRANCH   1   7
ATOM      7  S   UNL     1     -40.025  21.721   0.157  0.00  0.00    +0.045 S 
ATOM      8  O   UNL     1     -38.649  20.853   0.003  0.00  0.00    -0.065 OA
ATOM      9  O   UNL     1     -40.963  20.902   0.910  0.00  0.00    -0.065 OA
ATOM     10  O   UNL     1     -40.378  22.247  -1.151  0.00  0.00    -0.065 OA
ENDBRANCH   1   7
BRANCH   4  11
ATOM     11  O   UNL     1     -41.816  23.983   1.027  0.00  0.00    -0.470 OA
ATOM     12  C   UNL     1     -42.291  25.055   0.214  0.00  0.00    +0.253 C 
ENDBRANCH   4  11
BRANCH   5  13
ATOM     13  O   UNL     1     -38.521  26.332   3.520  0.00  0.00    -0.505 OA
ATOM     14  H   UNL     1     -39.095  27.071   3.575  0.00  0.00    +0.292 HD
ENDBRANCH   5  13
BRANCH   2  16
ATOM     15  O   UNL     1     -35.825  25.258   2.401  0.00  0.00    -0.286 OA
ATOM     16  C   UNL     1     -36.546  24.383   2.903  0.00  0.00    +0.199 C 
BRANCH  16  17
ATOM     17  C   UNL     1     -36.018  23.501   3.932  0.00  0.00    +0.039 C 
ATOM     18  C   UNL     1     -35.836  23.976   5.231  0.00  0.00    +0.003 C 
ATOM     19  C   UNL     1     -35.695  22.180   3.620  0.00  0.00    +0.003 C 
ATOM     20  C   UNL     1     -35.331  23.130   6.218  0.00  0.00    +0.000 C 
ATOM     21  C   UNL     1     -35.189  21.335   4.607  0.00  0.00    +0.000 C 
ATOM     22  C   UNL     1     -35.007  21.809   5.907  0.00  0.00    +0.000 C 
ENDBRANCH  16  17
ENDBRANCH   2  16
TORSDOF 5
ENDMDL
MODEL 6
REMARK VINA RESULT:      -5.9      2.999      5.701
REMARK  Name = 19988
REMARK  5 active torsions:
REMARK  status: ('A' for Active; 'I' for Inactive)
REMARK    1  A    between atoms: C_1  and  S_7
REMARK    2  A    between atoms: C_2  and  C_16
REMARK    3  A    between atoms: C_4  and  O_11
REMARK    4  A    between atoms: C_5  and  O_13
REMARK    5  A    between atoms: C_16  and  C_17
REMARK                            x       y       z     vdW  Elec       q    Type
REMARK                         _______ _______ _______ _____ _____    ______ ____
ROOT
ATOM      1  C   UNL     1     -38.186  21.261   1.261  0.00  0.00    +0.146 C 
ATOM      2  C   UNL     1     -36.281  21.186   2.694  0.00  0.00    +0.074 C 
ATOM      3  C   UNL     1     -37.505  21.736   2.382  0.00  0.00    +0.028 C 
ATOM      4  C   UNL     1     -37.625  20.248   0.482  0.00  0.00    +0.159 C 
ATOM      5  C   UNL     1     -35.703  20.187   1.945  0.00  0.00    +0.140 C 
ATOM      6  C   UNL     1     -36.384  19.712   0.824  0.00  0.00    +0.075 C 
ENDROOT
BRANCH   1   7
ATOM      7  S   UNL     1     -39.741  21.950   0.854  0.00  0.00    +0.045 S 
ATOM      8  O   UNL     1     -40.120  22.922   2.111  0.00  0.00    -0.065 OA
ATOM      9  O   UNL     1     -39.559  22.806  -0.308  0.00  0.00    -0.065 OA
ATOM     10  O   UNL     1     -40.693  20.851   0.827  0.00  0.00    -0.065 OA
ENDBRANCH   1   7
BRANCH   4  11
ATOM     11  O   UNL     1     -38.272  19.768  -0.617  0.00  0.00    -0.470 OA
ATOM     12  C   UNL     1     -38.370  18.351  -0.744  0.00  0.00    +0.253 C 
ENDBRANCH   4  11
BRANCH   5  13
ATOM     13  O   UNL     1     -34.491  19.651   2.261  0.00  0.00    -0.505 OA
ATOM     14  H   UNL     1     -34.325  19.350   3.133  0.00  0.00    +0.292 HD
ENDBRANCH   5  13
BRANCH   2  16
ATOM     15  O   UNL     1     -35.178  20.880   4.733  0.00  0.00    -0.286 OA
ATOM     16  C   UNL     1     -35.569  21.710   3.898  0.00  0.00    +0.199 C 
BRANCH  16  17
ATOM     17  C   UNL     1     -35.331  23.128   4.107  0.00  0.00    +0.039 C 
ATOM     18  C   UNL     1     -34.801  23.906   3.077  0.00  0.00    +0.003 C 
ATOM     19  C   UNL     1     -35.633  23.713   5.338  0.00  0.00    +0.003 C 
ATOM     20  C   UNL     1     -34.573  25.267   3.278  0.00  0.00    +0.000 C 
ATOM     21  C   UNL     1     -35.404  25.074   5.538  0.00  0.00    +0.000 C 
ATOM     22  C   UNL     1     -34.874  25.852   4.508  0.00  0.00    +0.000 C 
ENDBRANCH  16  17
ENDBRANCH   2  16
TORSDOF 5
ENDMDL
MODEL 7
REMARK VINA RESULT:      -5.9      1.671      3.082
REMARK  Name = 19988
REMARK  5 active torsions:
REMARK  status: ('A' for Active; 'I' for Inactive)
REMARK    1  A    between atoms: C_1  and  S_7
REMARK    2  A    between atoms: C_2  and  C_16
REMARK    3  A    between atoms: C_4  and  O_11
REMARK    4  A    between atoms: C_5  and  O_13
REMARK    5  A    between atoms: C_16  and  C_17
REMARK                            x       y       z     vdW  Elec       q    Type
REMARK                         _______ _______ _______ _____ _____    ______ ____
ROOT
ATOM      1  C   UNL     1     -35.524  23.309   3.392  0.00  0.00    +0.146 C 
ATOM      2  C   UNL     1     -35.590  21.655   1.676  0.00  0.00    +0.074 C 
ATOM      3  C   UNL     1     -35.205  22.027   2.945  0.00  0.00    +0.028 C 
ATOM      4  C   UNL     1     -36.219  24.187   2.557  0.00  0.00    +0.159 C 
ATOM      5  C   UNL     1     -36.275  22.497   0.830  0.00  0.00    +0.140 C 
ATOM      6  C   UNL     1     -36.594  23.780   1.277  0.00  0.00    +0.075 C 
ENDROOT
BRANCH   1   7
ATOM      7  S   UNL     1     -35.043  23.795   5.001  0.00  0.00    +0.045 S 
ATOM      8  O   UNL     1     -34.650  22.406   5.767  0.00  0.00    -0.065 OA
ATOM      9  O   UNL     1     -33.822  24.578   4.885  0.00  0.00    -0.065 OA
ATOM     10  O   UNL     1     -36.224  24.349   5.644  0.00  0.00    -0.065 OA
ENDBRANCH   1   7
BRANCH   4  11
ATOM     11  O   UNL     1     -36.540  25.443   2.971  0.00  0.00    -0.470 OA
ATOM     12  C   UNL     1     -37.887  25.869   2.766  0.00  0.00    +0.253 C 
ENDBRANCH   4  11
BRANCH   5  13
ATOM     13  O   UNL     1     -36.650  22.119  -0.424  0.00  0.00    -0.505 OA
ATOM     14  H   UNL     1     -37.556  22.113  -0.660  0.00  0.00    +0.292 HD
ENDBRANCH   5  13
BRANCH   2  16
ATOM     15  O   UNL     1     -36.170  19.471   1.073  0.00  0.00    -0.286 OA
ATOM     16  C   UNL     1     -35.239  20.278   1.218  0.00  0.00    +0.199 C 
BRANCH  16  17
ATOM     17  C   UNL     1     -33.869  19.872   0.945  0.00  0.00    +0.039 C 
ATOM     18  C   UNL     1     -33.029  20.706   0.207  0.00  0.00    +0.003 C 
ATOM     19  C   UNL     1     -33.396  18.649   1.421  0.00  0.00    +0.003 C 
ATOM     20  C   UNL     1     -31.716  20.318  -0.054  0.00  0.00    +0.000 C 
ATOM     21  C   UNL     1     -32.082  18.261   1.159  0.00  0.00    +0.000 C 
ATOM     22  C   UNL     1     -31.241  19.095   0.422  0.00  0.00    +0.000 C 
ENDBRANCH  16  17
ENDBRANCH   2  16
TORSDOF 5
ENDMDL
MODEL 8
REMARK VINA RESULT:      -5.9      2.444      3.244
REMARK  Name = 19988
REMARK  5 active torsions:
REMARK  status: ('A' for Active; 'I' for Inactive)
REMARK    1  A    between atoms: C_1  and  S_7
REMARK    2  A    between atoms: C_2  and  C_16
REMARK    3  A    between atoms: C_4  and  O_11
REMARK    4  A    between atoms: C_5  and  O_13
REMARK    5  A    between atoms: C_16  and  C_17
REMARK                            x       y       z     vdW  Elec       q    Type
REMARK                         _______ _______ _______ _____ _____    ______ ____
ROOT
ATOM      1  C   UNL     1     -34.838  25.068   3.460  0.00  0.00    +0.146 C 
ATOM      2  C   UNL     1     -35.526  22.798   3.693  0.00  0.00    +0.074 C 
ATOM      3  C   UNL     1     -35.124  23.833   2.879  0.00  0.00    +0.028 C 
ATOM      4  C   UNL     1     -34.962  25.236   4.841  0.00  0.00    +0.159 C 
ATOM      5  C   UNL     1     -35.659  22.932   5.056  0.00  0.00    +0.140 C 
ATOM      6  C   UNL     1     -35.373  24.168   5.637  0.00  0.00    +0.075 C 
ENDROOT
BRANCH   1   7
ATOM      7  S   UNL     1     -34.324  26.392   2.439  0.00  0.00    +0.045 S 
ATOM      8  O   UNL     1     -34.420  25.816   0.913  0.00  0.00    -0.065 OA
ATOM      9  O   UNL     1     -35.311  27.455   2.556  0.00  0.00    -0.065 OA
ATOM     10  O   UNL     1     -32.924  26.639   2.743  0.00  0.00    -0.065 OA
ENDBRANCH   1   7
BRANCH   4  11
ATOM     11  O   UNL     1     -34.689  26.433   5.430  0.00  0.00    -0.470 OA
ATOM     12  C   UNL     1     -33.529  26.497   6.258  0.00  0.00    +0.253 C 
ENDBRANCH   4  11
BRANCH   5  13
ATOM     13  O   UNL     1     -36.060  21.901   5.852  0.00  0.00    -0.505 OA
ATOM     14  H   UNL     1     -36.151  21.041   5.494  0.00  0.00    +0.292 HD
ENDBRANCH   5  13
BRANCH   2  16
ATOM     15  O   UNL     1     -35.090  20.528   3.337  0.00  0.00    -0.286 OA
ATOM     16  C   UNL     1     -35.827  21.483   3.050  0.00  0.00    +0.199 C 
BRANCH  16  17
ATOM     17  C   UNL     1     -36.933  21.304   2.124  0.00  0.00    +0.039 C 
ATOM     18  C   UNL     1     -36.787  20.469   1.016  0.00  0.00    +0.003 C 
ATOM     19  C   UNL     1     -38.142  21.967   2.343  0.00  0.00    +0.003 C 
ATOM     20  C   UNL     1     -37.848  20.297   0.128  0.00  0.00    +0.000 C 
ATOM     21  C   UNL     1     -39.203  21.794   1.454  0.00  0.00    +0.000 C 
ATOM     22  C   UNL     1     -39.056  20.958   0.347  0.00  0.00    +0.000 C 
ENDBRANCH  16  17
ENDBRANCH   2  16
TORSDOF 5
ENDMDL
MODEL 9
REMARK VINA RESULT:      -5.8      3.537      6.661
REMARK  Name = 19988
REMARK  5 active torsions:
REMARK  status: ('A' for Active; 'I' for Inactive)
REMARK    1  A    between atoms: C_1  and  S_7
REMARK    2  A    between atoms: C_2  and  C_16
REMARK    3  A    between atoms: C_4  and  O_11
REMARK    4  A    between atoms: C_5  and  O_13
REMARK    5  A    between atoms: C_16  and  C_17
REMARK                            x       y       z     vdW  Elec       q    Type
REMARK                         _______ _______ _______ _____ _____    ______ ____
ROOT
ATOM      1  C   UNL     1     -35.186  24.133   3.645  0.00  0.00    +0.146 C 
ATOM      2  C   UNL     1     -33.843  26.062   4.045  0.00  0.00    +0.074 C 
ATOM      3  C   UNL     1     -34.395  25.170   3.151  0.00  0.00    +0.028 C 
ATOM      4  C   UNL     1     -35.405  24.015   5.018  0.00  0.00    +0.159 C 
ATOM      5  C   UNL     1     -34.040  25.971   5.403  0.00  0.00    +0.140 C 
ATOM      6  C   UNL     1     -34.831  24.933   5.897  0.00  0.00    +0.075 C 
ENDROOT
BRANCH   1   7
ATOM      7  S   UNL     1     -35.894  22.994   2.522  0.00  0.00    +0.045 S 
ATOM      8  O   UNL     1     -35.421  23.502   1.043  0.00  0.00    -0.065 OA
ATOM      9  O   UNL     1     -35.271  21.699   2.748  0.00  0.00    -0.065 OA
ATOM     10  O   UNL     1     -37.336  23.152   2.616  0.00  0.00    -0.065 OA
ENDBRANCH   1   7
BRANCH   4  11
ATOM     11  O   UNL     1     -36.173  23.010   5.522  0.00  0.00    -0.470 OA
ATOM     12  C   UNL     1     -35.512  22.022   6.311  0.00  0.00    +0.253 C 
ENDBRANCH   4  11
BRANCH   5  13
ATOM     13  O   UNL     1     -33.488  26.858   6.278  0.00  0.00    -0.505 OA
ATOM     14  H   UNL     1     -32.816  26.576   6.868  0.00  0.00    +0.292 HD
ENDBRANCH   5  13
BRANCH   2  16
ATOM     15  O   UNL     1     -31.841  26.881   3.157  0.00  0.00    -0.286 OA
ATOM     16  C   UNL     1     -32.999  27.165   3.495  0.00  0.00    +0.199 C 
BRANCH  16  17
ATOM     17  C   UNL     1     -33.492  28.525   3.351  0.00  0.00    +0.039 C 
ATOM     18  C   UNL     1     -32.728  29.597   3.814  0.00  0.00    +0.003 C 
ATOM     19  C   UNL     1     -34.729  28.759   2.749  0.00  0.00    +0.003 C 
ATOM     20  C   UNL     1     -33.200  30.901   3.675  0.00  0.00    +0.000 C 
ATOM     21  C   UNL     1     -35.201  30.065   2.611  0.00  0.00    +0.000 C 
ATOM     22  C   UNL     1     -34.436  31.136   3.073  0.00  0.00    +0.000 C 
ENDBRANCH  16  17
ENDBRANCH   2  16
TORSDOF 5
ENDMDL
