MODEL 1
REMARK VINA RESULT:      -5.6      0.000      0.000
REMARK  Name = 5487171
REMARK  15 active torsions:
REMARK  status: ('A' for Active; 'I' for Inactive)
REMARK    1  A    between atoms: N_1  and  CA_4
REMARK    2  A    between atoms: N_1  and  CA_17
REMARK    3  A    between atoms: CA_4  and  C_12
REMARK    4  A    between atoms: CA_8  and  C_14
REMARK    5  A    between atoms: C_14  and  O_15
REMARK    6  A    between atoms: CA_17  and  C_19
REMARK    7  A    between atoms: CA_17  and  C_22
REMARK    8  A    between atoms: C_19  and  O_20
REMARK    9  A    between atoms: C_22  and  C_23
REMARK   10  A    between atoms: C_23  and  C_24
REMARK   11  A    between atoms: C_24  and  C_25
REMARK   12  A    between atoms: C_25  and  C_26
REMARK   13  A    between atoms: C_26  and  C_27
REMARK   14  A    between atoms: C_27  and  C_28
REMARK   15  A    between atoms: C_28  and  N_29
REMARK                            x       y       z     vdW  Elec       q    Type
REMARK                         _______ _______ _______ _____ _____    ______ ____
ROOT
ATOM      1  N   UNL     1     -37.665  20.836   1.984  0.00  0.00    +0.399 N 
ATOM      2  H1  UNL     1     -38.160  19.962   1.814  0.00  0.00    -0.083 HD
ATOM      3  H2  UNL     1     -37.660  21.051   2.982  0.00  0.00    -0.083 HD
ENDROOT
BRANCH   1   4
ATOM      4  CA  UNL     1     -38.340  21.913   1.278  0.00  0.00    +0.018 C 
ATOM      5  CB  UNL     1     -39.823  21.613   1.131  0.00  0.00    -0.014 C 
BRANCH   4  12
ATOM      6  O   UNL     1     -38.591  23.266   3.222  0.00  0.00    -0.277 OA
ATOM      7  N   UNL     1     -37.428  24.180   1.441  0.00  0.00    -0.273 N 
ATOM      8  CA  UNL     1     -37.004  25.394   2.125  0.00  0.00    +0.174 C 
ATOM      9  CB  UNL     1     -35.906  25.974   1.240  0.00  0.00    +0.033 C 
ATOM     10  CD  UNL     1     -36.871  24.113   0.092  0.00  0.00    +0.094 C 
ATOM     11  CG  UNL     1     -36.289  25.496  -0.159  0.00  0.00    +0.024 C 
ATOM     12  C   UNL     1     -38.135  23.173   2.080  0.00  0.00    +0.206 C 
BRANCH   8  14
ATOM     13  OXT UNL     1     -38.665  26.921   1.256  0.00  0.00    -0.248 OA
ATOM     14  C   UNL     1     -38.196  26.300   2.198  0.00  0.00    +0.332 C 
BRANCH  14  15
ATOM     15  O   UNL     1     -38.689  26.341   3.460  0.00  0.00    -0.479 OA
ATOM     16  H   UNL     1     -39.201  27.075   3.740  0.00  0.00    +0.295 HD
ENDBRANCH  14  15
ENDBRANCH   8  14
ENDBRANCH   4  12
ENDBRANCH   1   4
BRANCH   1  17
ATOM     17  CA  UNL     1     -36.281  20.703   1.524  0.00  0.00    +0.040 C 
BRANCH  17  19
ATOM     18  OXT UNL     1     -35.495  19.355  -0.354  0.00  0.00    -0.253 OA
ATOM     19  C   UNL     1     -36.224  19.490   0.618  0.00  0.00    +0.293 C 
BRANCH  19  20
ATOM     20  O   UNL     1     -37.126  18.555   1.014  0.00  0.00    -0.482 OA
ATOM     21  H   UNL     1     -37.784  18.256   0.418  0.00  0.00    +0.295 HD
ENDBRANCH  19  20
ENDBRANCH  17  19
BRANCH  17  22
ATOM     22  C   UNL     1     -35.353  20.543   2.732  0.00  0.00    -0.010 C 
BRANCH  22  23
ATOM     23  C   UNL     1     -35.458  21.713   3.719  0.00  0.00    -0.002 C 
BRANCH  23  24
ATOM     24  C   UNL     1     -35.094  21.273   5.140  0.00  0.00    -0.000 C 
BRANCH  24  25
ATOM     25  C   UNL     1     -35.111  22.419   6.155  0.00  0.00    -0.000 C 
BRANCH  25  26
ATOM     26  C   UNL     1     -35.674  23.726   5.590  0.00  0.00    -0.002 C 
BRANCH  26  27
ATOM     27  C   UNL     1     -34.552  24.686   5.189  0.00  0.00    -0.024 C 
BRANCH  27  28
ATOM     28  C   UNL     1     -34.871  26.118   5.617  0.00  0.00    -0.086 C 
BRANCH  28  29
ATOM     29  N   UNL     1     -36.284  26.407   5.401  0.00  0.00    +0.380 N 
ATOM     30  H   UNL     1     -36.381  27.087   4.648  0.00  0.00    -0.089 HD
ATOM     31  H   UNL     1     -36.687  26.790   6.258  0.00  0.00    -0.089 HD
ATOM     32  H   UNL     1     -36.773  25.548   5.150  0.00  0.00    -0.089 HD
ENDBRANCH  28  29
ENDBRANCH  27  28
ENDBRANCH  26  27
ENDBRANCH  25  26
ENDBRANCH  24  25
ENDBRANCH  23  24
ENDBRANCH  22  23
ENDBRANCH  17  22
ENDBRANCH   1  17
TORSDOF 15
ENDMDL
MODEL 2
REMARK VINA RESULT:      -5.3      1.808      2.169
REMARK  Name = 5487171
REMARK  15 active torsions:
REMARK  status: ('A' for Active; 'I' for Inactive)
REMARK    1  A    between atoms: N_1  and  CA_4
REMARK    2  A    between atoms: N_1  and  CA_17
REMARK    3  A    between atoms: CA_4  and  C_12
REMARK    4  A    between atoms: CA_8  and  C_14
REMARK    5  A    between atoms: C_14  and  O_15
REMARK    6  A    between atoms: CA_17  and  C_19
REMARK    7  A    between atoms: CA_17  and  C_22
REMARK    8  A    between atoms: C_19  and  O_20
REMARK    9  A    between atoms: C_22  and  C_23
REMARK   10  A    between atoms: C_23  and  C_24
REMARK   11  A    between atoms: C_24  and  C_25
REMARK   12  A    between atoms: C_25  and  C_26
REMARK   13  A    between atoms: C_26  and  C_27
REMARK   14  A    between atoms: C_27  and  C_28
REMARK   15  A    between atoms: C_28  and  N_29
REMARK                            x       y       z     vdW  Elec       q    Type
REMARK                         _______ _______ _______ _____ _____    ______ ____
ROOT
ATOM      1  N   UNL     1     -37.524  21.943   2.977  0.00  0.00    +0.399 N 
ATOM      2  H1  UNL     1     -37.816  20.990   3.189  0.00  0.00    -0.083 HD
ATOM      3  H2  UNL     1     -37.559  22.519   3.818  0.00  0.00    -0.083 HD
ENDROOT
BRANCH   1   4
ATOM      4  CA  UNL     1     -38.424  22.510   1.985  0.00  0.00    +0.018 C 
ATOM      5  CB  UNL     1     -39.689  21.676   1.869  0.00  0.00    -0.014 C 
BRANCH   4  12
ATOM      6  O   UNL     1     -38.712  24.213   3.623  0.00  0.00    -0.277 OA
ATOM      7  N   UNL     1     -39.111  24.791   1.418  0.00  0.00    -0.273 N 
ATOM      8  CA  UNL     1     -39.305  26.215   1.650  0.00  0.00    +0.174 C 
ATOM      9  CB  UNL     1     -39.216  26.849   0.267  0.00  0.00    +0.033 C 
ATOM     10  CD  UNL     1     -39.176  24.476  -0.007  0.00  0.00    +0.094 C 
ATOM     11  CG  UNL     1     -39.706  25.742  -0.663  0.00  0.00    +0.024 C 
ATOM     12  C   UNL     1     -38.755  23.912   2.429  0.00  0.00    +0.206 C 
BRANCH   8  14
ATOM     13  OXT UNL     1     -41.721  26.283   1.644  0.00  0.00    -0.248 OA
ATOM     14  C   UNL     1     -40.667  26.383   2.253  0.00  0.00    +0.332 C 
BRANCH  14  15
ATOM     15  O   UNL     1     -40.574  26.666   3.576  0.00  0.00    -0.479 OA
ATOM     16  H   UNL     1     -40.867  27.495   3.899  0.00  0.00    +0.295 HD
ENDBRANCH  14  15
ENDBRANCH   8  14
ENDBRANCH   4  12
ENDBRANCH   1   4
BRANCH   1  17
ATOM     17  CA  UNL     1     -36.148  21.924   2.476  0.00  0.00    +0.040 C 
BRANCH  17  19
ATOM     18  OXT UNL     1     -34.685  20.067   1.866  0.00  0.00    -0.253 OA
ATOM     19  C   UNL     1     -35.757  20.472   2.291  0.00  0.00    +0.293 C 
BRANCH  19  20
ATOM     20  O   UNL     1     -36.782  19.653   2.642  0.00  0.00    -0.482 OA
ATOM     21  H   UNL     1     -37.585  19.674   2.159  0.00  0.00    +0.295 HD
ENDBRANCH  19  20
ENDBRANCH  17  19
BRANCH  17  22
ATOM     22  C   UNL     1     -35.228  22.627   3.480  0.00  0.00    -0.010 C 
BRANCH  22  23
ATOM     23  C   UNL     1     -35.405  22.107   4.913  0.00  0.00    -0.002 C 
BRANCH  23  24
ATOM     24  C   UNL     1     -35.193  23.225   5.937  0.00  0.00    -0.000 C 
BRANCH  24  25
ATOM     25  C   UNL     1     -35.635  24.602   5.436  0.00  0.00    -0.000 C 
BRANCH  25  26
ATOM     26  C   UNL     1     -34.565  25.684   5.603  0.00  0.00    -0.002 C 
BRANCH  26  27
ATOM     27  C   UNL     1     -33.787  25.899   4.303  0.00  0.00    -0.024 C 
BRANCH  27  28
ATOM     28  C   UNL     1     -33.827  27.364   3.871  0.00  0.00    -0.086 C 
BRANCH  28  29
ATOM     29  N   UNL     1     -35.206  27.801   3.690  0.00  0.00    +0.380 N 
ATOM     30  H   UNL     1     -35.342  28.112   2.728  0.00  0.00    -0.089 HD
ATOM     31  H   UNL     1     -35.404  28.574   4.327  0.00  0.00    -0.089 HD
ATOM     32  H   UNL     1     -35.838  27.026   3.890  0.00  0.00    -0.089 HD
ENDBRANCH  28  29
ENDBRANCH  27  28
ENDBRANCH  26  27
ENDBRANCH  25  26
ENDBRANCH  24  25
ENDBRANCH  23  24
ENDBRANCH  22  23
ENDBRANCH  17  22
ENDBRANCH   1  17
TORSDOF 15
ENDMDL
MODEL 3
REMARK VINA RESULT:      -5.1      3.042      5.117
REMARK  Name = 5487171
REMARK  15 active torsions:
REMARK  status: ('A' for Active; 'I' for Inactive)
REMARK    1  A    between atoms: N_1  and  CA_4
REMARK    2  A    between atoms: N_1  and  CA_17
REMARK    3  A    between atoms: CA_4  and  C_12
REMARK    4  A    between atoms: CA_8  and  C_14
REMARK    5  A    between atoms: C_14  and  O_15
REMARK    6  A    between atoms: CA_17  and  C_19
REMARK    7  A    between atoms: CA_17  and  C_22
REMARK    8  A    between atoms: C_19  and  O_20
REMARK    9  A    between atoms: C_22  and  C_23
REMARK   10  A    between atoms: C_23  and  C_24
REMARK   11  A    between atoms: C_24  and  C_25
REMARK   12  A    between atoms: C_25  and  C_26
REMARK   13  A    between atoms: C_26  and  C_27
REMARK   14  A    between atoms: C_27  and  C_28
REMARK   15  A    between atoms: C_28  and  N_29
REMARK                            x       y       z     vdW  Elec       q    Type
REMARK                         _______ _______ _______ _____ _____    ______ ____
ROOT
ATOM      1  N   UNL     1     -37.916  22.377   2.958  0.00  0.00    +0.399 N 
ATOM      2  H1  UNL     1     -38.873  22.271   3.291  0.00  0.00    -0.083 HD
ATOM      3  H2  UNL     1     -37.264  21.937   3.608  0.00  0.00    -0.083 HD
ENDROOT
BRANCH   1   4
ATOM      4  CA  UNL     1     -37.596  23.793   2.863  0.00  0.00    +0.018 C 
ATOM      5  CB  UNL     1     -38.796  24.641   3.250  0.00  0.00    -0.014 C 
BRANCH   4  12
ATOM      6  O   UNL     1     -36.432  23.565   4.928  0.00  0.00    -0.277 OA
ATOM      7  N   UNL     1     -35.442  24.873   3.295  0.00  0.00    -0.273 N 
ATOM      8  CA  UNL     1     -34.187  25.098   4.000  0.00  0.00    +0.174 C 
ATOM      9  CB  UNL     1     -33.236  25.637   2.937  0.00  0.00    +0.033 C 
ATOM     10  CD  UNL     1     -35.413  25.474   1.964  0.00  0.00    +0.094 C 
ATOM     11  CG  UNL     1     -34.167  26.346   1.956  0.00  0.00    +0.024 C 
ATOM     12  C   UNL     1     -36.442  24.055   3.797  0.00  0.00    +0.206 C 
BRANCH   8  14
ATOM     13  OXT UNL     1     -35.526  26.672   5.253  0.00  0.00    -0.248 OA
ATOM     14  C   UNL     1     -34.456  26.112   5.070  0.00  0.00    +0.332 C 
BRANCH  14  15
ATOM     15  O   UNL     1     -33.345  26.328   5.816  0.00  0.00    -0.479 OA
ATOM     16  H   UNL     1     -33.389  26.878   6.574  0.00  0.00    +0.295 HD
ENDBRANCH  14  15
ENDBRANCH   8  14
ENDBRANCH   4  12
ENDBRANCH   1   4
BRANCH   1  17
ATOM     17  CA  UNL     1     -37.787  21.729   1.651  0.00  0.00    +0.040 C 
BRANCH  17  19
ATOM     18  OXT UNL     1     -39.586  21.441   0.027  0.00  0.00    -0.253 OA
ATOM     19  C   UNL     1     -39.185  21.385   1.180  0.00  0.00    +0.293 C 
BRANCH  19  20
ATOM     20  O   UNL     1     -39.966  21.021   2.230  0.00  0.00    -0.482 OA
ATOM     21  H   UNL     1     -39.572  20.762   3.039  0.00  0.00    +0.295 HD
ENDBRANCH  19  20
ENDBRANCH  17  19
BRANCH  17  22
ATOM     22  C   UNL     1     -36.916  20.475   1.785  0.00  0.00    -0.010 C 
BRANCH  22  23
ATOM     23  C   UNL     1     -35.592  20.747   2.511  0.00  0.00    -0.002 C 
BRANCH  23  24
ATOM     24  C   UNL     1     -34.490  19.804   2.022  0.00  0.00    -0.000 C 
BRANCH  24  25
ATOM     25  C   UNL     1     -33.734  20.333   0.800  0.00  0.00    -0.000 C 
BRANCH  25  26
ATOM     26  C   UNL     1     -32.403  19.619   0.551  0.00  0.00    -0.002 C 
BRANCH  26  27
ATOM     27  C   UNL     1     -32.356  18.268   1.267  0.00  0.00    -0.024 C 
BRANCH  27  28
ATOM     28  C   UNL     1     -32.720  17.127   0.319  0.00  0.00    -0.086 C 
BRANCH  28  29
ATOM     29  N   UNL     1     -31.696  16.090   0.356  0.00  0.00    +0.380 N 
ATOM     30  H   UNL     1     -30.818  16.490   0.684  0.00  0.00    -0.089 HD
ATOM     31  H   UNL     1     -31.565  15.707  -0.581  0.00  0.00    -0.089 HD
ATOM     32  H   UNL     1     -31.989  15.345   0.989  0.00  0.00    -0.089 HD
ENDBRANCH  28  29
ENDBRANCH  27  28
ENDBRANCH  26  27
ENDBRANCH  25  26
ENDBRANCH  24  25
ENDBRANCH  23  24
ENDBRANCH  22  23
ENDBRANCH  17  22
ENDBRANCH   1  17
TORSDOF 15
ENDMDL
MODEL 4
REMARK VINA RESULT:      -5.1      3.673      6.024
REMARK  Name = 5487171
REMARK  15 active torsions:
REMARK  status: ('A' for Active; 'I' for Inactive)
REMARK    1  A    between atoms: N_1  and  CA_4
REMARK    2  A    between atoms: N_1  and  CA_17
REMARK    3  A    between atoms: CA_4  and  C_12
REMARK    4  A    between atoms: CA_8  and  C_14
REMARK    5  A    between atoms: C_14  and  O_15
REMARK    6  A    between atoms: CA_17  and  C_19
REMARK    7  A    between atoms: CA_17  and  C_22
REMARK    8  A    between atoms: C_19  and  O_20
REMARK    9  A    between atoms: C_22  and  C_23
REMARK   10  A    between atoms: C_23  and  C_24
REMARK   11  A    between atoms: C_24  and  C_25
REMARK   12  A    between atoms: C_25  and  C_26
REMARK   13  A    between atoms: C_26  and  C_27
REMARK   14  A    between atoms: C_27  and  C_28
REMARK   15  A    between atoms: C_28  and  N_29
REMARK                            x       y       z     vdW  Elec       q    Type
REMARK                         _______ _______ _______ _____ _____    ______ ____
ROOT
ATOM      1  N   UNL     1     -34.353  24.358   4.788  0.00  0.00    +0.399 N 
ATOM      2  H1  UNL     1     -34.144  24.065   5.742  0.00  0.00    -0.083 HD
ATOM      3  H2  UNL     1     -33.535  24.230   4.192  0.00  0.00    -0.083 HD
ENDROOT
BRANCH   1   4
ATOM      4  CA  UNL     1     -34.713  25.767   4.789  0.00  0.00    +0.018 C 
ATOM      5  CB  UNL     1     -35.975  25.998   5.604  0.00  0.00    -0.014 C 
BRANCH   4  12
ATOM      6  O   UNL     1     -33.207  26.318   6.550  0.00  0.00    -0.277 OA
ATOM      7  N   UNL     1     -32.948  27.448   4.547  0.00  0.00    -0.273 N 
ATOM      8  CA  UNL     1     -31.722  28.147   4.906  0.00  0.00    +0.174 C 
ATOM      9  CB  UNL     1     -31.172  28.670   3.584  0.00  0.00    +0.033 C 
ATOM     10  CD  UNL     1     -33.327  27.727   3.163  0.00  0.00    +0.094 C 
ATOM     11  CG  UNL     1     -32.425  28.874   2.735  0.00  0.00    +0.024 C 
ATOM     12  C   UNL     1     -33.554  26.526   5.386  0.00  0.00    +0.206 C 
BRANCH   8  14
ATOM     13  OXT UNL     1     -32.615  30.318   5.485  0.00  0.00    -0.248 OA
ATOM     14  C   UNL     1     -32.104  29.263   5.831  0.00  0.00    +0.332 C 
BRANCH  14  15
ATOM     15  O   UNL     1     -31.804  28.946   7.114  0.00  0.00    -0.479 OA
ATOM     16  H   UNL     1     -31.271  29.522   7.627  0.00  0.00    +0.295 HD
ENDBRANCH  14  15
ENDBRANCH   8  14
ENDBRANCH   4  12
ENDBRANCH   1   4
BRANCH   1  17
ATOM     17  CA  UNL     1     -35.451  23.544   4.264  0.00  0.00    +0.040 C 
BRANCH  17  19
ATOM     18  OXT UNL     1     -35.834  22.406   6.389  0.00  0.00    -0.253 OA
ATOM     19  C   UNL     1     -35.609  22.355   5.189  0.00  0.00    +0.293 C 
BRANCH  19  20
ATOM     20  O   UNL     1     -35.441  21.193   4.506  0.00  0.00    -0.482 OA
ATOM     21  H   UNL     1     -35.130  21.210   3.622  0.00  0.00    +0.295 HD
ENDBRANCH  19  20
ENDBRANCH  17  19
BRANCH  17  22
ATOM     22  C   UNL     1     -35.123  23.102   2.834  0.00  0.00    -0.010 C 
BRANCH  22  23
ATOM     23  C   UNL     1     -36.044  23.744   1.788  0.00  0.00    -0.002 C 
BRANCH  23  24
ATOM     24  C   UNL     1     -35.496  25.096   1.324  0.00  0.00    -0.000 C 
BRANCH  24  25
ATOM     25  C   UNL     1     -36.587  26.136   1.058  0.00  0.00    -0.000 C 
BRANCH  25  26
ATOM     26  C   UNL     1     -37.536  26.341   2.241  0.00  0.00    -0.002 C 
BRANCH  26  27
ATOM     27  C   UNL     1     -38.997  26.169   1.817  0.00  0.00    -0.024 C 
BRANCH  27  28
ATOM     28  C   UNL     1     -39.731  25.204   2.747  0.00  0.00    -0.086 C 
BRANCH  28  29
ATOM     29  N   UNL     1     -38.870  24.815   3.857  0.00  0.00    +0.380 N 
ATOM     30  H   UNL     1     -39.193  25.265   4.713  0.00  0.00    -0.089 HD
ATOM     31  H   UNL     1     -37.911  25.105   3.661  0.00  0.00    -0.089 HD
ATOM     32  H   UNL     1     -38.901  23.802   3.972  0.00  0.00    -0.089 HD
ENDBRANCH  28  29
ENDBRANCH  27  28
ENDBRANCH  26  27
ENDBRANCH  25  26
ENDBRANCH  24  25
ENDBRANCH  23  24
ENDBRANCH  22  23
ENDBRANCH  17  22
ENDBRANCH   1  17
TORSDOF 15
ENDMDL
MODEL 5
REMARK VINA RESULT:      -5.1      2.307      3.286
REMARK  Name = 5487171
REMARK  15 active torsions:
REMARK  status: ('A' for Active; 'I' for Inactive)
REMARK    1  A    between atoms: N_1  and  CA_4
REMARK    2  A    between atoms: N_1  and  CA_17
REMARK    3  A    between atoms: CA_4  and  C_12
REMARK    4  A    between atoms: CA_8  and  C_14
REMARK    5  A    between atoms: C_14  and  O_15
REMARK    6  A    between atoms: CA_17  and  C_19
REMARK    7  A    between atoms: CA_17  and  C_22
REMARK    8  A    between atoms: C_19  and  O_20
REMARK    9  A    between atoms: C_22  and  C_23
REMARK   10  A    between atoms: C_23  and  C_24
REMARK   11  A    between atoms: C_24  and  C_25
REMARK   12  A    between atoms: C_25  and  C_26
REMARK   13  A    between atoms: C_26  and  C_27
REMARK   14  A    between atoms: C_27  and  C_28
REMARK   15  A    between atoms: C_28  and  N_29
REMARK                            x       y       z     vdW  Elec       q    Type
REMARK                         _______ _______ _______ _____ _____    ______ ____
ROOT
ATOM      1  N   UNL     1     -36.978  22.781   3.905  0.00  0.00    +0.399 N 
ATOM      2  H1  UNL     1     -37.447  21.934   4.224  0.00  0.00    -0.083 HD
ATOM      3  H2  UNL     1     -37.266  23.579   4.471  0.00  0.00    -0.083 HD
ENDROOT
BRANCH   1   4
ATOM      4  CA  UNL     1     -37.344  23.036   2.520  0.00  0.00    +0.018 C 
ATOM      5  CB  UNL     1     -38.459  22.102   2.079  0.00  0.00    -0.014 C 
BRANCH   4  12
ATOM      6  O   UNL     1     -38.970  24.771   2.645  0.00  0.00    -0.277 OA
ATOM      7  N   UNL     1     -36.808  25.387   2.093  0.00  0.00    -0.273 N 
ATOM      8  CA  UNL     1     -37.032  26.826   2.121  0.00  0.00    +0.174 C 
ATOM      9  CB  UNL     1     -35.635  27.435   2.146  0.00  0.00    +0.033 C 
ATOM     10  CD  UNL     1     -35.405  25.077   1.832  0.00  0.00    +0.094 C 
ATOM     11  CG  UNL     1     -34.784  26.401   1.412  0.00  0.00    +0.024 C 
ATOM     12  C   UNL     1     -37.793  24.473   2.432  0.00  0.00    +0.206 C 
BRANCH   8  14
ATOM     13  OXT UNL     1     -37.267  27.292  -0.240  0.00  0.00    -0.248 OA
ATOM     14  C   UNL     1     -37.773  27.182   0.867  0.00  0.00    +0.332 C 
BRANCH  14  15
ATOM     15  O   UNL     1     -39.090  27.370   1.126  0.00  0.00    -0.479 OA
ATOM     16  H   UNL     1     -39.633  27.807   0.499  0.00  0.00    +0.295 HD
ENDBRANCH  14  15
ENDBRANCH   8  14
ENDBRANCH   4  12
ENDBRANCH   1   4
BRANCH   1  17
ATOM     17  CA  UNL     1     -35.530  22.608   4.034  0.00  0.00    +0.040 C 
BRANCH  17  19
ATOM     18  OXT UNL     1     -35.177  20.270   3.427  0.00  0.00    -0.253 OA
ATOM     19  C   UNL     1     -35.274  21.136   4.284  0.00  0.00    +0.293 C 
BRANCH  19  20
ATOM     20  O   UNL     1     -35.189  20.885   5.616  0.00  0.00    -0.482 OA
ATOM     21  H   UNL     1     -34.568  21.351   6.142  0.00  0.00    +0.295 HD
ENDBRANCH  19  20
ENDBRANCH  17  19
BRANCH  17  22
ATOM     22  C   UNL     1     -35.013  23.471   5.190  0.00  0.00    -0.010 C 
BRANCH  22  23
ATOM     23  C   UNL     1     -36.019  24.544   5.626  0.00  0.00    -0.002 C 
BRANCH  23  24
ATOM     24  C   UNL     1     -35.381  25.935   5.623  0.00  0.00    -0.000 C 
BRANCH  24  25
ATOM     25  C   UNL     1     -33.902  25.925   5.226  0.00  0.00    -0.000 C 
BRANCH  25  26
ATOM     26  C   UNL     1     -33.069  26.983   5.953  0.00  0.00    -0.002 C 
BRANCH  26  27
ATOM     27  C   UNL     1     -32.554  28.048   4.983  0.00  0.00    -0.024 C 
BRANCH  27  28
ATOM     28  C   UNL     1     -31.686  29.078   5.703  0.00  0.00    -0.086 C 
BRANCH  28  29
ATOM     29  N   UNL     1     -31.794  28.911   7.148  0.00  0.00    +0.380 N 
ATOM     30  H   UNL     1     -31.240  28.106   7.440  0.00  0.00    -0.089 HD
ATOM     31  H   UNL     1     -32.771  28.761   7.401  0.00  0.00    -0.089 HD
ATOM     32  H   UNL     1     -31.448  29.750   7.614  0.00  0.00    -0.089 HD
ENDBRANCH  28  29
ENDBRANCH  27  28
ENDBRANCH  26  27
ENDBRANCH  25  26
ENDBRANCH  24  25
ENDBRANCH  23  24
ENDBRANCH  22  23
ENDBRANCH  17  22
ENDBRANCH   1  17
TORSDOF 15
ENDMDL
MODEL 6
REMARK VINA RESULT:      -5.1      2.292      3.320
REMARK  Name = 5487171
REMARK  15 active torsions:
REMARK  status: ('A' for Active; 'I' for Inactive)
REMARK    1  A    between atoms: N_1  and  CA_4
REMARK    2  A    between atoms: N_1  and  CA_17
REMARK    3  A    between atoms: CA_4  and  C_12
REMARK    4  A    between atoms: CA_8  and  C_14
REMARK    5  A    between atoms: C_14  and  O_15
REMARK    6  A    between atoms: CA_17  and  C_19
REMARK    7  A    between atoms: CA_17  and  C_22
REMARK    8  A    between atoms: C_19  and  O_20
REMARK    9  A    between atoms: C_22  and  C_23
REMARK   10  A    between atoms: C_23  and  C_24
REMARK   11  A    between atoms: C_24  and  C_25
REMARK   12  A    between atoms: C_25  and  C_26
REMARK   13  A    between atoms: C_26  and  C_27
REMARK   14  A    between atoms: C_27  and  C_28
REMARK   15  A    between atoms: C_28  and  N_29
REMARK                            x       y       z     vdW  Elec       q    Type
REMARK                         _______ _______ _______ _____ _____    ______ ____
ROOT
ATOM      1  N   UNL     1     -37.069  22.233   3.555  0.00  0.00    +0.399 N 
ATOM      2  H1  UNL     1     -37.646  21.469   3.206  0.00  0.00    -0.083 HD
ATOM      3  H2  UNL     1     -37.315  22.450   4.521  0.00  0.00    -0.083 HD
ENDROOT
BRANCH   1   4
ATOM      4  CA  UNL     1     -37.296  23.416   2.739  0.00  0.00    +0.018 C 
ATOM      5  CB  UNL     1     -36.049  23.769   1.946  0.00  0.00    -0.014 C 
BRANCH   4  12
ATOM      6  O   UNL     1     -38.488  22.026   1.217  0.00  0.00    -0.277 OA
ATOM      7  N   UNL     1     -39.392  24.107   1.678  0.00  0.00    -0.273 N 
ATOM      8  CA  UNL     1     -40.639  23.912   0.950  0.00  0.00    +0.174 C 
ATOM      9  CB  UNL     1     -41.550  25.035   1.434  0.00  0.00    +0.033 C 
ATOM     10  CD  UNL     1     -39.377  25.398   2.360  0.00  0.00    +0.094 C 
ATOM     11  CG  UNL     1     -40.574  26.151   1.799  0.00  0.00    +0.024 C 
ATOM     12  C   UNL     1     -38.442  23.106   1.810  0.00  0.00    +0.206 C 
BRANCH   8  14
ATOM     13  OXT UNL     1     -39.469  24.777  -0.980  0.00  0.00    -0.248 OA
ATOM     14  C   UNL     1     -40.323  24.041  -0.509  0.00  0.00    +0.332 C 
BRANCH  14  15
ATOM     15  O   UNL     1     -41.120  23.228  -1.245  0.00  0.00    -0.479 OA
ATOM     16  H   UNL     1     -40.877  23.003  -2.123  0.00  0.00    +0.295 HD
ENDBRANCH  14  15
ENDBRANCH   8  14
ENDBRANCH   4  12
ENDBRANCH   1   4
BRANCH   1  17
ATOM     17  CA  UNL     1     -35.661  21.834   3.505  0.00  0.00    +0.040 C 
BRANCH  17  19
ATOM     18  OXT UNL     1     -34.602  20.146   2.095  0.00  0.00    -0.253 OA
ATOM     19  C   UNL     1     -35.585  20.555   2.697  0.00  0.00    +0.293 C 
BRANCH  19  20
ATOM     20  O   UNL     1     -36.783  19.916   2.700  0.00  0.00    -0.482 OA
ATOM     21  H   UNL     1     -37.572  20.400   2.840  0.00  0.00    +0.295 HD
ENDBRANCH  19  20
ENDBRANCH  17  19
BRANCH  17  22
ATOM     22  C   UNL     1     -35.137  21.627   4.931  0.00  0.00    -0.010 C 
BRANCH  22  23
ATOM     23  C   UNL     1     -35.497  22.786   5.869  0.00  0.00    -0.002 C 
BRANCH  23  24
ATOM     24  C   UNL     1     -34.782  24.075   5.456  0.00  0.00    -0.000 C 
BRANCH  24  25
ATOM     25  C   UNL     1     -35.635  25.332   5.650  0.00  0.00    -0.000 C 
BRANCH  25  26
ATOM     26  C   UNL     1     -35.521  26.330   4.495  0.00  0.00    -0.002 C 
BRANCH  26  27
ATOM     27  C   UNL     1     -34.057  26.652   4.183  0.00  0.00    -0.024 C 
BRANCH  27  28
ATOM     28  C   UNL     1     -33.944  27.850   3.242  0.00  0.00    -0.086 C 
BRANCH  28  29
ATOM     29  N   UNL     1     -35.137  28.684   3.337  0.00  0.00    +0.380 N 
ATOM     30  H   UNL     1     -34.969  29.443   3.996  0.00  0.00    -0.089 HD
ATOM     31  H   UNL     1     -35.922  28.118   3.662  0.00  0.00    -0.089 HD
ATOM     32  H   UNL     1     -35.355  29.071   2.419  0.00  0.00    -0.089 HD
ENDBRANCH  28  29
ENDBRANCH  27  28
ENDBRANCH  26  27
ENDBRANCH  25  26
ENDBRANCH  24  25
ENDBRANCH  23  24
ENDBRANCH  22  23
ENDBRANCH  17  22
ENDBRANCH   1  17
TORSDOF 15
ENDMDL
MODEL 7
REMARK VINA RESULT:      -5.1      3.620      6.317
REMARK  Name = 5487171
REMARK  15 active torsions:
REMARK  status: ('A' for Active; 'I' for Inactive)
REMARK    1  A    between atoms: N_1  and  CA_4
REMARK    2  A    between atoms: N_1  and  CA_17
REMARK    3  A    between atoms: CA_4  and  C_12
REMARK    4  A    between atoms: CA_8  and  C_14
REMARK    5  A    between atoms: C_14  and  O_15
REMARK    6  A    between atoms: CA_17  and  C_19
REMARK    7  A    between atoms: CA_17  and  C_22
REMARK    8  A    between atoms: C_19  and  O_20
REMARK    9  A    between atoms: C_22  and  C_23
REMARK   10  A    between atoms: C_23  and  C_24
REMARK   11  A    between atoms: C_24  and  C_25
REMARK   12  A    between atoms: C_25  and  C_26
REMARK   13  A    between atoms: C_26  and  C_27
REMARK   14  A    between atoms: C_27  and  C_28
REMARK   15  A    between atoms: C_28  and  N_29
REMARK                            x       y       z     vdW  Elec       q    Type
REMARK                         _______ _______ _______ _____ _____    ______ ____
ROOT
ATOM      1  N   UNL     1     -34.446  24.334   4.742  0.00  0.00    +0.399 N 
ATOM      2  H1  UNL     1     -33.964  24.082   5.603  0.00  0.00    -0.083 HD
ATOM      3  H2  UNL     1     -33.845  24.161   3.936  0.00  0.00    -0.083 HD
ENDROOT
BRANCH   1   4
ATOM      4  CA  UNL     1     -34.782  25.749   4.778  0.00  0.00    +0.018 C 
ATOM      5  CB  UNL     1     -36.026  25.984   5.620  0.00  0.00    -0.014 C 
BRANCH   4  12
ATOM      6  O   UNL     1     -33.231  26.230   6.520  0.00  0.00    -0.277 OA
ATOM      7  N   UNL     1     -33.000  27.412   4.543  0.00  0.00    -0.273 N 
ATOM      8  CA  UNL     1     -31.757  28.085   4.895  0.00  0.00    +0.174 C 
ATOM      9  CB  UNL     1     -31.229  28.637   3.576  0.00  0.00    +0.033 C 
ATOM     10  CD  UNL     1     -33.405  27.734   3.177  0.00  0.00    +0.094 C 
ATOM     11  CG  UNL     1     -32.496  28.880   2.760  0.00  0.00    +0.024 C 
ATOM     12  C   UNL     1     -33.600  26.475   5.370  0.00  0.00    +0.206 C 
BRANCH   8  14
ATOM     13  OXT UNL     1     -32.594  30.255   5.551  0.00  0.00    -0.248 OA
ATOM     14  C   UNL     1     -32.104  29.179   5.858  0.00  0.00    +0.332 C 
BRANCH  14  15
ATOM     15  O   UNL     1     -31.797  28.816   7.127  0.00  0.00    -0.479 OA
ATOM     16  H   UNL     1     -32.338  29.097   7.839  0.00  0.00    +0.295 HD
ENDBRANCH  14  15
ENDBRANCH   8  14
ENDBRANCH   4  12
ENDBRANCH   1   4
BRANCH   1  17
ATOM     17  CA  UNL     1     -35.656  23.519   4.611  0.00  0.00    +0.040 C 
BRANCH  17  19
ATOM     18  OXT UNL     1     -35.204  22.210   6.621  0.00  0.00    -0.253 OA
ATOM     19  C   UNL     1     -35.437  22.258   5.422  0.00  0.00    +0.293 C 
BRANCH  19  20
ATOM     20  O   UNL     1     -35.509  21.160   4.626  0.00  0.00    -0.482 OA
ATOM     21  H   UNL     1     -34.889  20.465   4.731  0.00  0.00    +0.295 HD
ENDBRANCH  19  20
ENDBRANCH  17  19
BRANCH  17  22
ATOM     22  C   UNL     1     -35.899  23.198   3.132  0.00  0.00    -0.010 C 
BRANCH  22  23
ATOM     23  C   UNL     1     -37.113  23.939   2.556  0.00  0.00    -0.002 C 
BRANCH  23  24
ATOM     24  C   UNL     1     -38.341  23.027   2.499  0.00  0.00    -0.000 C 
BRANCH  24  25
ATOM     25  C   UNL     1     -38.751  22.647   1.073  0.00  0.00    -0.000 C 
BRANCH  25  26
ATOM     26  C   UNL     1     -38.521  21.170   0.746  0.00  0.00    -0.002 C 
BRANCH  26  27
ATOM     27  C   UNL     1     -37.106  20.935   0.211  0.00  0.00    -0.024 C 
BRANCH  27  28
ATOM     28  C   UNL     1     -36.407  19.811   0.974  0.00  0.00    -0.086 C 
BRANCH  28  29
ATOM     29  N   UNL     1     -36.873  19.769   2.355  0.00  0.00    +0.380 N 
ATOM     30  H   UNL     1     -36.626  18.872   2.771  0.00  0.00    -0.089 HD
ATOM     31  H   UNL     1     -37.887  19.885   2.375  0.00  0.00    -0.089 HD
ATOM     32  H   UNL     1     -36.435  20.523   2.885  0.00  0.00    -0.089 HD
ENDBRANCH  28  29
ENDBRANCH  27  28
ENDBRANCH  26  27
ENDBRANCH  25  26
ENDBRANCH  24  25
ENDBRANCH  23  24
ENDBRANCH  22  23
ENDBRANCH  17  22
ENDBRANCH   1  17
TORSDOF 15
ENDMDL
MODEL 8
REMARK VINA RESULT:      -5.0      3.714      6.261
REMARK  Name = 5487171
REMARK  15 active torsions:
REMARK  status: ('A' for Active; 'I' for Inactive)
REMARK    1  A    between atoms: N_1  and  CA_4
REMARK    2  A    between atoms: N_1  and  CA_17
REMARK    3  A    between atoms: CA_4  and  C_12
REMARK    4  A    between atoms: CA_8  and  C_14
REMARK    5  A    between atoms: C_14  and  O_15
REMARK    6  A    between atoms: CA_17  and  C_19
REMARK    7  A    between atoms: CA_17  and  C_22
REMARK    8  A    between atoms: C_19  and  O_20
REMARK    9  A    between atoms: C_22  and  C_23
REMARK   10  A    between atoms: C_23  and  C_24
REMARK   11  A    between atoms: C_24  and  C_25
REMARK   12  A    between atoms: C_25  and  C_26
REMARK   13  A    between atoms: C_26  and  C_27
REMARK   14  A    between atoms: C_27  and  C_28
REMARK   15  A    between atoms: C_28  and  N_29
REMARK                            x       y       z     vdW  Elec       q    Type
REMARK                         _______ _______ _______ _____ _____    ______ ____
ROOT
ATOM      1  N   UNL     1     -34.568  24.055   5.047  0.00  0.00    +0.399 N 
ATOM      2  H1  UNL     1     -34.500  24.021   6.064  0.00  0.00    -0.083 HD
ATOM      3  H2  UNL     1     -33.668  23.825   4.625  0.00  0.00    -0.083 HD
ENDROOT
BRANCH   1   4
ATOM      4  CA  UNL     1     -34.945  25.399   4.638  0.00  0.00    +0.018 C 
ATOM      5  CB  UNL     1     -36.217  25.838   5.344  0.00  0.00    -0.014 C 
BRANCH   4  12
ATOM      6  O   UNL     1     -33.355  26.335   6.143  0.00  0.00    -0.277 OA
ATOM      7  N   UNL     1     -33.325  27.106   3.960  0.00  0.00    -0.273 N 
ATOM      8  CA  UNL     1     -32.127  27.925   4.089  0.00  0.00    +0.174 C 
ATOM      9  CB  UNL     1     -31.715  28.236   2.655  0.00  0.00    +0.033 C 
ATOM     10  CD  UNL     1     -33.824  27.114   2.587  0.00  0.00    +0.094 C 
ATOM     11  CG  UNL     1     -33.038  28.215   1.893  0.00  0.00    +0.024 C 
ATOM     12  C   UNL     1     -33.801  26.314   4.994  0.00  0.00    +0.206 C 
BRANCH   8  14
ATOM     13  OXT UNL     1     -33.094  30.125   4.351  0.00  0.00    -0.248 OA
ATOM     14  C   UNL     1     -32.517  29.164   4.837  0.00  0.00    +0.332 C 
BRANCH  14  15
ATOM     15  O   UNL     1     -32.140  29.077   6.136  0.00  0.00    -0.479 OA
ATOM     16  H   UNL     1     -32.673  29.462   6.805  0.00  0.00    +0.295 HD
ENDBRANCH  14  15
ENDBRANCH   8  14
ENDBRANCH   4  12
ENDBRANCH   1   4
BRANCH   1  17
ATOM     17  CA  UNL     1     -35.563  23.079   4.599  0.00  0.00    +0.040 C 
BRANCH  17  19
ATOM     18  OXT UNL     1     -34.777  20.895   5.354  0.00  0.00    -0.253 OA
ATOM     19  C   UNL     1     -35.472  21.886   5.528  0.00  0.00    +0.293 C 
BRANCH  19  20
ATOM     20  O   UNL     1     -36.299  22.045   6.593  0.00  0.00    -0.482 OA
ATOM     21  H   UNL     1     -35.942  22.216   7.442  0.00  0.00    +0.295 HD
ENDBRANCH  19  20
ENDBRANCH  17  19
BRANCH  17  22
ATOM     22  C   UNL     1     -35.273  22.682   3.147  0.00  0.00    -0.010 C 
BRANCH  22  23
ATOM     23  C   UNL     1     -36.466  21.996   2.470  0.00  0.00    -0.002 C 
BRANCH  23  24
ATOM     24  C   UNL     1     -36.139  20.545   2.111  0.00  0.00    -0.000 C 
BRANCH  24  25
ATOM     25  C   UNL     1     -34.641  20.232   2.146  0.00  0.00    -0.000 C 
BRANCH  25  26
ATOM     26  C   UNL     1     -34.144  19.488   0.904  0.00  0.00    -0.002 C 
BRANCH  26  27
ATOM     27  C   UNL     1     -33.057  18.473   1.263  0.00  0.00    -0.024 C 
BRANCH  27  28
ATOM     28  C   UNL     1     -33.239  17.170   0.486  0.00  0.00    -0.086 C 
BRANCH  28  29
ATOM     29  N   UNL     1     -34.656  16.907   0.262  0.00  0.00    +0.380 N 
ATOM     30  H   UNL     1     -34.840  15.911   0.376  0.00  0.00    -0.089 HD
ATOM     31  H   UNL     1     -34.910  17.194  -0.685  0.00  0.00    -0.089 HD
ATOM     32  H   UNL     1     -35.211  17.436   0.936  0.00  0.00    -0.089 HD
ENDBRANCH  28  29
ENDBRANCH  27  28
ENDBRANCH  26  27
ENDBRANCH  25  26
ENDBRANCH  24  25
ENDBRANCH  23  24
ENDBRANCH  22  23
ENDBRANCH  17  22
ENDBRANCH   1  17
TORSDOF 15
ENDMDL
MODEL 9
REMARK VINA RESULT:      -5.0      3.944      6.912
REMARK  Name = 5487171
REMARK  15 active torsions:
REMARK  status: ('A' for Active; 'I' for Inactive)
REMARK    1  A    between atoms: N_1  and  CA_4
REMARK    2  A    between atoms: N_1  and  CA_17
REMARK    3  A    between atoms: CA_4  and  C_12
REMARK    4  A    between atoms: CA_8  and  C_14
REMARK    5  A    between atoms: C_14  and  O_15
REMARK    6  A    between atoms: CA_17  and  C_19
REMARK    7  A    between atoms: CA_17  and  C_22
REMARK    8  A    between atoms: C_19  and  O_20
REMARK    9  A    between atoms: C_22  and  C_23
REMARK   10  A    between atoms: C_23  and  C_24
REMARK   11  A    between atoms: C_24  and  C_25
REMARK   12  A    between atoms: C_25  and  C_26
REMARK   13  A    between atoms: C_26  and  C_27
REMARK   14  A    between atoms: C_27  and  C_28
REMARK   15  A    between atoms: C_28  and  N_29
REMARK                            x       y       z     vdW  Elec       q    Type
REMARK                         _______ _______ _______ _____ _____    ______ ____
ROOT
ATOM      1  N   UNL     1     -35.411  27.123   3.872  0.00  0.00    +0.399 N 
ATOM      2  H1  UNL     1     -35.867  27.628   3.113  0.00  0.00    -0.083 HD
ATOM      3  H2  UNL     1     -35.581  27.592   4.761  0.00  0.00    -0.083 HD
ENDROOT
BRANCH   1   4
ATOM      4  CA  UNL     1     -33.977  27.087   3.629  0.00  0.00    +0.018 C 
ATOM      5  CB  UNL     1     -33.661  26.247   2.402  0.00  0.00    -0.014 C 
BRANCH   4  12
ATOM      6  O   UNL     1     -33.888  29.146   2.437  0.00  0.00    -0.277 OA
ATOM      7  N   UNL     1     -32.678  29.012   4.405  0.00  0.00    -0.273 N 
ATOM      8  CA  UNL     1     -32.275  30.411   4.449  0.00  0.00    +0.174 C 
ATOM      9  CB  UNL     1     -31.771  30.624   5.872  0.00  0.00    +0.033 C 
ATOM     10  CD  UNL     1     -32.219  28.294   5.592  0.00  0.00    +0.094 C 
ATOM     11  CG  UNL     1     -31.249  29.247   6.274  0.00  0.00    +0.024 C 
ATOM     12  C   UNL     1     -33.521  28.510   3.426  0.00  0.00    +0.206 C 
BRANCH   8  14
ATOM     13  OXT UNL     1     -30.437  29.701   3.048  0.00  0.00    -0.248 OA
ATOM     14  C   UNL     1     -31.181  30.588   3.439  0.00  0.00    +0.332 C 
BRANCH  14  15
ATOM     15  O   UNL     1     -31.125  31.874   3.014  0.00  0.00    -0.479 OA
ATOM     16  H   UNL     1     -31.526  32.553   3.522  0.00  0.00    +0.295 HD
ENDBRANCH  14  15
ENDBRANCH   8  14
ENDBRANCH   4  12
ENDBRANCH   1   4
BRANCH   1  17
ATOM     17  CA  UNL     1     -35.958  25.766   3.943  0.00  0.00    +0.040 C 
BRANCH  17  19
ATOM     18  OXT UNL     1     -37.825  26.575   2.595  0.00  0.00    -0.253 OA
ATOM     19  C   UNL     1     -37.394  25.835   3.468  0.00  0.00    +0.293 C 
BRANCH  19  20
ATOM     20  O   UNL     1     -38.171  24.969   4.168  0.00  0.00    -0.482 OA
ATOM     21  H   UNL     1     -37.791  24.204   4.553  0.00  0.00    +0.295 HD
ENDBRANCH  19  20
ENDBRANCH  17  19
BRANCH  17  22
ATOM     22  C   UNL     1     -35.868  25.253   5.384  0.00  0.00    -0.010 C 
BRANCH  22  23
ATOM     23  C   UNL     1     -34.783  24.184   5.567  0.00  0.00    -0.002 C 
BRANCH  23  24
ATOM     24  C   UNL     1     -35.395  22.834   5.947  0.00  0.00    -0.000 C 
BRANCH  24  25
ATOM     25  C   UNL     1     -35.245  21.769   4.856  0.00  0.00    -0.000 C 
BRANCH  25  26
ATOM     26  C   UNL     1     -36.048  22.077   3.590  0.00  0.00    -0.002 C 
BRANCH  26  27
ATOM     27  C   UNL     1     -35.270  21.685   2.332  0.00  0.00    -0.024 C 
BRANCH  27  28
ATOM     28  C   UNL     1     -35.478  20.210   1.992  0.00  0.00    -0.086 C 
BRANCH  28  29
ATOM     29  N   UNL     1     -36.859  19.820   2.250  0.00  0.00    +0.380 N 
ATOM     30  H   UNL     1     -37.484  20.576   1.973  0.00  0.00    -0.089 HD
ATOM     31  H   UNL     1     -36.978  19.628   3.246  0.00  0.00    -0.089 HD
ATOM     32  H   UNL     1     -37.081  18.981   1.714  0.00  0.00    -0.089 HD
ENDBRANCH  28  29
ENDBRANCH  27  28
ENDBRANCH  26  27
ENDBRANCH  25  26
ENDBRANCH  24  25
ENDBRANCH  23  24
ENDBRANCH  22  23
ENDBRANCH  17  22
ENDBRANCH   1  17
TORSDOF 15
ENDMDL
