MODEL 1
REMARK VINA RESULT:      -4.9      0.000      0.000
REMARK  Name = 5487280
REMARK  9 active torsions:
REMARK  status: ('A' for Active; 'I' for Inactive)
REMARK    1  A    between atoms: C_1  and  C_4
REMARK    2  A    between atoms: C_1  and  C_12
REMARK    3  A    between atoms: N_3  and  CA_6
REMARK    4  A    between atoms: CA_6  and  C_9
REMARK    5  A    between atoms: C_9  and  O_10
REMARK    6  A    between atoms: C_12  and  N_13
REMARK    7  A    between atoms: C_12  and  C_17
REMARK    8  A    between atoms: C_17  and  C_19
REMARK    9  A    between atoms: C_19  and  O_20
REMARK                            x       y       z     vdW  Elec       q    Type
REMARK                         _______ _______ _______ _____ _____    ______ ____
ROOT
ATOM      1  C   UNL     1     -37.286  23.870   1.747  0.00  0.00    +0.064 C 
ENDROOT
BRANCH   1   4
ATOM      2  O   UNL     1     -38.406  24.471   3.812  0.00  0.00    -0.275 OA
ATOM      3  N   UNL     1     -36.119  24.076   3.843  0.00  0.00    -0.297 N 
ATOM      4  C   ACE A   0     -37.364  24.167   3.237  0.00  0.00    +0.221 C 
ATOM      5  H   UNL     1     -35.341  23.824   3.295  0.00  0.00    +0.150 HD
BRANCH   3   6
ATOM      6  CA  UNL     1     -35.924  24.341   5.249  0.00  0.00    +0.171 C 
ATOM      7  CB  UNL     1     -34.821  23.457   5.812  0.00  0.00    +0.033 C 
BRANCH   6   9
ATOM      8  OXT UNL     1     -34.504  26.200   5.859  0.00  0.00    -0.248 OA
ATOM      9  C   UNL     1     -35.612  25.806   5.508  0.00  0.00    +0.332 C 
BRANCH   9  10
ATOM     10  O   UNL     1     -36.657  26.647   5.330  0.00  0.00    -0.479 OA
ATOM     11  H   UNL     1     -37.037  27.085   6.066  0.00  0.00    +0.295 HD
ENDBRANCH   9  10
ENDBRANCH   6   9
ENDBRANCH   3   6
ENDBRANCH   1   4
BRANCH   1  12
ATOM     12  C   UNL     1     -37.551  22.396   1.404  0.00  0.00    -0.045 C 
BRANCH  12  13
ATOM     13  N   UNL     1     -38.426  21.809   2.426  0.00  0.00    +0.383 N 
ATOM     14  H   UNL     1     -38.753  20.896   2.110  0.00  0.00    -0.089 HD
ATOM     15  H   UNL     1     -39.226  22.423   2.580  0.00  0.00    -0.089 HD
ATOM     16  H   UNL     1     -37.906  21.702   3.296  0.00  0.00    -0.089 HD
ENDBRANCH  12  13
BRANCH  12  17
ATOM     17  C   UNL     1     -36.245  21.590   1.340  0.00  0.00    +0.088 C 
BRANCH  17  19
ATOM     18  O   UNL     1     -35.426  20.904   3.509  0.00  0.00    -0.250 OA
ATOM     19  C   UNL     1     -36.096  20.654   2.516  0.00  0.00    +0.312 C 
BRANCH  19  20
ATOM     20  O   UNL     1     -36.783  19.497   2.350  0.00  0.00    -0.480 OA
ATOM     21  H   UNL     1     -37.607  19.502   1.902  0.00  0.00    +0.295 HD
ENDBRANCH  19  20
ENDBRANCH  17  19
ENDBRANCH  12  17
ENDBRANCH   1  12
TORSDOF 9
ENDMDL
MODEL 2
REMARK VINA RESULT:      -4.8      1.881      5.519
REMARK  Name = 5487280
REMARK  9 active torsions:
REMARK  status: ('A' for Active; 'I' for Inactive)
REMARK    1  A    between atoms: C_1  and  C_4
REMARK    2  A    between atoms: C_1  and  C_12
REMARK    3  A    between atoms: N_3  and  CA_6
REMARK    4  A    between atoms: CA_6  and  C_9
REMARK    5  A    between atoms: C_9  and  O_10
REMARK    6  A    between atoms: C_12  and  N_13
REMARK    7  A    between atoms: C_12  and  C_17
REMARK    8  A    between atoms: C_17  and  C_19
REMARK    9  A    between atoms: C_19  and  O_20
REMARK                            x       y       z     vdW  Elec       q    Type
REMARK                         _______ _______ _______ _____ _____    ______ ____
ROOT
ATOM      1  C   UNL     1     -35.362  24.167   5.524  0.00  0.00    +0.064 C 
ENDROOT
BRANCH   1   4
ATOM      2  O   UNL     1     -37.280  23.893   4.066  0.00  0.00    -0.275 OA
ATOM      3  N   UNL     1     -35.329  22.729   3.592  0.00  0.00    -0.297 N 
ATOM      4  C   ACE A   0     -36.114  23.608   4.325  0.00  0.00    +0.221 C 
ATOM      5  H   UNL     1     -34.402  22.567   3.881  0.00  0.00    +0.150 HD
BRANCH   3   6
ATOM      6  CA  UNL     1     -35.824  22.044   2.422  0.00  0.00    +0.171 C 
ATOM      7  CB  UNL     1     -35.096  22.523   1.174  0.00  0.00    +0.033 C 
BRANCH   6   9
ATOM      8  OXT UNL     1     -34.626  19.948   2.532  0.00  0.00    -0.248 OA
ATOM      9  C   UNL     1     -35.702  20.536   2.560  0.00  0.00    +0.332 C 
BRANCH   9  10
ATOM     10  O   UNL     1     -36.880  19.884   2.705  0.00  0.00    -0.479 OA
ATOM     11  H   UNL     1     -37.307  19.868   3.539  0.00  0.00    +0.295 HD
ENDBRANCH   9  10
ENDBRANCH   6   9
ENDBRANCH   3   6
ENDBRANCH   1   4
BRANCH   1  12
ATOM     12  C   UNL     1     -35.176  25.691   5.472  0.00  0.00    -0.045 C 
BRANCH  12  13
ATOM     13  N   UNL     1     -36.492  26.340   5.452  0.00  0.00    +0.383 N 
ATOM     14  H   UNL     1     -37.208  25.649   5.229  0.00  0.00    -0.089 HD
ATOM     15  H   UNL     1     -36.497  27.075   4.745  0.00  0.00    -0.089 HD
ATOM     16  H   UNL     1     -36.684  26.746   6.367  0.00  0.00    -0.089 HD
ENDBRANCH  12  13
BRANCH  12  17
ATOM     17  C   UNL     1     -34.388  26.118   4.224  0.00  0.00    +0.088 C 
BRANCH  17  19
ATOM     18  O   UNL     1     -35.887  26.589   2.386  0.00  0.00    -0.250 OA
ATOM     19  C   UNL     1     -35.203  27.004   3.312  0.00  0.00    +0.312 C 
BRANCH  19  20
ATOM     20  O   UNL     1     -35.091  28.318   3.629  0.00  0.00    -0.480 OA
ATOM     21  H   UNL     1     -35.441  28.637   4.439  0.00  0.00    +0.295 HD
ENDBRANCH  19  20
ENDBRANCH  17  19
ENDBRANCH  12  17
ENDBRANCH   1  12
TORSDOF 9
ENDMDL
MODEL 3
REMARK VINA RESULT:      -4.7      3.085      4.611
REMARK  Name = 5487280
REMARK  9 active torsions:
REMARK  status: ('A' for Active; 'I' for Inactive)
REMARK    1  A    between atoms: C_1  and  C_4
REMARK    2  A    between atoms: C_1  and  C_12
REMARK    3  A    between atoms: N_3  and  CA_6
REMARK    4  A    between atoms: CA_6  and  C_9
REMARK    5  A    between atoms: C_9  and  O_10
REMARK    6  A    between atoms: C_12  and  N_13
REMARK    7  A    between atoms: C_12  and  C_17
REMARK    8  A    between atoms: C_17  and  C_19
REMARK    9  A    between atoms: C_19  and  O_20
REMARK                            x       y       z     vdW  Elec       q    Type
REMARK                         _______ _______ _______ _____ _____    ______ ____
ROOT
ATOM      1  C   UNL     1     -35.172  25.596   5.448  0.00  0.00    +0.064 C 
ENDROOT
BRANCH   1   4
ATOM      2  O   UNL     1     -33.146  25.420   4.127  0.00  0.00    -0.275 OA
ATOM      3  N   UNL     1     -33.504  27.333   5.392  0.00  0.00    -0.297 N 
ATOM      4  C   ACE A   0     -33.839  26.080   4.897  0.00  0.00    +0.221 C 
ATOM      5  H   UNL     1     -34.128  27.783   6.005  0.00  0.00    +0.150 HD
BRANCH   3   6
ATOM      6  CA  UNL     1     -32.271  27.997   5.040  0.00  0.00    +0.171 C 
ATOM      7  CB  UNL     1     -32.545  29.186   4.129  0.00  0.00    +0.033 C 
BRANCH   6   9
ATOM      8  OXT UNL     1     -31.717  29.504   6.848  0.00  0.00    -0.248 OA
ATOM      9  C   UNL     1     -31.501  28.442   6.272  0.00  0.00    +0.332 C 
BRANCH   9  10
ATOM     10  O   UNL     1     -30.545  27.577   6.685  0.00  0.00    -0.479 OA
ATOM     11  H   UNL     1     -30.666  27.083   7.472  0.00  0.00    +0.295 HD
ENDBRANCH   9  10
ENDBRANCH   6   9
ENDBRANCH   3   6
ENDBRANCH   1   4
BRANCH   1  12
ATOM     12  C   UNL     1     -35.643  24.271   4.830  0.00  0.00    -0.045 C 
BRANCH  12  13
ATOM     13  N   UNL     1     -37.087  24.341   4.575  0.00  0.00    +0.383 N 
ATOM     14  H   UNL     1     -37.279  24.029   3.623  0.00  0.00    -0.089 HD
ATOM     15  H   UNL     1     -37.405  25.303   4.688  0.00  0.00    -0.089 HD
ATOM     16  H   UNL     1     -37.578  23.740   5.235  0.00  0.00    -0.089 HD
ENDBRANCH  12  13
BRANCH  12  17
ATOM     17  C   UNL     1     -35.356  23.084   5.760  0.00  0.00    +0.088 C 
BRANCH  17  19
ATOM     18  O   UNL     1     -35.454  21.654   3.812  0.00  0.00    -0.250 OA
ATOM     19  C   UNL     1     -35.409  21.762   5.031  0.00  0.00    +0.312 C 
BRANCH  19  20
ATOM     20  O   UNL     1     -35.406  20.701   5.876  0.00  0.00    -0.480 OA
ATOM     21  H   UNL     1     -34.929  20.746   6.682  0.00  0.00    +0.295 HD
ENDBRANCH  19  20
ENDBRANCH  17  19
ENDBRANCH  12  17
ENDBRANCH   1  12
TORSDOF 9
ENDMDL
MODEL 4
REMARK VINA RESULT:      -4.6      2.118      4.840
REMARK  Name = 5487280
REMARK  9 active torsions:
REMARK  status: ('A' for Active; 'I' for Inactive)
REMARK    1  A    between atoms: C_1  and  C_4
REMARK    2  A    between atoms: C_1  and  C_12
REMARK    3  A    between atoms: N_3  and  CA_6
REMARK    4  A    between atoms: CA_6  and  C_9
REMARK    5  A    between atoms: C_9  and  O_10
REMARK    6  A    between atoms: C_12  and  N_13
REMARK    7  A    between atoms: C_12  and  C_17
REMARK    8  A    between atoms: C_17  and  C_19
REMARK    9  A    between atoms: C_19  and  O_20
REMARK                            x       y       z     vdW  Elec       q    Type
REMARK                         _______ _______ _______ _____ _____    ______ ____
ROOT
ATOM      1  C   UNL     1     -36.238  25.630   2.949  0.00  0.00    +0.064 C 
ENDROOT
BRANCH   1   4
ATOM      2  O   UNL     1     -37.941  24.095   3.736  0.00  0.00    -0.275 OA
ATOM      3  N   UNL     1     -35.766  23.329   3.480  0.00  0.00    -0.297 N 
ATOM      4  C   ACE A   0     -36.769  24.286   3.423  0.00  0.00    +0.221 C 
ATOM      5  H   UNL     1     -34.854  23.580   3.206  0.00  0.00    +0.150 HD
BRANCH   3   6
ATOM      6  CA  UNL     1     -36.012  21.978   3.927  0.00  0.00    +0.171 C 
ATOM      7  CB  UNL     1     -35.312  20.978   3.018  0.00  0.00    +0.033 C 
BRANCH   6   9
ATOM      8  OXT UNL     1     -35.825  22.581   6.261  0.00  0.00    -0.248 OA
ATOM      9  C   UNL     1     -35.577  21.776   5.369  0.00  0.00    +0.332 C 
BRANCH   9  10
ATOM     10  O   UNL     1     -34.881  20.636   5.596  0.00  0.00    -0.479 OA
ATOM     11  H   UNL     1     -33.975  20.679   5.828  0.00  0.00    +0.295 HD
ENDBRANCH   9  10
ENDBRANCH   6   9
ENDBRANCH   3   6
ENDBRANCH   1   4
BRANCH   1  12
ATOM     12  C   UNL     1     -36.087  26.660   4.079  0.00  0.00    -0.045 C 
BRANCH  12  13
ATOM     13  N   UNL     1     -35.107  27.677   3.679  0.00  0.00    +0.383 N 
ATOM     14  H   UNL     1     -34.188  27.426   4.047  0.00  0.00    -0.089 HD
ATOM     15  H   UNL     1     -35.387  28.583   4.054  0.00  0.00    -0.089 HD
ATOM     16  H   UNL     1     -35.064  27.728   2.663  0.00  0.00    -0.089 HD
ENDBRANCH  12  13
BRANCH  12  17
ATOM     17  C   UNL     1     -35.619  25.999   5.383  0.00  0.00    +0.088 C 
BRANCH  17  19
ATOM     18  O   UNL     1     -33.471  25.043   4.817  0.00  0.00    -0.250 OA
ATOM     19  C   UNL     1     -34.115  25.869   5.449  0.00  0.00    +0.312 C 
BRANCH  19  20
ATOM     20  O   UNL     1     -33.553  26.770   6.293  0.00  0.00    -0.480 OA
ATOM     21  H   UNL     1     -32.694  27.103   6.118  0.00  0.00    +0.295 HD
ENDBRANCH  19  20
ENDBRANCH  17  19
ENDBRANCH  12  17
ENDBRANCH   1  12
TORSDOF 9
ENDMDL
MODEL 5
REMARK VINA RESULT:      -4.6      4.023      5.719
REMARK  Name = 5487280
REMARK  9 active torsions:
REMARK  status: ('A' for Active; 'I' for Inactive)
REMARK    1  A    between atoms: C_1  and  C_4
REMARK    2  A    between atoms: C_1  and  C_12
REMARK    3  A    between atoms: N_3  and  CA_6
REMARK    4  A    between atoms: CA_6  and  C_9
REMARK    5  A    between atoms: C_9  and  O_10
REMARK    6  A    between atoms: C_12  and  N_13
REMARK    7  A    between atoms: C_12  and  C_17
REMARK    8  A    between atoms: C_17  and  C_19
REMARK    9  A    between atoms: C_19  and  O_20
REMARK                            x       y       z     vdW  Elec       q    Type
REMARK                         _______ _______ _______ _____ _____    ______ ____
ROOT
ATOM      1  C   UNL     1     -34.021  26.203   6.042  0.00  0.00    +0.064 C 
ENDROOT
BRANCH   1   4
ATOM      2  O   UNL     1     -32.649  26.927   4.179  0.00  0.00    -0.275 OA
ATOM      3  N   UNL     1     -32.466  28.035   6.209  0.00  0.00    -0.297 N 
ATOM      4  C   ACE A   0     -32.987  27.078   5.349  0.00  0.00    +0.221 C 
ATOM      5  H   UNL     1     -32.803  28.077   7.133  0.00  0.00    +0.150 HD
BRANCH   3   6
ATOM      6  CA  UNL     1     -31.446  28.970   5.797  0.00  0.00    +0.171 C 
ATOM      7  CB  UNL     1     -31.917  30.402   6.006  0.00  0.00    +0.033 C 
BRANCH   6   9
ATOM      8  OXT UNL     1     -29.395  29.642   6.885  0.00  0.00    -0.248 OA
ATOM      9  C   UNL     1     -30.136  28.732   6.529  0.00  0.00    +0.332 C 
BRANCH   9  10
ATOM     10  O   UNL     1     -29.840  27.429   6.751  0.00  0.00    -0.479 OA
ATOM     11  H   UNL     1     -29.699  27.123   7.625  0.00  0.00    +0.295 HD
ENDBRANCH   9  10
ENDBRANCH   6   9
ENDBRANCH   3   6
ENDBRANCH   1   4
BRANCH   1  12
ATOM     12  C   UNL     1     -34.974  25.496   5.067  0.00  0.00    -0.045 C 
BRANCH  12  13
ATOM     13  N   UNL     1     -36.352  25.622   5.559  0.00  0.00    +0.383 N 
ATOM     14  H   UNL     1     -36.381  25.386   6.551  0.00  0.00    -0.089 HD
ATOM     15  H   UNL     1     -36.956  24.986   5.040  0.00  0.00    -0.089 HD
ATOM     16  H   UNL     1     -36.673  26.580   5.427  0.00  0.00    -0.089 HD
ENDBRANCH  12  13
BRANCH  12  17
ATOM     17  C   UNL     1     -34.629  24.006   4.925  0.00  0.00    +0.088 C 
BRANCH  17  19
ATOM     18  O   UNL     1     -36.679  22.960   4.184  0.00  0.00    -0.250 OA
ATOM     19  C   UNL     1     -35.846  23.123   5.065  0.00  0.00    +0.312 C 
BRANCH  19  20
ATOM     20  O   UNL     1     -35.921  22.531   6.283  0.00  0.00    -0.480 OA
ATOM     21  H   UNL     1     -36.144  23.040   7.038  0.00  0.00    +0.295 HD
ENDBRANCH  19  20
ENDBRANCH  17  19
ENDBRANCH  12  17
ENDBRANCH   1  12
TORSDOF 9
ENDMDL
MODEL 6
REMARK VINA RESULT:      -4.6      2.038      5.523
REMARK  Name = 5487280
REMARK  9 active torsions:
REMARK  status: ('A' for Active; 'I' for Inactive)
REMARK    1  A    between atoms: C_1  and  C_4
REMARK    2  A    between atoms: C_1  and  C_12
REMARK    3  A    between atoms: N_3  and  CA_6
REMARK    4  A    between atoms: CA_6  and  C_9
REMARK    5  A    between atoms: C_9  and  O_10
REMARK    6  A    between atoms: C_12  and  N_13
REMARK    7  A    between atoms: C_12  and  C_17
REMARK    8  A    between atoms: C_17  and  C_19
REMARK    9  A    between atoms: C_19  and  O_20
REMARK                            x       y       z     vdW  Elec       q    Type
REMARK                         _______ _______ _______ _____ _____    ______ ____
ROOT
ATOM      1  C   UNL     1     -35.948  23.939   5.190  0.00  0.00    +0.064 C 
ENDROOT
BRANCH   1   4
ATOM      2  O   UNL     1     -35.468  23.929   2.813  0.00  0.00    -0.275 OA
ATOM      3  N   UNL     1     -37.382  22.864   3.581  0.00  0.00    -0.297 N 
ATOM      4  C   ACE A   0     -36.207  23.587   3.733  0.00  0.00    +0.221 C 
ATOM      5  H   UNL     1     -37.906  22.637   4.383  0.00  0.00    +0.150 HD
BRANCH   3   6
ATOM      6  CA  UNL     1     -37.863  22.434   2.289  0.00  0.00    +0.171 C 
ATOM      7  CB  UNL     1     -37.212  21.117   1.888  0.00  0.00    +0.033 C 
BRANCH   6   9
ATOM      8  OXT UNL     1     -40.129  23.272   2.218  0.00  0.00    -0.248 OA
ATOM      9  C   UNL     1     -39.376  22.304   2.267  0.00  0.00    +0.332 C 
BRANCH   9  10
ATOM     10  O   UNL     1     -39.837  21.032   2.317  0.00  0.00    -0.479 OA
ATOM     11  H   UNL     1     -39.315  20.331   1.979  0.00  0.00    +0.295 HD
ENDBRANCH   9  10
ENDBRANCH   6   9
ENDBRANCH   3   6
ENDBRANCH   1   4
BRANCH   1  12
ATOM     12  C   UNL     1     -35.883  25.452   5.450  0.00  0.00    -0.045 C 
BRANCH  12  13
ATOM     13  N   UNL     1     -36.337  26.170   4.252  0.00  0.00    +0.383 N 
ATOM     14  H   UNL     1     -36.368  27.171   4.448  0.00  0.00    -0.089 HD
ATOM     15  H   UNL     1     -37.268  25.845   3.995  0.00  0.00    -0.089 HD
ATOM     16  H   UNL     1     -35.690  25.993   3.485  0.00  0.00    -0.089 HD
ENDBRANCH  12  13
BRANCH  12  17
ATOM     17  C   UNL     1     -34.455  25.902   5.792  0.00  0.00    +0.088 C 
BRANCH  17  19
ATOM     18  O   UNL     1     -33.731  27.765   4.431  0.00  0.00    -0.250 OA
ATOM     19  C   UNL     1     -33.767  26.556   4.617  0.00  0.00    +0.312 C 
BRANCH  19  20
ATOM     20  O   UNL     1     -33.195  25.654   3.782  0.00  0.00    -0.480 OA
ATOM     21  H   UNL     1     -33.466  24.757   3.805  0.00  0.00    +0.295 HD
ENDBRANCH  19  20
ENDBRANCH  17  19
ENDBRANCH  12  17
ENDBRANCH   1  12
TORSDOF 9
ENDMDL
MODEL 7
REMARK VINA RESULT:      -4.5      2.781      5.320
REMARK  Name = 5487280
REMARK  9 active torsions:
REMARK  status: ('A' for Active; 'I' for Inactive)
REMARK    1  A    between atoms: C_1  and  C_4
REMARK    2  A    between atoms: C_1  and  C_12
REMARK    3  A    between atoms: N_3  and  CA_6
REMARK    4  A    between atoms: CA_6  and  C_9
REMARK    5  A    between atoms: C_9  and  O_10
REMARK    6  A    between atoms: C_12  and  N_13
REMARK    7  A    between atoms: C_12  and  C_17
REMARK    8  A    between atoms: C_17  and  C_19
REMARK    9  A    between atoms: C_19  and  O_20
REMARK                            x       y       z     vdW  Elec       q    Type
REMARK                         _______ _______ _______ _____ _____    ______ ____
ROOT
ATOM      1  C   UNL     1     -35.855  24.235   5.029  0.00  0.00    +0.064 C 
ENDROOT
BRANCH   1   4
ATOM      2  O   UNL     1     -35.914  24.803   2.673  0.00  0.00    -0.275 OA
ATOM      3  N   UNL     1     -37.869  24.114   3.715  0.00  0.00    -0.297 N 
ATOM      4  C   ACE A   0     -36.515  24.415   3.671  0.00  0.00    +0.221 C 
ATOM      5  H   UNL     1     -38.260  23.809   4.566  0.00  0.00    +0.150 HD
BRANCH   3   6
ATOM      6  CA  UNL     1     -38.725  24.234   2.559  0.00  0.00    +0.171 C 
ATOM      7  CB  UNL     1     -39.486  22.938   2.319  0.00  0.00    +0.033 C 
BRANCH   6   9
ATOM      8  OXT UNL     1     -40.819  25.390   2.207  0.00  0.00    -0.248 OA
ATOM      9  C   UNL     1     -39.693  25.398   2.694  0.00  0.00    +0.332 C 
BRANCH   9  10
ATOM     10  O   UNL     1     -39.212  26.456   3.388  0.00  0.00    -0.479 OA
ATOM     11  H   UNL     1     -39.804  27.064   3.785  0.00  0.00    +0.295 HD
ENDBRANCH   9  10
ENDBRANCH   6   9
ENDBRANCH   3   6
ENDBRANCH   1   4
BRANCH   1  12
ATOM     12  C   UNL     1     -35.659  25.553   5.793  0.00  0.00    -0.045 C 
BRANCH  12  13
ATOM     13  N   UNL     1     -36.399  26.622   5.112  0.00  0.00    +0.383 N 
ATOM     14  H   UNL     1     -36.442  26.422   4.113  0.00  0.00    -0.089 HD
ATOM     15  H   UNL     1     -35.923  27.512   5.260  0.00  0.00    -0.089 HD
ATOM     16  H   UNL     1     -37.344  26.675   5.490  0.00  0.00    -0.089 HD
ENDBRANCH  12  13
BRANCH  12  17
ATOM     17  C   UNL     1     -34.176  25.943   5.871  0.00  0.00    +0.088 C 
BRANCH  17  19
ATOM     18  O   UNL     1     -33.816  27.796   4.360  0.00  0.00    -0.250 OA
ATOM     19  C   UNL     1     -33.693  26.603   4.601  0.00  0.00    +0.312 C 
BRANCH  19  20
ATOM     20  O   UNL     1     -33.109  25.724   3.748  0.00  0.00    -0.480 OA
ATOM     21  H   UNL     1     -33.313  25.754   2.833  0.00  0.00    +0.295 HD
ENDBRANCH  19  20
ENDBRANCH  17  19
ENDBRANCH  12  17
ENDBRANCH   1  12
TORSDOF 9
ENDMDL
MODEL 8
REMARK VINA RESULT:      -4.5      2.119      5.289
REMARK  Name = 5487280
REMARK  9 active torsions:
REMARK  status: ('A' for Active; 'I' for Inactive)
REMARK    1  A    between atoms: C_1  and  C_4
REMARK    2  A    between atoms: C_1  and  C_12
REMARK    3  A    between atoms: N_3  and  CA_6
REMARK    4  A    between atoms: CA_6  and  C_9
REMARK    5  A    between atoms: C_9  and  O_10
REMARK    6  A    between atoms: C_12  and  N_13
REMARK    7  A    between atoms: C_12  and  C_17
REMARK    8  A    between atoms: C_17  and  C_19
REMARK    9  A    between atoms: C_19  and  O_20
REMARK                            x       y       z     vdW  Elec       q    Type
REMARK                         _______ _______ _______ _____ _____    ______ ____
ROOT
ATOM      1  C   UNL     1     -34.316  25.122   4.948  0.00  0.00    +0.064 C 
ENDROOT
BRANCH   1   4
ATOM      2  O   UNL     1     -36.075  23.602   5.637  0.00  0.00    -0.275 OA
ATOM      3  N   UNL     1     -35.206  23.423   3.492  0.00  0.00    -0.297 N 
ATOM      4  C   ACE A   0     -35.306  23.982   4.758  0.00  0.00    +0.221 C 
ATOM      5  H   UNL     1     -34.557  23.800   2.856  0.00  0.00    +0.150 HD
BRANCH   3   6
ATOM      6  CA  UNL     1     -36.021  22.305   3.076  0.00  0.00    +0.171 C 
ATOM      7  CB  UNL     1     -36.263  22.350   1.574  0.00  0.00    +0.033 C 
BRANCH   6   9
ATOM      8  OXT UNL     1     -34.947  20.181   2.654  0.00  0.00    -0.248 OA
ATOM      9  C   UNL     1     -35.398  20.977   3.472  0.00  0.00    +0.332 C 
BRANCH   9  10
ATOM     10  O   UNL     1     -35.386  20.732   4.803  0.00  0.00    -0.479 OA
ATOM     11  H   UNL     1     -35.973  21.192   5.370  0.00  0.00    +0.295 HD
ENDBRANCH   9  10
ENDBRANCH   6   9
ENDBRANCH   3   6
ENDBRANCH   1   4
BRANCH   1  12
ATOM     12  C   UNL     1     -34.918  26.507   4.666  0.00  0.00    -0.045 C 
BRANCH  12  13
ATOM     13  N   UNL     1     -36.343  26.498   5.020  0.00  0.00    +0.383 N 
ATOM     14  H   UNL     1     -36.513  27.181   5.758  0.00  0.00    -0.089 HD
ATOM     15  H   UNL     1     -36.604  25.569   5.351  0.00  0.00    -0.089 HD
ATOM     16  H   UNL     1     -36.898  26.736   4.200  0.00  0.00    -0.089 HD
ENDBRANCH  12  13
BRANCH  12  17
ATOM     17  C   UNL     1     -34.773  26.892   3.187  0.00  0.00    +0.088 C 
BRANCH  17  19
ATOM     18  O   UNL     1     -36.629  25.797   2.090  0.00  0.00    -0.250 OA
ATOM     19  C   UNL     1     -36.091  26.835   2.451  0.00  0.00    +0.312 C 
BRANCH  19  20
ATOM     20  O   UNL     1     -36.615  28.066   2.227  0.00  0.00    -0.480 OA
ATOM     21  H   UNL     1     -36.205  28.824   2.598  0.00  0.00    +0.295 HD
ENDBRANCH  19  20
ENDBRANCH  17  19
ENDBRANCH  12  17
ENDBRANCH   1  12
TORSDOF 9
ENDMDL
MODEL 9
REMARK VINA RESULT:      -4.4      2.353      4.952
REMARK  Name = 5487280
REMARK  9 active torsions:
REMARK  status: ('A' for Active; 'I' for Inactive)
REMARK    1  A    between atoms: C_1  and  C_4
REMARK    2  A    between atoms: C_1  and  C_12
REMARK    3  A    between atoms: N_3  and  CA_6
REMARK    4  A    between atoms: CA_6  and  C_9
REMARK    5  A    between atoms: C_9  and  O_10
REMARK    6  A    between atoms: C_12  and  N_13
REMARK    7  A    between atoms: C_12  and  C_17
REMARK    8  A    between atoms: C_17  and  C_19
REMARK    9  A    between atoms: C_19  and  O_20
REMARK                            x       y       z     vdW  Elec       q    Type
REMARK                         _______ _______ _______ _____ _____    ______ ____
ROOT
ATOM      1  C   UNL     1     -36.888  25.166   3.412  0.00  0.00    +0.064 C 
ENDROOT
BRANCH   1   4
ATOM      2  O   UNL     1     -39.242  24.664   3.699  0.00  0.00    -0.275 OA
ATOM      3  N   UNL     1     -38.108  23.752   1.892  0.00  0.00    -0.297 N 
ATOM      4  C   ACE A   0     -38.216  24.524   3.040  0.00  0.00    +0.221 C 
ATOM      5  H   UNL     1     -37.239  23.704   1.433  0.00  0.00    +0.150 HD
BRANCH   3   6
ATOM      6  CA  UNL     1     -39.225  23.016   1.349  0.00  0.00    +0.171 C 
ATOM      7  CB  UNL     1     -39.111  22.911  -0.165  0.00  0.00    +0.033 C 
BRANCH   6   9
ATOM      8  OXT UNL     1     -40.412  21.052   2.110  0.00  0.00    -0.248 OA
ATOM      9  C   UNL     1     -39.341  21.632   1.967  0.00  0.00    +0.332 C 
BRANCH   9  10
ATOM     10  O   UNL     1     -38.165  21.088   2.361  0.00  0.00    -0.479 OA
ATOM     11  H   UNL     1     -38.142  20.495   3.086  0.00  0.00    +0.295 HD
ENDBRANCH   9  10
ENDBRANCH   6   9
ENDBRANCH   3   6
ENDBRANCH   1   4
BRANCH   1  12
ATOM     12  C   UNL     1     -36.543  25.035   4.903  0.00  0.00    -0.045 C 
BRANCH  12  13
ATOM     13  N   UNL     1     -36.226  26.362   5.446  0.00  0.00    +0.383 N 
ATOM     14  H   UNL     1     -36.363  27.067   4.721  0.00  0.00    -0.089 HD
ATOM     15  H   UNL     1     -35.255  26.378   5.757  0.00  0.00    -0.089 HD
ATOM     16  H   UNL     1     -36.839  26.562   6.235  0.00  0.00    -0.089 HD
ENDBRANCH  12  13
BRANCH  12  17
ATOM     17  C   UNL     1     -35.341  24.105   5.123  0.00  0.00    +0.088 C 
BRANCH  17  19
ATOM     18  O   UNL     1     -35.885  22.198   6.507  0.00  0.00    -0.250 OA
ATOM     19  C   UNL     1     -35.765  22.680   5.388  0.00  0.00    +0.312 C 
BRANCH  19  20
ATOM     20  O   UNL     1     -35.995  21.985   4.246  0.00  0.00    -0.480 OA
ATOM     21  H   UNL     1     -35.321  21.442   3.884  0.00  0.00    +0.295 HD
ENDBRANCH  19  20
ENDBRANCH  17  19
ENDBRANCH  12  17
ENDBRANCH   1  12
TORSDOF 9
ENDMDL
