MODEL 1
REMARK VINA RESULT:      -6.7      0.000      0.000
REMARK  Name = 193864
REMARK  6 active torsions:
REMARK  status: ('A' for Active; 'I' for Inactive)
REMARK    1  A    between atoms: C_1  and  N_8
REMARK    2  A    between atoms: C_3  and  C_22
REMARK    3  A    between atoms: C_4  and  N_20
REMARK    4  A    between atoms: C_9  and  C_11
REMARK    5  A    between atoms: C_11  and  C_12
REMARK    6  A    between atoms: C_22  and  O_23
REMARK                            x       y       z     vdW  Elec       q    Type
REMARK                         _______ _______ _______ _____ _____    ______ ____
ROOT
ATOM      1  C   UNL     1     -34.671  25.691   5.175  0.00  0.00    +0.051 C 
ATOM      2  C   UNL     1     -34.736  24.354   5.564  0.00  0.00    +0.023 C 
ATOM      3  C   UNL     1     -35.517  23.453   4.839  0.00  0.00    +0.099 C 
ATOM      4  C   UNL     1     -36.232  23.891   3.724  0.00  0.00    +0.149 C 
ATOM      5  C   UNL     1     -35.386  26.129   4.061  0.00  0.00    +0.016 C 
ATOM      6  C   UNL     1     -36.167  25.230   3.335  0.00  0.00    +0.026 C 
ENDROOT
BRANCH   1   8
ATOM      7  O   UNL     1     -32.146  27.128   4.417  0.00  0.00    -0.274 OA
ATOM      8  N   UNL     1     -33.892  26.593   5.901  0.00  0.00    -0.284 N 
ATOM      9  C   UNL     1     -32.713  27.243   5.500  0.00  0.00    +0.231 C 
ATOM     10  H   UNL     1     -34.209  26.800   6.809  0.00  0.00    +0.155 HD
BRANCH   9  11
ATOM     11  C   UNL     1     -32.184  28.146   6.602  0.00  0.00    +0.112 C 
BRANCH  11  12
ATOM     12  C   UNL     1     -31.328  29.276   6.092  0.00  0.00    -0.013 C 
ATOM     13  C   UNL     1     -29.949  29.200   6.218  0.00  0.00    -0.004 C 
ATOM     14  C   UNL     1     -31.933  30.378   5.503  0.00  0.00    -0.004 C 
ATOM     15  C   UNL     1     -29.157  30.246   5.745  0.00  0.00    -0.000 C 
ATOM     16  C   UNL     1     -31.141  31.425   5.030  0.00  0.00    -0.000 C 
ATOM     17  C   UNL     1     -29.753  31.359   5.151  0.00  0.00    -0.000 C 
ENDBRANCH  11  12
ENDBRANCH   9  11
ENDBRANCH   1   8
BRANCH   4  20
ATOM     18  O   UNL     1     -36.493  22.309   2.067  0.00  0.00    -0.126 OA
ATOM     19  O   UNL     1     -38.259  22.912   3.223  0.00  0.00    -0.126 OA
ATOM     20  N   UNL     1     -37.034  22.992   2.967  0.00  0.00    +0.058 N 
ENDBRANCH   4  20
BRANCH   3  22
ATOM     21  O   UNL     1     -35.083  21.107   4.655  0.00  0.00    -0.245 OA
ATOM     22  C   UNL     1     -35.559  22.062   5.273  0.00  0.00    +0.340 C 
BRANCH  22  23
ATOM     23  O   UNL     1     -36.193  21.913   6.467  0.00  0.00    -0.477 OA
ATOM     24  H   UNL     1     -37.055  21.548   6.498  0.00  0.00    +0.295 HD
ENDBRANCH  22  23
ENDBRANCH   3  22
TORSDOF 6
ENDMDL
MODEL 2
REMARK VINA RESULT:      -6.4      1.289      2.551
REMARK  Name = 193864
REMARK  6 active torsions:
REMARK  status: ('A' for Active; 'I' for Inactive)
REMARK    1  A    between atoms: C_1  and  N_8
REMARK    2  A    between atoms: C_3  and  C_22
REMARK    3  A    between atoms: C_4  and  N_20
REMARK    4  A    between atoms: C_9  and  C_11
REMARK    5  A    between atoms: C_11  and  C_12
REMARK    6  A    between atoms: C_22  and  O_23
REMARK                            x       y       z     vdW  Elec       q    Type
REMARK                         _______ _______ _______ _____ _____    ______ ____
ROOT
ATOM      1  C   UNL     1     -34.983  25.644   5.245  0.00  0.00    +0.051 C 
ATOM      2  C   UNL     1     -35.893  26.233   4.368  0.00  0.00    +0.023 C 
ATOM      3  C   UNL     1     -36.766  25.435   3.628  0.00  0.00    +0.099 C 
ATOM      4  C   UNL     1     -36.727  24.047   3.765  0.00  0.00    +0.149 C 
ATOM      5  C   UNL     1     -34.945  24.257   5.382  0.00  0.00    +0.016 C 
ATOM      6  C   UNL     1     -35.816  23.458   4.642  0.00  0.00    +0.026 C 
ENDROOT
BRANCH   1   8
ATOM      7  O   UNL     1     -32.459  27.044   4.420  0.00  0.00    -0.274 OA
ATOM      8  N   UNL     1     -34.109  26.441   5.985  0.00  0.00    -0.284 N 
ATOM      9  C   UNL     1     -32.934  27.078   5.551  0.00  0.00    +0.231 C 
ATOM     10  H   UNL     1     -34.345  26.573   6.931  0.00  0.00    +0.155 HD
BRANCH   9  11
ATOM     11  C   UNL     1     -32.280  27.850   6.685  0.00  0.00    +0.112 C 
BRANCH  11  12
ATOM     12  C   UNL     1     -31.414  28.989   6.213  0.00  0.00    -0.013 C 
ATOM     13  C   UNL     1     -30.034  28.886   6.315  0.00  0.00    -0.004 C 
ATOM     14  C   UNL     1     -32.010  30.126   5.684  0.00  0.00    -0.004 C 
ATOM     15  C   UNL     1     -29.233  29.940   5.878  0.00  0.00    -0.000 C 
ATOM     16  C   UNL     1     -31.208  31.180   5.246  0.00  0.00    -0.000 C 
ATOM     17  C   UNL     1     -29.819  31.087   5.343  0.00  0.00    -0.000 C 
ENDBRANCH  11  12
ENDBRANCH   9  11
ENDBRANCH   1   8
BRANCH   4  20
ATOM     18  O   UNL     1     -38.844  23.358   3.162  0.00  0.00    -0.126 OA
ATOM     19  O   UNL     1     -37.118  22.352   2.251  0.00  0.00    -0.126 OA
ATOM     20  N   UNL     1     -37.607  23.211   3.022  0.00  0.00    +0.058 N 
ENDBRANCH   4  20
BRANCH   3  22
ATOM     21  O   UNL     1     -37.498  26.327   1.532  0.00  0.00    -0.245 OA
ATOM     22  C   UNL     1     -37.706  26.086   2.723  0.00  0.00    +0.340 C 
BRANCH  22  23
ATOM     23  O   UNL     1     -38.875  26.410   3.338  0.00  0.00    -0.477 OA
ATOM     24  H   UNL     1     -38.978  26.261   4.257  0.00  0.00    +0.295 HD
ENDBRANCH  22  23
ENDBRANCH   3  22
TORSDOF 6
ENDMDL
MODEL 3
REMARK VINA RESULT:      -6.1      1.853      2.509
REMARK  Name = 193864
REMARK  6 active torsions:
REMARK  status: ('A' for Active; 'I' for Inactive)
REMARK    1  A    between atoms: C_1  and  N_8
REMARK    2  A    between atoms: C_3  and  C_22
REMARK    3  A    between atoms: C_4  and  N_20
REMARK    4  A    between atoms: C_9  and  C_11
REMARK    5  A    between atoms: C_11  and  C_12
REMARK    6  A    between atoms: C_22  and  O_23
REMARK                            x       y       z     vdW  Elec       q    Type
REMARK                         _______ _______ _______ _____ _____    ______ ____
ROOT
ATOM      1  C   UNL     1     -34.207  24.833   2.716  0.00  0.00    +0.051 C 
ATOM      2  C   UNL     1     -34.545  24.138   3.877  0.00  0.00    +0.023 C 
ATOM      3  C   UNL     1     -35.271  22.951   3.794  0.00  0.00    +0.099 C 
ATOM      4  C   UNL     1     -35.661  22.457   2.549  0.00  0.00    +0.149 C 
ATOM      5  C   UNL     1     -34.597  24.339   1.471  0.00  0.00    +0.016 C 
ATOM      6  C   UNL     1     -35.323  23.152   1.387  0.00  0.00    +0.026 C 
ENDROOT
BRANCH   1   8
ATOM      7  O   UNL     1     -35.073  27.585   3.548  0.00  0.00    -0.274 OA
ATOM      8  N   UNL     1     -33.482  26.022   2.798  0.00  0.00    -0.284 N 
ATOM      9  C   UNL     1     -33.934  27.291   3.195  0.00  0.00    +0.231 C 
ATOM     10  H   UNL     1     -32.533  25.964   2.545  0.00  0.00    +0.155 HD
BRANCH   9  11
ATOM     11  C   UNL     1     -32.812  28.314   3.139  0.00  0.00    +0.112 C 
BRANCH  11  12
ATOM     12  C   UNL     1     -32.414  28.842   4.493  0.00  0.00    -0.013 C 
ATOM     13  C   UNL     1     -32.237  27.957   5.546  0.00  0.00    -0.004 C 
ATOM     14  C   UNL     1     -32.229  30.207   4.667  0.00  0.00    -0.004 C 
ATOM     15  C   UNL     1     -31.868  28.446   6.800  0.00  0.00    -0.000 C 
ATOM     16  C   UNL     1     -31.860  30.696   5.920  0.00  0.00    -0.000 C 
ATOM     17  C   UNL     1     -31.679  29.815   6.986  0.00  0.00    -0.000 C 
ENDBRANCH  11  12
ENDBRANCH   9  11
ENDBRANCH   1   8
BRANCH   4  20
ATOM     18  O   UNL     1     -37.643  21.310   2.279  0.00  0.00    -0.126 OA
ATOM     19  O   UNL     1     -35.788  20.155   2.499  0.00  0.00    -0.126 OA
ATOM     20  N   UNL     1     -36.401  21.247   2.437  0.00  0.00    +0.058 N 
ENDBRANCH   4  20
BRANCH   3  22
ATOM     21  O   UNL     1     -36.217  22.737   5.982  0.00  0.00    -0.245 OA
ATOM     22  C   UNL     1     -35.604  22.250   5.029  0.00  0.00    +0.340 C 
BRANCH  22  23
ATOM     23  O   UNL     1     -35.161  20.964   5.029  0.00  0.00    -0.477 OA
ATOM     24  H   UNL     1     -35.639  20.304   5.489  0.00  0.00    +0.295 HD
ENDBRANCH  22  23
ENDBRANCH   3  22
TORSDOF 6
ENDMDL
MODEL 4
REMARK VINA RESULT:      -6.1      5.119      7.759
REMARK  Name = 193864
REMARK  6 active torsions:
REMARK  status: ('A' for Active; 'I' for Inactive)
REMARK    1  A    between atoms: C_1  and  N_8
REMARK    2  A    between atoms: C_3  and  C_22
REMARK    3  A    between atoms: C_4  and  N_20
REMARK    4  A    between atoms: C_9  and  C_11
REMARK    5  A    between atoms: C_11  and  C_12
REMARK    6  A    between atoms: C_22  and  O_23
REMARK                            x       y       z     vdW  Elec       q    Type
REMARK                         _______ _______ _______ _____ _____    ______ ____
ROOT
ATOM      1  C   UNL     1     -39.631  25.226   3.202  0.00  0.00    +0.051 C 
ATOM      2  C   UNL     1     -40.523  26.274   3.420  0.00  0.00    +0.023 C 
ATOM      3  C   UNL     1     -41.657  26.404   2.618  0.00  0.00    +0.099 C 
ATOM      4  C   UNL     1     -41.898  25.484   1.598  0.00  0.00    +0.149 C 
ATOM      5  C   UNL     1     -39.872  24.306   2.182  0.00  0.00    +0.016 C 
ATOM      6  C   UNL     1     -41.005  24.434   1.380  0.00  0.00    +0.026 C 
ENDROOT
BRANCH   1   8
ATOM      7  O   UNL     1     -36.827  26.211   2.773  0.00  0.00    -0.274 OA
ATOM      8  N   UNL     1     -38.495  25.096   4.002  0.00  0.00    -0.284 N 
ATOM      9  C   UNL     1     -37.198  25.578   3.757  0.00  0.00    +0.231 C 
ATOM     10  H   UNL     1     -38.617  24.604   4.846  0.00  0.00    +0.155 HD
BRANCH   9  11
ATOM     11  C   UNL     1     -36.255  25.213   4.892  0.00  0.00    +0.112 C 
BRANCH  11  12
ATOM     12  C   UNL     1     -35.846  23.763   4.889  0.00  0.00    -0.013 C 
ATOM     13  C   UNL     1     -35.869  23.049   3.699  0.00  0.00    -0.004 C 
ATOM     14  C   UNL     1     -35.451  23.163   6.077  0.00  0.00    -0.004 C 
ATOM     15  C   UNL     1     -35.490  21.707   3.697  0.00  0.00    -0.000 C 
ATOM     16  C   UNL     1     -35.072  21.821   6.074  0.00  0.00    -0.000 C 
ATOM     17  C   UNL     1     -35.091  21.093   4.884  0.00  0.00    -0.000 C 
ENDBRANCH  11  12
ENDBRANCH   9  11
ENDBRANCH   1   8
BRANCH   4  20
ATOM     18  O   UNL     1     -42.959  26.226  -0.311  0.00  0.00    -0.126 OA
ATOM     19  O   UNL     1     -44.117  25.052   1.140  0.00  0.00    -0.126 OA
ATOM     20  N   UNL     1     -43.048  25.593   0.767  0.00  0.00    +0.058 N 
ENDBRANCH   4  20
BRANCH   3  22
ATOM     21  O   UNL     1     -42.336  28.698   2.638  0.00  0.00    -0.245 OA
ATOM     22  C   UNL     1     -42.570  27.511   2.877  0.00  0.00    +0.340 C 
BRANCH  22  23
ATOM     23  O   UNL     1     -43.744  27.096   3.424  0.00  0.00    -0.477 OA
ATOM     24  H   UNL     1     -44.181  26.344   3.079  0.00  0.00    +0.295 HD
ENDBRANCH  22  23
ENDBRANCH   3  22
TORSDOF 6
ENDMDL
MODEL 5
REMARK VINA RESULT:      -6.1      4.636      7.319
REMARK  Name = 193864
REMARK  6 active torsions:
REMARK  status: ('A' for Active; 'I' for Inactive)
REMARK    1  A    between atoms: C_1  and  N_8
REMARK    2  A    between atoms: C_3  and  C_22
REMARK    3  A    between atoms: C_4  and  N_20
REMARK    4  A    between atoms: C_9  and  C_11
REMARK    5  A    between atoms: C_11  and  C_12
REMARK    6  A    between atoms: C_22  and  O_23
REMARK                            x       y       z     vdW  Elec       q    Type
REMARK                         _______ _______ _______ _____ _____    ______ ____
ROOT
ATOM      1  C   UNL     1     -35.634  20.016   1.633  0.00  0.00    +0.051 C 
ATOM      2  C   UNL     1     -34.277  19.729   1.777  0.00  0.00    +0.023 C 
ATOM      3  C   UNL     1     -33.671  18.788   0.945  0.00  0.00    +0.099 C 
ATOM      4  C   UNL     1     -34.422  18.135  -0.032  0.00  0.00    +0.149 C 
ATOM      5  C   UNL     1     -36.385  19.363   0.656  0.00  0.00    +0.016 C 
ATOM      6  C   UNL     1     -35.780  18.423  -0.177  0.00  0.00    +0.026 C 
ENDROOT
BRANCH   1   8
ATOM      7  O   UNL     1     -36.041  22.968   1.264  0.00  0.00    -0.274 OA
ATOM      8  N   UNL     1     -36.242  20.956   2.467  0.00  0.00    -0.284 N 
ATOM      9  C   UNL     1     -36.410  22.333   2.248  0.00  0.00    +0.231 C 
ATOM     10  H   UNL     1     -36.599  20.609   3.316  0.00  0.00    +0.155 HD
BRANCH   9  11
ATOM     11  C   UNL     1     -37.128  22.989   3.416  0.00  0.00    +0.112 C 
BRANCH  11  12
ATOM     12  C   UNL     1     -36.260  23.942   4.196  0.00  0.00    -0.013 C 
ATOM     13  C   UNL     1     -36.773  25.171   4.585  0.00  0.00    -0.004 C 
ATOM     14  C   UNL     1     -34.959  23.576   4.513  0.00  0.00    -0.004 C 
ATOM     15  C   UNL     1     -35.969  26.053   5.308  0.00  0.00    -0.000 C 
ATOM     16  C   UNL     1     -34.155  24.458   5.236  0.00  0.00    -0.000 C 
ATOM     17  C   UNL     1     -34.660  25.697   5.633  0.00  0.00    -0.000 C 
ENDBRANCH  11  12
ENDBRANCH   9  11
ENDBRANCH   1   8
BRANCH   4  20
ATOM     18  O   UNL     1     -34.000  15.955  -0.655  0.00  0.00    -0.126 OA
ATOM     19  O   UNL     1     -33.147  17.573  -1.870  0.00  0.00    -0.126 OA
ATOM     20  N   UNL     1     -33.827  17.173  -0.895  0.00  0.00    +0.058 N 
ENDBRANCH   4  20
BRANCH   3  22
ATOM     21  O   UNL     1     -31.776  17.659   1.873  0.00  0.00    -0.245 OA
ATOM     22  C   UNL     1     -32.250  18.515   1.122  0.00  0.00    +0.340 C 
BRANCH  22  23
ATOM     23  O   UNL     1     -31.469  19.321   0.353  0.00  0.00    -0.477 OA
ATOM     24  H   UNL     1     -30.575  19.471   0.588  0.00  0.00    +0.295 HD
ENDBRANCH  22  23
ENDBRANCH   3  22
TORSDOF 6
ENDMDL
MODEL 6
REMARK VINA RESULT:      -6.0      5.135      7.410
REMARK  Name = 193864
REMARK  6 active torsions:
REMARK  status: ('A' for Active; 'I' for Inactive)
REMARK    1  A    between atoms: C_1  and  N_8
REMARK    2  A    between atoms: C_3  and  C_22
REMARK    3  A    between atoms: C_4  and  N_20
REMARK    4  A    between atoms: C_9  and  C_11
REMARK    5  A    between atoms: C_11  and  C_12
REMARK    6  A    between atoms: C_22  and  O_23
REMARK                            x       y       z     vdW  Elec       q    Type
REMARK                         _______ _______ _______ _____ _____    ______ ____
ROOT
ATOM      1  C   UNL     1     -39.625  25.000   3.048  0.00  0.00    +0.051 C 
ATOM      2  C   UNL     1     -39.711  24.118   1.972  0.00  0.00    +0.023 C 
ATOM      3  C   UNL     1     -40.827  24.146   1.134  0.00  0.00    +0.099 C 
ATOM      4  C   UNL     1     -41.856  25.056   1.374  0.00  0.00    +0.149 C 
ATOM      5  C   UNL     1     -40.654  25.910   3.287  0.00  0.00    +0.016 C 
ATOM      6  C   UNL     1     -41.769  25.939   2.451  0.00  0.00    +0.026 C 
ENDROOT
BRANCH   1   8
ATOM      7  O   UNL     1     -36.901  26.215   2.703  0.00  0.00    -0.274 OA
ATOM      8  N   UNL     1     -38.510  24.973   3.887  0.00  0.00    -0.284 N 
ATOM      9  C   UNL     1     -37.251  25.560   3.680  0.00  0.00    +0.231 C 
ATOM     10  H   UNL     1     -38.620  24.478   4.731  0.00  0.00    +0.155 HD
BRANCH   9  11
ATOM     11  C   UNL     1     -36.320  25.285   4.850  0.00  0.00    +0.112 C 
BRANCH  11  12
ATOM     12  C   UNL     1     -35.867  23.850   4.932  0.00  0.00    -0.013 C 
ATOM     13  C   UNL     1     -35.893  23.061   3.791  0.00  0.00    -0.004 C 
ATOM     14  C   UNL     1     -35.431  23.340   6.146  0.00  0.00    -0.004 C 
ATOM     15  C   UNL     1     -35.473  21.732   3.866  0.00  0.00    -0.000 C 
ATOM     16  C   UNL     1     -35.011  22.012   6.222  0.00  0.00    -0.000 C 
ATOM     17  C   UNL     1     -35.031  21.208   5.081  0.00  0.00    -0.000 C 
ENDBRANCH  11  12
ENDBRANCH   9  11
ENDBRANCH   1   8
BRANCH   4  20
ATOM     18  O   UNL     1     -43.012  25.901  -0.434  0.00  0.00    -0.126 OA
ATOM     19  O   UNL     1     -43.972  24.351   0.789  0.00  0.00    -0.126 OA
ATOM     20  N   UNL     1     -43.004  25.105   0.534  0.00  0.00    +0.058 N 
ENDBRANCH   4  20
BRANCH   3  22
ATOM     21  O   UNL     1     -41.426  22.104   0.040  0.00  0.00    -0.245 OA
ATOM     22  C   UNL     1     -40.882  23.210   0.017  0.00  0.00    +0.340 C 
BRANCH  22  23
ATOM     23  O   UNL     1     -40.256  23.692  -1.091  0.00  0.00    -0.477 OA
ATOM     24  H   UNL     1     -39.367  23.981  -1.038  0.00  0.00    +0.295 HD
ENDBRANCH  22  23
ENDBRANCH   3  22
TORSDOF 6
ENDMDL
MODEL 7
REMARK VINA RESULT:      -6.0      4.079      6.441
REMARK  Name = 193864
REMARK  6 active torsions:
REMARK  status: ('A' for Active; 'I' for Inactive)
REMARK    1  A    between atoms: C_1  and  N_8
REMARK    2  A    between atoms: C_3  and  C_22
REMARK    3  A    between atoms: C_4  and  N_20
REMARK    4  A    between atoms: C_9  and  C_11
REMARK    5  A    between atoms: C_11  and  C_12
REMARK    6  A    between atoms: C_22  and  O_23
REMARK                            x       y       z     vdW  Elec       q    Type
REMARK                         _______ _______ _______ _____ _____    ______ ____
ROOT
ATOM      1  C   UNL     1     -35.672  20.865   2.627  0.00  0.00    +0.051 C 
ATOM      2  C   UNL     1     -34.410  20.325   2.385  0.00  0.00    +0.023 C 
ATOM      3  C   UNL     1     -34.227  19.418   1.342  0.00  0.00    +0.099 C 
ATOM      4  C   UNL     1     -35.307  19.051   0.539  0.00  0.00    +0.149 C 
ATOM      5  C   UNL     1     -36.753  20.498   1.825  0.00  0.00    +0.016 C 
ATOM      6  C   UNL     1     -36.571  19.591   0.781  0.00  0.00    +0.026 C 
ENDROOT
BRANCH   1   8
ATOM      7  O   UNL     1     -34.889  20.682   5.520  0.00  0.00    -0.274 OA
ATOM      8  N   UNL     1     -35.857  21.771   3.672  0.00  0.00    -0.284 N 
ATOM      9  C   UNL     1     -35.470  21.639   5.016  0.00  0.00    +0.231 C 
ATOM     10  H   UNL     1     -36.317  22.609   3.438  0.00  0.00    +0.155 HD
BRANCH   9  11
ATOM     11  C   UNL     1     -35.867  22.865   5.822  0.00  0.00    +0.112 C 
BRANCH  11  12
ATOM     12  C   UNL     1     -35.449  24.164   5.184  0.00  0.00    -0.013 C 
ATOM     13  C   UNL     1     -36.409  25.123   4.895  0.00  0.00    -0.004 C 
ATOM     14  C   UNL     1     -34.109  24.382   4.894  0.00  0.00    -0.004 C 
ATOM     15  C   UNL     1     -36.022  26.326   4.305  0.00  0.00    -0.000 C 
ATOM     16  C   UNL     1     -33.722  25.585   4.303  0.00  0.00    -0.000 C 
ATOM     17  C   UNL     1     -34.678  26.557   4.009  0.00  0.00    -0.000 C 
ENDBRANCH  11  12
ENDBRANCH   9  11
ENDBRANCH   1   8
BRANCH   4  20
ATOM     18  O   UNL     1     -35.314  16.907  -0.311  0.00  0.00    -0.126 OA
ATOM     19  O   UNL     1     -34.843  18.568  -1.667  0.00  0.00    -0.126 OA
ATOM     20  N   UNL     1     -35.147  18.129  -0.533  0.00  0.00    +0.058 N 
ENDBRANCH   4  20
BRANCH   3  22
ATOM     21  O   UNL     1     -32.490  17.781   1.518  0.00  0.00    -0.245 OA
ATOM     22  C   UNL     1     -32.892  18.875   1.117  0.00  0.00    +0.340 C 
BRANCH  22  23
ATOM     23  O   UNL     1     -32.107  19.720   0.395  0.00  0.00    -0.477 OA
ATOM     24  H   UNL     1     -31.347  19.393  -0.043  0.00  0.00    +0.295 HD
ENDBRANCH  22  23
ENDBRANCH   3  22
TORSDOF 6
ENDMDL
MODEL 8
REMARK VINA RESULT:      -6.0     11.347     12.499
REMARK  Name = 193864
REMARK  6 active torsions:
REMARK  status: ('A' for Active; 'I' for Inactive)
REMARK    1  A    between atoms: C_1  and  N_8
REMARK    2  A    between atoms: C_3  and  C_22
REMARK    3  A    between atoms: C_4  and  N_20
REMARK    4  A    between atoms: C_9  and  C_11
REMARK    5  A    between atoms: C_11  and  C_12
REMARK    6  A    between atoms: C_22  and  O_23
REMARK                            x       y       z     vdW  Elec       q    Type
REMARK                         _______ _______ _______ _____ _____    ______ ____
ROOT
ATOM      1  C   UNL     1     -44.689  33.361   4.674  0.00  0.00    +0.051 C 
ATOM      2  C   UNL     1     -44.022  32.375   5.401  0.00  0.00    +0.023 C 
ATOM      3  C   UNL     1     -44.693  31.672   6.402  0.00  0.00    +0.099 C 
ATOM      4  C   UNL     1     -46.031  31.956   6.676  0.00  0.00    +0.149 C 
ATOM      5  C   UNL     1     -46.027  33.644   4.948  0.00  0.00    +0.016 C 
ATOM      6  C   UNL     1     -46.698  32.942   5.949  0.00  0.00    +0.026 C 
ENDROOT
BRANCH   1   8
ATOM      7  O   UNL     1     -43.695  32.455   1.990  0.00  0.00    -0.274 OA
ATOM      8  N   UNL     1     -44.019  34.066   3.674  0.00  0.00    -0.284 N 
ATOM      9  C   UNL     1     -43.573  33.595   2.428  0.00  0.00    +0.231 C 
ATOM     10  H   UNL     1     -43.836  35.014   3.866  0.00  0.00    +0.155 HD
BRANCH   9  11
ATOM     11  C   UNL     1     -42.887  34.699   1.640  0.00  0.00    +0.112 C 
BRANCH  11  12
ATOM     12  C   UNL     1     -41.400  34.771   1.878  0.00  0.00    -0.013 C 
ATOM     13  C   UNL     1     -40.894  35.719   2.755  0.00  0.00    -0.004 C 
ATOM     14  C   UNL     1     -40.559  33.886   1.216  0.00  0.00    -0.004 C 
ATOM     15  C   UNL     1     -39.518  35.785   2.975  0.00  0.00    -0.000 C 
ATOM     16  C   UNL     1     -39.184  33.953   1.436  0.00  0.00    -0.000 C 
ATOM     17  C   UNL     1     -38.663  34.902   2.317  0.00  0.00    -0.000 C 
ENDBRANCH  11  12
ENDBRANCH   9  11
ENDBRANCH   1   8
BRANCH   4  20
ATOM     18  O   UNL     1     -46.713  31.693   8.863  0.00  0.00    -0.126 OA
ATOM     19  O   UNL     1     -47.365  30.211   7.381  0.00  0.00    -0.126 OA
ATOM     20  N   UNL     1     -46.738  31.252   7.691  0.00  0.00    +0.058 N 
ENDBRANCH   4  20
BRANCH   3  22
ATOM     21  O   UNL     1     -43.620  29.553   6.687  0.00  0.00    -0.245 OA
ATOM     22  C   UNL     1     -43.965  30.646   7.139  0.00  0.00    +0.340 C 
BRANCH  22  23
ATOM     23  O   UNL     1     -43.691  31.025   8.416  0.00  0.00    -0.477 OA
ATOM     24  H   UNL     1     -44.385  31.112   9.039  0.00  0.00    +0.295 HD
ENDBRANCH  22  23
ENDBRANCH   3  22
TORSDOF 6
ENDMDL
MODEL 9
REMARK VINA RESULT:      -6.0      1.789      3.026
REMARK  Name = 193864
REMARK  6 active torsions:
REMARK  status: ('A' for Active; 'I' for Inactive)
REMARK    1  A    between atoms: C_1  and  N_8
REMARK    2  A    between atoms: C_3  and  C_22
REMARK    3  A    between atoms: C_4  and  N_20
REMARK    4  A    between atoms: C_9  and  C_11
REMARK    5  A    between atoms: C_11  and  C_12
REMARK    6  A    between atoms: C_22  and  O_23
REMARK                            x       y       z     vdW  Elec       q    Type
REMARK                         _______ _______ _______ _____ _____    ______ ____
ROOT
ATOM      1  C   UNL     1     -35.265  26.521   4.191  0.00  0.00    +0.051 C 
ATOM      2  C   UNL     1     -36.129  25.698   3.471  0.00  0.00    +0.023 C 
ATOM      3  C   UNL     1     -36.255  24.350   3.810  0.00  0.00    +0.099 C 
ATOM      4  C   UNL     1     -35.515  23.827   4.871  0.00  0.00    +0.149 C 
ATOM      5  C   UNL     1     -34.526  25.998   5.252  0.00  0.00    +0.016 C 
ATOM      6  C   UNL     1     -34.650  24.651   5.592  0.00  0.00    +0.026 C 
ENDROOT
BRANCH   1   8
ATOM      7  O   UNL     1     -33.355  27.880   2.316  0.00  0.00    -0.274 OA
ATOM      8  N   UNL     1     -35.137  27.868   3.852  0.00  0.00    -0.284 N 
ATOM      9  C   UNL     1     -34.223  28.458   2.964  0.00  0.00    +0.231 C 
ATOM     10  H   UNL     1     -35.767  28.484   4.291  0.00  0.00    +0.155 HD
BRANCH   9  11
ATOM     11  C   UNL     1     -34.428  29.962   2.886  0.00  0.00    +0.112 C 
BRANCH  11  12
ATOM     12  C   UNL     1     -33.225  30.755   3.325  0.00  0.00    -0.013 C 
ATOM     13  C   UNL     1     -32.560  30.399   4.490  0.00  0.00    -0.004 C 
ATOM     14  C   UNL     1     -32.798  31.831   2.558  0.00  0.00    -0.004 C 
ATOM     15  C   UNL     1     -31.446  31.133   4.897  0.00  0.00    -0.000 C 
ATOM     16  C   UNL     1     -31.684  32.565   2.965  0.00  0.00    -0.000 C 
ATOM     17  C   UNL     1     -31.007  32.216   4.134  0.00  0.00    -0.000 C 
ENDBRANCH  11  12
ENDBRANCH   9  11
ENDBRANCH   1   8
BRANCH   4  20
ATOM     18  O   UNL     1     -35.266  21.579   4.420  0.00  0.00    -0.126 OA
ATOM     19  O   UNL     1     -36.083  22.169   6.370  0.00  0.00    -0.126 OA
ATOM     20  N   UNL     1     -35.626  22.457   5.238  0.00  0.00    +0.058 N 
ENDBRANCH   4  20
BRANCH   3  22
ATOM     21  O   UNL     1     -38.380  23.410   3.242  0.00  0.00    -0.245 OA
ATOM     22  C   UNL     1     -37.170  23.520   3.036  0.00  0.00    +0.340 C 
BRANCH  22  23
ATOM     23  O   UNL     1     -36.539  22.857   2.029  0.00  0.00    -0.477 OA
ATOM     24  H   UNL     1     -35.609  22.754   2.047  0.00  0.00    +0.295 HD
ENDBRANCH  22  23
ENDBRANCH   3  22
TORSDOF 6
ENDMDL
