MODEL 1
REMARK VINA RESULT:      -8.1      0.000      0.000
REMARK  Name = 54733074
REMARK  9 active torsions:
REMARK  status: ('A' for Active; 'I' for Inactive)
REMARK    1  A    between atoms: C_3  and  C_8
REMARK    2  A    between atoms: C_3  and  C_22
REMARK    3  A    between atoms: C_5  and  O_36
REMARK    4  A    between atoms: C_6  and  C_14
REMARK    5  A    between atoms: N_21  and  C_24
REMARK    6  A    between atoms: C_24  and  C_26
REMARK    7  A    between atoms: C_24  and  C_29
REMARK    8  A    between atoms: C_26  and  O_27
REMARK    9  A    between atoms: C_29  and  C_30
REMARK                            x       y       z     vdW  Elec       q    Type
REMARK                         _______ _______ _______ _____ _____    ______ ____
ROOT
ATOM      1  O   UNL     1     -38.624  22.932   2.219  0.00  0.00    -0.418 OA
ATOM      2  O   UNL     1     -40.802  23.177   1.547  0.00  0.00    -0.244 OA
ATOM      3  C   UNL     1     -36.508  23.444   3.181  0.00  0.00    +0.091 C 
ATOM      4  C   UNL     1     -37.753  23.808   2.861  0.00  0.00    +0.187 C 
ATOM      5  C   UNL     1     -38.419  25.048   3.077  0.00  0.00    +0.175 C 
ATOM      6  C   UNL     1     -39.666  25.000   2.611  0.00  0.00    +0.113 C 
ATOM      7  C   UNL     1     -39.794  23.634   2.061  0.00  0.00    +0.349 C 
ENDROOT
BRANCH   3   8
ATOM      8  C   UNL     1     -35.626  24.408   3.862  0.00  0.00    +0.007 C 
ATOM      9  C   UNL     1     -34.755  25.203   3.117  0.00  0.00    +0.000 C 
ATOM     10  C   UNL     1     -35.662  24.525   5.251  0.00  0.00    +0.000 C 
ATOM     11  C   UNL     1     -33.919  26.115   3.761  0.00  0.00    +0.000 C 
ATOM     12  C   UNL     1     -34.826  25.438   5.896  0.00  0.00    +0.000 C 
ATOM     13  C   UNL     1     -33.955  26.232   5.151  0.00  0.00    +0.000 C 
ENDBRANCH   3   8
BRANCH   6  14
ATOM     14  C   UNL     1     -40.690  26.043   2.602  0.00  0.00    +0.009 C 
ATOM     15  C   UNL     1     -41.337  26.394   3.786  0.00  0.00    +0.000 C 
ATOM     16  C   UNL     1     -41.021  26.685   1.408  0.00  0.00    +0.000 C 
ATOM     17  C   UNL     1     -42.316  27.390   3.778  0.00  0.00    +0.000 C 
ATOM     18  C   UNL     1     -41.998  27.680   1.400  0.00  0.00    +0.000 C 
ATOM     19  C   UNL     1     -42.645  28.032   2.584  0.00  0.00    +0.000 C 
ENDBRANCH   6  14
BRANCH   3  22
ATOM     20  O   UNL     1     -35.776  21.210   3.610  0.00  0.00    -0.270 OA
ATOM     21  N   UNL     1     -36.023  21.865   1.405  0.00  0.00    -0.293 N 
ATOM     22  C   UNL     1     -36.071  22.066   2.776  0.00  0.00    +0.249 C 
ATOM     23  H   UNL     1     -36.276  22.603   0.804  0.00  0.00    +0.150 HD
BRANCH  21  24
ATOM     24  C   UNL     1     -35.614  20.606   0.833  0.00  0.00    +0.176 C 
BRANCH  24  26
ATOM     25  O   UNL     1     -37.949  20.173   0.391  0.00  0.00    -0.248 OA
ATOM     26  C   UNL     1     -36.800  19.747   0.416  0.00  0.00    +0.335 C 
BRANCH  26  27
ATOM     27  O   UNL     1     -36.427  18.474   0.101  0.00  0.00    -0.443 OA
ATOM     28  C   UNL     1     -37.481  17.606  -0.325  0.00  0.00    +0.256 C 
ENDBRANCH  26  27
ENDBRANCH  24  26
BRANCH  24  29
ATOM     29  C   UNL     1     -34.656  19.853   1.767  0.00  0.00    +0.057 C 
BRANCH  29  30
ATOM     30  C   UNL     1     -33.304  19.539   1.167  0.00  0.00    -0.020 C 
ATOM     31  C   UNL     1     -32.679  20.467   0.334  0.00  0.00    -0.004 C 
ATOM     32  C   UNL     1     -32.683  18.323   1.447  0.00  0.00    -0.004 C 
ATOM     33  C   UNL     1     -31.432  20.178  -0.220  0.00  0.00    -0.000 C 
ATOM     34  C   UNL     1     -31.435  18.033   0.893  0.00  0.00    -0.000 C 
ATOM     35  C   UNL     1     -30.810  18.961   0.059  0.00  0.00    -0.000 C 
ENDBRANCH  29  30
ENDBRANCH  24  29
ENDBRANCH  21  24
ENDBRANCH   3  22
BRANCH   5  36
ATOM     36  O   UNL     1     -37.813  26.126   3.658  0.00  0.00    -0.503 OA
ATOM     37  H   UNL     1     -37.084  26.538   3.237  0.00  0.00    +0.292 HD
ENDBRANCH   5  36
TORSDOF 9
ENDMDL
MODEL 2
REMARK VINA RESULT:      -7.8      3.530      7.246
REMARK  Name = 54733074
REMARK  9 active torsions:
REMARK  status: ('A' for Active; 'I' for Inactive)
REMARK    1  A    between atoms: C_3  and  C_8
REMARK    2  A    between atoms: C_3  and  C_22
REMARK    3  A    between atoms: C_5  and  O_36
REMARK    4  A    between atoms: C_6  and  C_14
REMARK    5  A    between atoms: N_21  and  C_24
REMARK    6  A    between atoms: C_24  and  C_26
REMARK    7  A    between atoms: C_24  and  C_29
REMARK    8  A    between atoms: C_26  and  O_27
REMARK    9  A    between atoms: C_29  and  C_30
REMARK                            x       y       z     vdW  Elec       q    Type
REMARK                         _______ _______ _______ _____ _____    ______ ____
ROOT
ATOM      1  O   UNL     1     -36.372  26.911   2.080  0.00  0.00    -0.418 OA
ATOM      2  O   UNL     1     -38.069  27.984   0.974  0.00  0.00    -0.244 OA
ATOM      3  C   UNL     1     -35.226  25.269   3.367  0.00  0.00    +0.091 C 
ATOM      4  C   UNL     1     -36.351  25.728   2.813  0.00  0.00    +0.187 C 
ATOM      5  C   UNL     1     -37.663  25.174   2.835  0.00  0.00    +0.175 C 
ATOM      6  C   UNL     1     -38.509  25.941   2.150  0.00  0.00    +0.113 C 
ATOM      7  C   UNL     1     -37.672  27.059   1.664  0.00  0.00    +0.349 C 
ENDROOT
BRANCH   3   8
ATOM      8  C   UNL     1     -35.257  24.010   4.132  0.00  0.00    +0.007 C 
ATOM      9  C   UNL     1     -35.312  24.041   5.525  0.00  0.00    +0.000 C 
ATOM     10  C   UNL     1     -35.231  22.787   3.462  0.00  0.00    +0.000 C 
ATOM     11  C   UNL     1     -35.341  22.850   6.250  0.00  0.00    +0.000 C 
ATOM     12  C   UNL     1     -35.261  21.594   4.187  0.00  0.00    +0.000 C 
ATOM     13  C   UNL     1     -35.315  21.626   5.580  0.00  0.00    +0.000 C 
ENDBRANCH   3   8
BRANCH   6  14
ATOM     14  C   UNL     1     -39.944  25.769   1.931  0.00  0.00    +0.009 C 
ATOM     15  C   UNL     1     -40.859  26.421   2.758  0.00  0.00    +0.000 C 
ATOM     16  C   UNL     1     -40.399  24.952   0.896  0.00  0.00    +0.000 C 
ATOM     17  C   UNL     1     -42.229  26.257   2.549  0.00  0.00    +0.000 C 
ATOM     18  C   UNL     1     -41.768  24.788   0.687  0.00  0.00    +0.000 C 
ATOM     19  C   UNL     1     -42.683  25.440   1.514  0.00  0.00    +0.000 C 
ENDBRANCH   6  14
BRANCH   3  22
ATOM     20  O   UNL     1     -32.979  25.674   2.660  0.00  0.00    -0.270 OA
ATOM     21  N   UNL     1     -34.100  27.386   3.738  0.00  0.00    -0.293 N 
ATOM     22  C   UNL     1     -33.991  26.109   3.208  0.00  0.00    +0.249 C 
ATOM     23  H   UNL     1     -34.947  27.658   4.160  0.00  0.00    +0.150 HD
BRANCH  21  24
ATOM     24  C   UNL     1     -33.010  28.328   3.686  0.00  0.00    +0.176 C 
BRANCH  24  26
ATOM     25  O   UNL     1     -30.852  27.772   4.619  0.00  0.00    -0.248 OA
ATOM     26  C   UNL     1     -32.011  28.120   4.816  0.00  0.00    +0.335 C 
BRANCH  26  27
ATOM     27  O   UNL     1     -32.565  28.348   6.041  0.00  0.00    -0.443 OA
ATOM     28  C   UNL     1     -32.632  27.216   6.914  0.00  0.00    +0.256 C 
ENDBRANCH  26  27
ENDBRANCH  24  26
BRANCH  24  29
ATOM     29  C   UNL     1     -33.524  29.774   3.629  0.00  0.00    +0.057 C 
BRANCH  29  30
ATOM     30  C   UNL     1     -34.434  30.076   2.461  0.00  0.00    -0.020 C 
ATOM     31  C   UNL     1     -35.610  30.800   2.661  0.00  0.00    -0.004 C 
ATOM     32  C   UNL     1     -34.099  29.631   1.183  0.00  0.00    -0.004 C 
ATOM     33  C   UNL     1     -36.451  31.078   1.584  0.00  0.00    -0.000 C 
ATOM     34  C   UNL     1     -34.939  29.909   0.104  0.00  0.00    -0.000 C 
ATOM     35  C   UNL     1     -36.115  30.633   0.306  0.00  0.00    -0.000 C 
ENDBRANCH  29  30
ENDBRANCH  24  29
ENDBRANCH  21  24
ENDBRANCH   3  22
BRANCH   5  36
ATOM     36  O   UNL     1     -37.975  24.026   3.507  0.00  0.00    -0.503 OA
ATOM     37  H   UNL     1     -38.846  23.891   3.826  0.00  0.00    +0.292 HD
ENDBRANCH   5  36
TORSDOF 9
ENDMDL
MODEL 3
REMARK VINA RESULT:      -7.7      1.133      3.264
REMARK  Name = 54733074
REMARK  9 active torsions:
REMARK  status: ('A' for Active; 'I' for Inactive)
REMARK    1  A    between atoms: C_3  and  C_8
REMARK    2  A    between atoms: C_3  and  C_22
REMARK    3  A    between atoms: C_5  and  O_36
REMARK    4  A    between atoms: C_6  and  C_14
REMARK    5  A    between atoms: N_21  and  C_24
REMARK    6  A    between atoms: C_24  and  C_26
REMARK    7  A    between atoms: C_24  and  C_29
REMARK    8  A    between atoms: C_26  and  O_27
REMARK    9  A    between atoms: C_29  and  C_30
REMARK                            x       y       z     vdW  Elec       q    Type
REMARK                         _______ _______ _______ _____ _____    ______ ____
ROOT
ATOM      1  O   UNL     1     -38.495  22.709   2.361  0.00  0.00    -0.418 OA
ATOM      2  O   UNL     1     -40.670  22.923   1.669  0.00  0.00    -0.244 OA
ATOM      3  C   UNL     1     -36.389  23.258   3.323  0.00  0.00    +0.091 C 
ATOM      4  C   UNL     1     -37.634  23.606   2.984  0.00  0.00    +0.187 C 
ATOM      5  C   UNL     1     -38.307  24.848   3.163  0.00  0.00    +0.175 C 
ATOM      6  C   UNL     1     -39.551  24.781   2.691  0.00  0.00    +0.113 C 
ATOM      7  C   UNL     1     -39.668  23.399   2.176  0.00  0.00    +0.349 C 
ENDROOT
BRANCH   3   8
ATOM      8  C   UNL     1     -35.516  24.245   3.983  0.00  0.00    +0.007 C 
ATOM      9  C   UNL     1     -35.586  24.425   5.365  0.00  0.00    +0.000 C 
ATOM     10  C   UNL     1     -34.620  24.999   3.226  0.00  0.00    +0.000 C 
ATOM     11  C   UNL     1     -34.761  25.359   5.990  0.00  0.00    +0.000 C 
ATOM     12  C   UNL     1     -33.793  25.933   3.851  0.00  0.00    +0.000 C 
ATOM     13  C   UNL     1     -33.864  26.113   5.233  0.00  0.00    +0.000 C 
ENDBRANCH   3   8
BRANCH   6  14
ATOM     14  C   UNL     1     -40.581  25.817   2.646  0.00  0.00    +0.009 C 
ATOM     15  C   UNL     1     -40.911  26.420   1.433  0.00  0.00    +0.000 C 
ATOM     16  C   UNL     1     -41.233  26.203   3.818  0.00  0.00    +0.000 C 
ATOM     17  C   UNL     1     -41.894  27.409   1.390  0.00  0.00    +0.000 C 
ATOM     18  C   UNL     1     -42.216  27.191   3.775  0.00  0.00    +0.000 C 
ATOM     19  C   UNL     1     -42.546  27.794   2.561  0.00  0.00    +0.000 C 
ENDBRANCH   6  14
BRANCH   3  22
ATOM     20  O   UNL     1     -35.576  21.065   3.812  0.00  0.00    -0.270 OA
ATOM     21  N   UNL     1     -35.969  21.605   1.598  0.00  0.00    -0.293 N 
ATOM     22  C   UNL     1     -35.941  21.872   2.958  0.00  0.00    +0.249 C 
ATOM     23  H   UNL     1     -36.277  22.307   0.979  0.00  0.00    +0.150 HD
BRANCH  21  24
ATOM     24  C   UNL     1     -35.563  20.330   1.062  0.00  0.00    +0.176 C 
BRANCH  24  26
ATOM     25  O   UNL     1     -33.277  20.872   0.497  0.00  0.00    -0.248 OA
ATOM     26  C   UNL     1     -34.053  20.139   1.102  0.00  0.00    +0.335 C 
BRANCH  26  27
ATOM     27  O   UNL     1     -33.689  19.068   1.862  0.00  0.00    -0.443 OA
ATOM     28  C   UNL     1     -32.673  18.228   1.307  0.00  0.00    +0.256 C 
ENDBRANCH  26  27
ENDBRANCH  24  26
BRANCH  24  29
ATOM     29  C   UNL     1     -36.135  20.106  -0.345  0.00  0.00    +0.057 C 
BRANCH  29  30
ATOM     30  C   UNL     1     -36.957  18.847  -0.500  0.00  0.00    -0.020 C 
ATOM     31  C   UNL     1     -36.403  17.608  -0.179  0.00  0.00    -0.004 C 
ATOM     32  C   UNL     1     -38.270  18.924  -0.964  0.00  0.00    -0.004 C 
ATOM     33  C   UNL     1     -37.160  16.446  -0.323  0.00  0.00    -0.000 C 
ATOM     34  C   UNL     1     -39.029  17.762  -1.108  0.00  0.00    -0.000 C 
ATOM     35  C   UNL     1     -38.473  16.523  -0.787  0.00  0.00    -0.000 C 
ENDBRANCH  29  30
ENDBRANCH  24  29
ENDBRANCH  21  24
ENDBRANCH   3  22
BRANCH   5  36
ATOM     36  O   UNL     1     -37.712  25.945   3.719  0.00  0.00    -0.503 OA
ATOM     37  H   UNL     1     -37.069  26.425   3.234  0.00  0.00    +0.292 HD
ENDBRANCH   5  36
TORSDOF 9
ENDMDL
MODEL 4
REMARK VINA RESULT:      -7.7      2.656      8.240
REMARK  Name = 54733074
REMARK  9 active torsions:
REMARK  status: ('A' for Active; 'I' for Inactive)
REMARK    1  A    between atoms: C_3  and  C_8
REMARK    2  A    between atoms: C_3  and  C_22
REMARK    3  A    between atoms: C_5  and  O_36
REMARK    4  A    between atoms: C_6  and  C_14
REMARK    5  A    between atoms: N_21  and  C_24
REMARK    6  A    between atoms: C_24  and  C_26
REMARK    7  A    between atoms: C_24  and  C_29
REMARK    8  A    between atoms: C_26  and  O_27
REMARK    9  A    between atoms: C_29  and  C_30
REMARK                            x       y       z     vdW  Elec       q    Type
REMARK                         _______ _______ _______ _____ _____    ______ ____
ROOT
ATOM      1  O   UNL     1     -37.184  19.283   0.444  0.00  0.00    -0.418 OA
ATOM      2  O   UNL     1     -39.001  18.444  -0.674  0.00  0.00    -0.244 OA
ATOM      3  C   UNL     1     -34.916  19.687   1.045  0.00  0.00    +0.091 C 
ATOM      4  C   UNL     1     -35.819  19.067   0.280  0.00  0.00    +0.187 C 
ATOM      5  C   UNL     1     -35.622  18.134  -0.779  0.00  0.00    +0.175 C 
ATOM      6  C   UNL     1     -36.789  17.755  -1.295  0.00  0.00    +0.113 C 
ATOM      7  C   UNL     1     -37.793  18.499  -0.505  0.00  0.00    +0.349 C 
ENDROOT
BRANCH   3   8
ATOM      8  C   UNL     1     -33.483  19.425   0.829  0.00  0.00    +0.007 C 
ATOM      9  C   UNL     1     -32.883  18.306   1.407  0.00  0.00    +0.000 C 
ATOM     10  C   UNL     1     -32.725  20.296   0.048  0.00  0.00    +0.000 C 
ATOM     11  C   UNL     1     -31.526  18.057   1.203  0.00  0.00    +0.000 C 
ATOM     12  C   UNL     1     -31.367  20.048  -0.157  0.00  0.00    +0.000 C 
ATOM     13  C   UNL     1     -30.768  18.930   0.421  0.00  0.00    +0.000 C 
ENDBRANCH   3   8
BRANCH   6  14
ATOM     14  C   UNL     1     -37.059  16.805  -2.373  0.00  0.00    +0.009 C 
ATOM     15  C   UNL     1     -37.335  15.472  -2.073  0.00  0.00    +0.000 C 
ATOM     16  C   UNL     1     -37.041  17.233  -3.701  0.00  0.00    +0.000 C 
ATOM     17  C   UNL     1     -37.593  14.564  -3.102  0.00  0.00    +0.000 C 
ATOM     18  C   UNL     1     -37.298  16.326  -4.729  0.00  0.00    +0.000 C 
ATOM     19  C   UNL     1     -37.574  14.992  -4.429  0.00  0.00    +0.000 C 
ENDBRANCH   6  14
BRANCH   3  22
ATOM     20  O   UNL     1     -35.193  20.389   3.313  0.00  0.00    -0.270 OA
ATOM     21  N   UNL     1     -36.215  21.642   1.660  0.00  0.00    -0.293 N 
ATOM     22  C   UNL     1     -35.439  20.591   2.125  0.00  0.00    +0.249 C 
ATOM     23  H   UNL     1     -36.364  21.734   0.691  0.00  0.00    +0.150 HD
BRANCH  21  24
ATOM     24  C   UNL     1     -36.810  22.604   2.554  0.00  0.00    +0.176 C 
BRANCH  24  26
ATOM     25  O   UNL     1     -39.026  23.494   2.919  0.00  0.00    -0.248 OA
ATOM     26  C   UNL     1     -38.332  22.568   2.514  0.00  0.00    +0.335 C 
BRANCH  26  27
ATOM     27  O   UNL     1     -38.805  21.397   2.002  0.00  0.00    -0.443 OA
ATOM     28  C   UNL     1     -39.838  21.521   1.019  0.00  0.00    +0.256 C 
ENDBRANCH  26  27
ENDBRANCH  24  26
BRANCH  24  29
ATOM     29  C   UNL     1     -36.260  24.015   2.302  0.00  0.00    +0.057 C 
BRANCH  29  30
ATOM     30  C   UNL     1     -35.667  24.689   3.519  0.00  0.00    -0.020 C 
ATOM     31  C   UNL     1     -36.505  25.186   4.518  0.00  0.00    -0.004 C 
ATOM     32  C   UNL     1     -34.284  24.813   3.643  0.00  0.00    -0.004 C 
ATOM     33  C   UNL     1     -35.959  25.808   5.640  0.00  0.00    -0.000 C 
ATOM     34  C   UNL     1     -33.737  25.434   4.765  0.00  0.00    -0.000 C 
ATOM     35  C   UNL     1     -34.575  25.932   5.764  0.00  0.00    -0.000 C 
ENDBRANCH  29  30
ENDBRANCH  24  29
ENDBRANCH  21  24
ENDBRANCH   3  22
BRANCH   5  36
ATOM     36  O   UNL     1     -34.387  17.691  -1.160  0.00  0.00    -0.503 OA
ATOM     37  H   UNL     1     -33.730  18.304  -1.427  0.00  0.00    +0.292 HD
ENDBRANCH   5  36
TORSDOF 9
ENDMDL
MODEL 5
REMARK VINA RESULT:      -7.5      1.556      3.224
REMARK  Name = 54733074
REMARK  9 active torsions:
REMARK  status: ('A' for Active; 'I' for Inactive)
REMARK    1  A    between atoms: C_3  and  C_8
REMARK    2  A    between atoms: C_3  and  C_22
REMARK    3  A    between atoms: C_5  and  O_36
REMARK    4  A    between atoms: C_6  and  C_14
REMARK    5  A    between atoms: N_21  and  C_24
REMARK    6  A    between atoms: C_24  and  C_26
REMARK    7  A    between atoms: C_24  and  C_29
REMARK    8  A    between atoms: C_26  and  O_27
REMARK    9  A    between atoms: C_29  and  C_30
REMARK                            x       y       z     vdW  Elec       q    Type
REMARK                         _______ _______ _______ _____ _____    ______ ____
ROOT
ATOM      1  O   UNL     1     -38.356  22.579   2.604  0.00  0.00    -0.418 OA
ATOM      2  O   UNL     1     -40.525  22.711   1.875  0.00  0.00    -0.244 OA
ATOM      3  C   UNL     1     -36.260  23.233   3.522  0.00  0.00    +0.091 C 
ATOM      4  C   UNL     1     -37.502  23.539   3.138  0.00  0.00    +0.187 C 
ATOM      5  C   UNL     1     -38.181  24.791   3.180  0.00  0.00    +0.175 C 
ATOM      6  C   UNL     1     -39.420  24.670   2.707  0.00  0.00    +0.113 C 
ATOM      7  C   UNL     1     -39.529  23.242   2.339  0.00  0.00    +0.349 C 
ENDROOT
BRANCH   3   8
ATOM      8  C   UNL     1     -35.396  24.287   4.083  0.00  0.00    +0.007 C 
ATOM      9  C   UNL     1     -35.475  24.606   5.439  0.00  0.00    +0.000 C 
ATOM     10  C   UNL     1     -34.499  24.965   3.258  0.00  0.00    +0.000 C 
ATOM     11  C   UNL     1     -34.658  25.603   5.970  0.00  0.00    +0.000 C 
ATOM     12  C   UNL     1     -33.679  25.962   3.790  0.00  0.00    +0.000 C 
ATOM     13  C   UNL     1     -33.760  26.282   5.145  0.00  0.00    +0.000 C 
ENDBRANCH   3   8
BRANCH   6  14
ATOM     14  C   UNL     1     -40.452  25.692   2.545  0.00  0.00    +0.009 C 
ATOM     15  C   UNL     1     -41.136  26.173   3.661  0.00  0.00    +0.000 C 
ATOM     16  C   UNL     1     -40.754  26.185   1.275  0.00  0.00    +0.000 C 
ATOM     17  C   UNL     1     -42.122  27.149   3.508  0.00  0.00    +0.000 C 
ATOM     18  C   UNL     1     -41.739  27.160   1.122  0.00  0.00    +0.000 C 
ATOM     19  C   UNL     1     -42.423  27.642   2.238  0.00  0.00    +0.000 C 
ENDBRANCH   6  14
BRANCH   3  22
ATOM     20  O   UNL     1     -35.399  21.122   4.237  0.00  0.00    -0.270 OA
ATOM     21  N   UNL     1     -35.876  21.391   1.990  0.00  0.00    -0.293 N 
ATOM     22  C   UNL     1     -35.805  21.818   3.308  0.00  0.00    +0.249 C 
ATOM     23  H   UNL     1     -36.215  22.012   1.304  0.00  0.00    +0.150 HD
BRANCH  21  24
ATOM     24  C   UNL     1     -35.470  20.066   1.596  0.00  0.00    +0.176 C 
BRANCH  24  26
ATOM     25  O   UNL     1     -33.393  20.850   0.642  0.00  0.00    -0.248 OA
ATOM     26  C   UNL     1     -33.982  19.985   1.281  0.00  0.00    +0.335 C 
BRANCH  26  27
ATOM     27  O   UNL     1     -33.414  18.849   1.774  0.00  0.00    -0.443 OA
ATOM     28  C   UNL     1     -32.274  18.363   1.058  0.00  0.00    +0.256 C 
ENDBRANCH  26  27
ENDBRANCH  24  26
BRANCH  24  29
ATOM     29  C   UNL     1     -36.333  19.538   0.440  0.00  0.00    +0.057 C 
BRANCH  29  30
ATOM     30  C   UNL     1     -36.982  20.610  -0.404  0.00  0.00    -0.020 C 
ATOM     31  C   UNL     1     -36.204  21.391  -1.260  0.00  0.00    -0.004 C 
ATOM     32  C   UNL     1     -38.359  20.819  -0.329  0.00  0.00    -0.004 C 
ATOM     33  C   UNL     1     -36.803  22.381  -2.039  0.00  0.00    -0.000 C 
ATOM     34  C   UNL     1     -38.959  21.808  -1.109  0.00  0.00    -0.000 C 
ATOM     35  C   UNL     1     -38.180  22.589  -1.964  0.00  0.00    -0.000 C 
ENDBRANCH  29  30
ENDBRANCH  24  29
ENDBRANCH  21  24
ENDBRANCH   3  22
BRANCH   5  36
ATOM     36  O   UNL     1     -37.593  25.942   3.623  0.00  0.00    -0.503 OA
ATOM     37  H   UNL     1     -36.900  25.902   4.253  0.00  0.00    +0.292 HD
ENDBRANCH   5  36
TORSDOF 9
ENDMDL
MODEL 6
REMARK VINA RESULT:      -7.4      3.583      7.243
REMARK  Name = 54733074
REMARK  9 active torsions:
REMARK  status: ('A' for Active; 'I' for Inactive)
REMARK    1  A    between atoms: C_3  and  C_8
REMARK    2  A    between atoms: C_3  and  C_22
REMARK    3  A    between atoms: C_5  and  O_36
REMARK    4  A    between atoms: C_6  and  C_14
REMARK    5  A    between atoms: N_21  and  C_24
REMARK    6  A    between atoms: C_24  and  C_26
REMARK    7  A    between atoms: C_24  and  C_29
REMARK    8  A    between atoms: C_26  and  O_27
REMARK    9  A    between atoms: C_29  and  C_30
REMARK                            x       y       z     vdW  Elec       q    Type
REMARK                         _______ _______ _______ _____ _____    ______ ____
ROOT
ATOM      1  O   UNL     1     -36.060  26.786   2.397  0.00  0.00    -0.418 OA
ATOM      2  O   UNL     1     -37.668  27.946   1.246  0.00  0.00    -0.244 OA
ATOM      3  C   UNL     1     -35.025  25.064   3.672  0.00  0.00    +0.091 C 
ATOM      4  C   UNL     1     -36.108  25.574   3.078  0.00  0.00    +0.187 C 
ATOM      5  C   UNL     1     -37.431  25.052   3.005  0.00  0.00    +0.175 C 
ATOM      6  C   UNL     1     -38.220  25.868   2.308  0.00  0.00    +0.113 C 
ATOM      7  C   UNL     1     -37.332  26.984   1.917  0.00  0.00    +0.349 C 
ENDROOT
BRANCH   3   8
ATOM      8  C   UNL     1     -35.127  23.775   4.379  0.00  0.00    +0.007 C 
ATOM      9  C   UNL     1     -35.121  22.581   3.659  0.00  0.00    +0.000 C 
ATOM     10  C   UNL     1     -35.231  23.750   5.770  0.00  0.00    +0.000 C 
ATOM     11  C   UNL     1     -35.218  21.361   4.327  0.00  0.00    +0.000 C 
ATOM     12  C   UNL     1     -35.327  22.530   6.440  0.00  0.00    +0.000 C 
ATOM     13  C   UNL     1     -35.321  21.336   5.719  0.00  0.00    +0.000 C 
ENDBRANCH   3   8
BRANCH   6  14
ATOM     14  C   UNL     1     -39.644  25.741   2.004  0.00  0.00    +0.009 C 
ATOM     15  C   UNL     1     -40.592  26.303   2.858  0.00  0.00    +0.000 C 
ATOM     16  C   UNL     1     -40.055  25.057   0.859  0.00  0.00    +0.000 C 
ATOM     17  C   UNL     1     -41.952  26.183   2.568  0.00  0.00    +0.000 C 
ATOM     18  C   UNL     1     -41.414  24.937   0.569  0.00  0.00    +0.000 C 
ATOM     19  C   UNL     1     -42.362  25.499   1.424  0.00  0.00    +0.000 C 
ENDBRANCH   6  14
BRANCH   3  22
ATOM     20  O   UNL     1     -32.778  25.502   2.986  0.00  0.00    -0.270 OA
ATOM     21  N   UNL     1     -33.820  27.061   4.340  0.00  0.00    -0.293 N 
ATOM     22  C   UNL     1     -33.765  25.879   3.617  0.00  0.00    +0.249 C 
ATOM     23  H   UNL     1     -34.650  27.290   4.818  0.00  0.00    +0.150 HD
BRANCH  21  24
ATOM     24  C   UNL     1     -32.699  27.964   4.410  0.00  0.00    +0.176 C 
BRANCH  24  26
ATOM     25  O   UNL     1     -32.104  27.177   6.616  0.00  0.00    -0.248 OA
ATOM     26  C   UNL     1     -32.165  28.115   5.828  0.00  0.00    +0.335 C 
BRANCH  26  27
ATOM     27  O   UNL     1     -31.791  29.397   6.103  0.00  0.00    -0.443 OA
ATOM     28  C   UNL     1     -30.416  29.582   6.453  0.00  0.00    +0.256 C 
ENDBRANCH  26  27
ENDBRANCH  24  26
BRANCH  24  29
ATOM     29  C   UNL     1     -33.033  29.320   3.772  0.00  0.00    +0.057 C 
BRANCH  29  30
ATOM     30  C   UNL     1     -32.164  29.695   2.593  0.00  0.00    -0.020 C 
ATOM     31  C   UNL     1     -31.552  28.699   1.833  0.00  0.00    -0.004 C 
ATOM     32  C   UNL     1     -31.975  31.038   2.266  0.00  0.00    -0.004 C 
ATOM     33  C   UNL     1     -30.750  29.045   0.745  0.00  0.00    -0.000 C 
ATOM     34  C   UNL     1     -31.173  31.385   1.178  0.00  0.00    -0.000 C 
ATOM     35  C   UNL     1     -30.560  30.387   0.418  0.00  0.00    -0.000 C 
ENDBRANCH  29  30
ENDBRANCH  24  29
ENDBRANCH  21  24
ENDBRANCH   3  22
BRANCH   5  36
ATOM     36  O   UNL     1     -37.806  23.885   3.609  0.00  0.00    -0.503 OA
ATOM     37  H   UNL     1     -37.171  23.214   3.767  0.00  0.00    +0.292 HD
ENDBRANCH   5  36
TORSDOF 9
ENDMDL
MODEL 7
REMARK VINA RESULT:      -7.3      5.183      8.154
REMARK  Name = 54733074
REMARK  9 active torsions:
REMARK  status: ('A' for Active; 'I' for Inactive)
REMARK    1  A    between atoms: C_3  and  C_8
REMARK    2  A    between atoms: C_3  and  C_22
REMARK    3  A    between atoms: C_5  and  O_36
REMARK    4  A    between atoms: C_6  and  C_14
REMARK    5  A    between atoms: N_21  and  C_24
REMARK    6  A    between atoms: C_24  and  C_26
REMARK    7  A    between atoms: C_24  and  C_29
REMARK    8  A    between atoms: C_26  and  O_27
REMARK    9  A    between atoms: C_29  and  C_30
REMARK                            x       y       z     vdW  Elec       q    Type
REMARK                         _______ _______ _______ _____ _____    ______ ____
ROOT
ATOM      1  O   UNL     1     -34.060  29.550   2.147  0.00  0.00    -0.418 OA
ATOM      2  O   UNL     1     -34.926  31.062   0.657  0.00  0.00    -0.244 OA
ATOM      3  C   UNL     1     -32.720  28.645   3.893  0.00  0.00    +0.091 C 
ATOM      4  C   UNL     1     -33.058  29.669   3.104  0.00  0.00    +0.187 C 
ATOM      5  C   UNL     1     -32.530  30.991   3.060  0.00  0.00    +0.175 C 
ATOM      6  C   UNL     1     -33.150  31.714   2.130  0.00  0.00    +0.113 C 
ATOM      7  C   UNL     1     -34.137  30.782   1.545  0.00  0.00    +0.349 C 
ENDROOT
BRANCH   3   8
ATOM      8  C   UNL     1     -31.652  28.824   4.893  0.00  0.00    +0.007 C 
ATOM      9  C   UNL     1     -30.332  28.518   4.567  0.00  0.00    +0.000 C 
ATOM     10  C   UNL     1     -31.963  29.299   6.167  0.00  0.00    +0.000 C 
ATOM     11  C   UNL     1     -29.321  28.687   5.513  0.00  0.00    +0.000 C 
ATOM     12  C   UNL     1     -30.953  29.469   7.114  0.00  0.00    +0.000 C 
ATOM     13  C   UNL     1     -29.632  29.162   6.788  0.00  0.00    +0.000 C 
ENDBRANCH   3   8
BRANCH   6  14
ATOM     14  C   UNL     1     -32.919  33.101   1.729  0.00  0.00    +0.009 C 
ATOM     15  C   UNL     1     -31.843  33.417   0.900  0.00  0.00    +0.000 C 
ATOM     16  C   UNL     1     -33.774  34.109   2.177  0.00  0.00    +0.000 C 
ATOM     17  C   UNL     1     -31.622  34.741   0.518  0.00  0.00    +0.000 C 
ATOM     18  C   UNL     1     -33.552  35.432   1.795  0.00  0.00    +0.000 C 
ATOM     19  C   UNL     1     -32.477  35.747   0.966  0.00  0.00    +0.000 C 
ENDBRANCH   6  14
BRANCH   3  22
ATOM     20  O   UNL     1     -32.825  26.312   3.387  0.00  0.00    -0.270 OA
ATOM     21  N   UNL     1     -34.812  27.421   3.800  0.00  0.00    -0.293 N 
ATOM     22  C   UNL     1     -33.434  27.343   3.670  0.00  0.00    +0.249 C 
ATOM     23  H   UNL     1     -35.223  28.287   4.030  0.00  0.00    +0.150 HD
BRANCH  21  24
ATOM     24  C   UNL     1     -35.662  26.273   3.609  0.00  0.00    +0.176 C 
BRANCH  24  26
ATOM     25  O   UNL     1     -36.943  27.428   1.917  0.00  0.00    -0.248 OA
ATOM     26  C   UNL     1     -36.927  26.611   2.831  0.00  0.00    +0.335 C 
BRANCH  26  27
ATOM     27  O   UNL     1     -38.010  25.918   3.284  0.00  0.00    -0.443 OA
ATOM     28  C   UNL     1     -38.730  25.175   2.295  0.00  0.00    +0.256 C 
ENDBRANCH  26  27
ENDBRANCH  24  26
BRANCH  24  29
ATOM     29  C   UNL     1     -35.974  25.581   4.943  0.00  0.00    +0.057 C 
BRANCH  29  30
ATOM     30  C   UNL     1     -35.689  24.096   4.967  0.00  0.00    -0.020 C 
ATOM     31  C   UNL     1     -35.338  23.472   6.165  0.00  0.00    -0.004 C 
ATOM     32  C   UNL     1     -35.777  23.350   3.792  0.00  0.00    -0.004 C 
ATOM     33  C   UNL     1     -35.074  22.103   6.187  0.00  0.00    -0.000 C 
ATOM     34  C   UNL     1     -35.515  21.980   3.814  0.00  0.00    -0.000 C 
ATOM     35  C   UNL     1     -35.163  21.357   5.012  0.00  0.00    -0.000 C 
ENDBRANCH  29  30
ENDBRANCH  24  29
ENDBRANCH  21  24
ENDBRANCH   3  22
BRANCH   5  36
ATOM     36  O   UNL     1     -31.504  31.410   3.860  0.00  0.00    -0.503 OA
ATOM     37  H   UNL     1     -30.798  30.827   4.062  0.00  0.00    +0.292 HD
ENDBRANCH   5  36
TORSDOF 9
ENDMDL
MODEL 8
REMARK VINA RESULT:      -7.3      1.802      8.245
REMARK  Name = 54733074
REMARK  9 active torsions:
REMARK  status: ('A' for Active; 'I' for Inactive)
REMARK    1  A    between atoms: C_3  and  C_8
REMARK    2  A    between atoms: C_3  and  C_22
REMARK    3  A    between atoms: C_5  and  O_36
REMARK    4  A    between atoms: C_6  and  C_14
REMARK    5  A    between atoms: N_21  and  C_24
REMARK    6  A    between atoms: C_24  and  C_26
REMARK    7  A    between atoms: C_24  and  C_29
REMARK    8  A    between atoms: C_26  and  O_27
REMARK    9  A    between atoms: C_29  and  C_30
REMARK                            x       y       z     vdW  Elec       q    Type
REMARK                         _______ _______ _______ _____ _____    ______ ____
ROOT
ATOM      1  O   UNL     1     -37.742  21.997   1.475  0.00  0.00    -0.418 OA
ATOM      2  O   UNL     1     -37.170  20.082   0.352  0.00  0.00    -0.244 OA
ATOM      3  C   UNL     1     -37.516  24.013   2.721  0.00  0.00    +0.091 C 
ATOM      4  C   UNL     1     -36.967  22.942   2.140  0.00  0.00    +0.187 C 
ATOM      5  C   UNL     1     -35.599  22.552   2.070  0.00  0.00    +0.175 C 
ATOM      6  C   UNL     1     -35.468  21.415   1.390  0.00  0.00    +0.113 C 
ATOM      7  C   UNL     1     -36.852  21.061   1.007  0.00  0.00    +0.349 C 
ENDROOT
BRANCH   3   8
ATOM      8  C   UNL     1     -36.652  24.985   3.412  0.00  0.00    +0.007 C 
ATOM      9  C   UNL     1     -36.105  26.057   2.707  0.00  0.00    +0.000 C 
ATOM     10  C   UNL     1     -36.380  24.833   4.771  0.00  0.00    +0.000 C 
ATOM     11  C   UNL     1     -35.286  26.978   3.360  0.00  0.00    +0.000 C 
ATOM     12  C   UNL     1     -35.562  25.755   5.426  0.00  0.00    +0.000 C 
ATOM     13  C   UNL     1     -35.015  26.826   4.721  0.00  0.00    +0.000 C 
ENDBRANCH   3   8
BRANCH   6  14
ATOM     14  C   UNL     1     -34.260  20.647   1.095  0.00  0.00    +0.009 C 
ATOM     15  C   UNL     1     -33.311  21.155   0.209  0.00  0.00    +0.000 C 
ATOM     16  C   UNL     1     -34.056  19.406   1.699  0.00  0.00    +0.000 C 
ATOM     17  C   UNL     1     -32.157  20.423  -0.074  0.00  0.00    +0.000 C 
ATOM     18  C   UNL     1     -32.903  18.674   1.417  0.00  0.00    +0.000 C 
ATOM     19  C   UNL     1     -31.954  19.182   0.531  0.00  0.00    +0.000 C 
ENDBRANCH   6  14
BRANCH   3  22
ATOM     20  O   UNL     1     -39.690  24.247   3.687  0.00  0.00    -0.270 OA
ATOM     21  N   UNL     1     -39.541  24.080   1.385  0.00  0.00    -0.293 N 
ATOM     22  C   UNL     1     -39.013  24.129   2.666  0.00  0.00    +0.249 C 
ATOM     23  H   UNL     1     -38.929  23.985   0.619  0.00  0.00    +0.150 HD
BRANCH  21  24
ATOM     24  C   UNL     1     -40.959  24.165   1.141  0.00  0.00    +0.176 C 
BRANCH  24  26
ATOM     25  O   UNL     1     -42.571  23.190  -0.372  0.00  0.00    -0.248 OA
ATOM     26  C   UNL     1     -41.398  23.298  -0.032  0.00  0.00    +0.335 C 
BRANCH  26  27
ATOM     27  O   UNL     1     -40.347  22.663  -0.623  0.00  0.00    -0.443 OA
ATOM     28  C   UNL     1     -40.448  21.238  -0.705  0.00  0.00    +0.256 C 
ENDBRANCH  26  27
ENDBRANCH  24  26
BRANCH  24  29
ATOM     29  C   UNL     1     -41.412  25.623   0.981  0.00  0.00    +0.057 C 
BRANCH  29  30
ATOM     30  C   UNL     1     -42.434  26.082   1.996  0.00  0.00    -0.020 C 
ATOM     31  C   UNL     1     -43.773  25.720   1.851  0.00  0.00    -0.004 C 
ATOM     32  C   UNL     1     -42.037  26.868   3.078  0.00  0.00    -0.004 C 
ATOM     33  C   UNL     1     -44.716  26.144   2.787  0.00  0.00    -0.000 C 
ATOM     34  C   UNL     1     -42.980  27.292   4.015  0.00  0.00    -0.000 C 
ATOM     35  C   UNL     1     -44.320  26.929   3.869  0.00  0.00    -0.000 C 
ENDBRANCH  29  30
ENDBRANCH  24  29
ENDBRANCH  21  24
ENDBRANCH   3  22
BRANCH   5  36
ATOM     36  O   UNL     1     -34.591  23.261   2.662  0.00  0.00    -0.503 OA
ATOM     37  H   UNL     1     -33.698  23.075   2.448  0.00  0.00    +0.292 HD
ENDBRANCH   5  36
TORSDOF 9
ENDMDL
MODEL 9
REMARK VINA RESULT:      -7.2      5.431      7.558
REMARK  Name = 54733074
REMARK  9 active torsions:
REMARK  status: ('A' for Active; 'I' for Inactive)
REMARK    1  A    between atoms: C_3  and  C_8
REMARK    2  A    between atoms: C_3  and  C_22
REMARK    3  A    between atoms: C_5  and  O_36
REMARK    4  A    between atoms: C_6  and  C_14
REMARK    5  A    between atoms: N_21  and  C_24
REMARK    6  A    between atoms: C_24  and  C_26
REMARK    7  A    between atoms: C_24  and  C_29
REMARK    8  A    between atoms: C_26  and  O_27
REMARK    9  A    between atoms: C_29  and  C_30
REMARK                            x       y       z     vdW  Elec       q    Type
REMARK                         _______ _______ _______ _____ _____    ______ ____
ROOT
ATOM      1  O   UNL     1     -36.661  30.125   1.402  0.00  0.00    -0.418 OA
ATOM      2  O   UNL     1     -38.464  31.322   0.646  0.00  0.00    -0.244 OA
ATOM      3  C   UNL     1     -34.511  29.647   2.302  0.00  0.00    +0.091 C 
ATOM      4  C   UNL     1     -35.424  30.531   1.890  0.00  0.00    +0.187 C 
ATOM      5  C   UNL     1     -35.356  31.953   1.857  0.00  0.00    +0.175 C 
ATOM      6  C   UNL     1     -36.489  32.467   1.380  0.00  0.00    +0.113 C 
ATOM      7  C   UNL     1     -37.328  31.284   1.089  0.00  0.00    +0.349 C 
ENDROOT
BRANCH   3   8
ATOM      8  C   UNL     1     -33.215  30.128   2.812  0.00  0.00    +0.007 C 
ATOM      9  C   UNL     1     -33.082  30.480   4.156  0.00  0.00    +0.000 C 
ATOM     10  C   UNL     1     -32.123  30.233   1.952  0.00  0.00    +0.000 C 
ATOM     11  C   UNL     1     -31.856  30.936   4.640  0.00  0.00    +0.000 C 
ATOM     12  C   UNL     1     -30.895  30.688   2.436  0.00  0.00    +0.000 C 
ATOM     13  C   UNL     1     -30.762  31.040   3.779  0.00  0.00    +0.000 C 
ENDBRANCH   3   8
BRANCH   6  14
ATOM     14  C   UNL     1     -36.847  33.866   1.153  0.00  0.00    +0.009 C 
ATOM     15  C   UNL     1     -36.168  34.612   0.190  0.00  0.00    +0.000 C 
ATOM     16  C   UNL     1     -37.867  34.454   1.901  0.00  0.00    +0.000 C 
ATOM     17  C   UNL     1     -36.509  35.947  -0.026  0.00  0.00    +0.000 C 
ATOM     18  C   UNL     1     -38.209  35.789   1.684  0.00  0.00    +0.000 C 
ATOM     19  C   UNL     1     -37.530  36.535   0.721  0.00  0.00    +0.000 C 
ENDBRANCH   6  14
BRANCH   3  22
ATOM     20  O   UNL     1     -34.364  27.486   1.291  0.00  0.00    -0.270 OA
ATOM     21  N   UNL     1     -35.776  27.739   3.105  0.00  0.00    -0.293 N 
ATOM     22  C   UNL     1     -34.858  28.191   2.170  0.00  0.00    +0.249 C 
ATOM     23  H   UNL     1     -36.123  28.369   3.778  0.00  0.00    +0.150 HD
BRANCH  21  24
ATOM     24  C   UNL     1     -36.235  26.372   3.124  0.00  0.00    +0.176 C 
BRANCH  24  26
ATOM     25  O   UNL     1     -38.644  26.206   3.058  0.00  0.00    -0.248 OA
ATOM     26  C   UNL     1     -37.585  26.206   2.440  0.00  0.00    +0.335 C 
BRANCH  26  27
ATOM     27  O   UNL     1     -37.462  26.044   1.092  0.00  0.00    -0.443 OA
ATOM     28  C   UNL     1     -38.050  27.070   0.286  0.00  0.00    +0.256 C 
ENDBRANCH  26  27
ENDBRANCH  24  26
BRANCH  24  29
ATOM     29  C   UNL     1     -36.237  25.802   4.549  0.00  0.00    +0.057 C 
BRANCH  29  30
ATOM     30  C   UNL     1     -35.884  24.335   4.644  0.00  0.00    -0.020 C 
ATOM     31  C   UNL     1     -35.984  23.520   3.517  0.00  0.00    -0.004 C 
ATOM     32  C   UNL     1     -35.459  23.798   5.858  0.00  0.00    -0.004 C 
ATOM     33  C   UNL     1     -35.659  22.166   3.604  0.00  0.00    -0.000 C 
ATOM     34  C   UNL     1     -35.134  22.443   5.946  0.00  0.00    -0.000 C 
ATOM     35  C   UNL     1     -35.234  21.628   4.818  0.00  0.00    -0.000 C 
ENDBRANCH  29  30
ENDBRANCH  24  29
ENDBRANCH  21  24
ENDBRANCH   3  22
BRANCH   5  36
ATOM     36  O   UNL     1     -34.249  32.655   2.243  0.00  0.00    -0.503 OA
ATOM     37  H   UNL     1     -34.161  33.558   2.006  0.00  0.00    +0.292 HD
ENDBRANCH   5  36
TORSDOF 9
ENDMDL
