MODEL 1
REMARK VINA RESULT:      -5.7      0.000      0.000
REMARK  Name = 54752291
REMARK  6 active torsions:
REMARK  status: ('A' for Active; 'I' for Inactive)
REMARK    1  A    between atoms: N_1  and  C_6
REMARK    2  A    between atoms: N_1  and  N_15
REMARK    3  A    between atoms: C_9  and  O_11
REMARK    4  A    between atoms: C_10  and  O_13
REMARK    5  A    between atoms: N_15  and  C_18
REMARK    6  A    between atoms: C_18  and  N_19
REMARK                            x       y       z     vdW  Elec       q    Type
REMARK                         _______ _______ _______ _____ _____    ______ ____
ROOT
ATOM      1  C   UNL     1     -34.723  27.370   2.835  0.00  0.00    +0.001 C 
ATOM      2  C   UNL     1     -35.187  26.148   3.564  0.00  0.00    +0.001 C 
ATOM      3  C   UNL     1     -33.531  27.874   3.665  0.00  0.00    +0.018 C 
ATOM      4  C   UNL     1     -34.430  25.875   4.697  0.00  0.00    +0.002 C 
ATOM      5  C   UNL     1     -33.409  26.895   4.803  0.00  0.00    +0.084 C 
ATOM      6  C   UNL     1     -36.242  25.317   3.225  0.00  0.00    +0.039 C 
ATOM      7  C   UNL     1     -34.676  24.794   5.525  0.00  0.00    +0.095 C 
ATOM      8  C   UNL     1     -36.516  24.215   4.042  0.00  0.00    +0.169 C 
ATOM      9  C   UNL     1     -35.737  23.956   5.183  0.00  0.00    +0.154 C 
ENDROOT
BRANCH   8  10
ATOM     10  O   UNL     1     -37.551  23.389   3.717  0.00  0.00    -0.469 OA
ATOM     11  C   UNL     1     -37.355  22.511   2.610  0.00  0.00    +0.253 C 
ENDBRANCH   8  10
BRANCH   9  12
ATOM     12  O   UNL     1     -36.016  22.879   5.972  0.00  0.00    -0.472 OA
ATOM     13  C   UNL     1     -35.147  21.754   5.859  0.00  0.00    +0.252 C 
ENDBRANCH   9  12
BRANCH   5  14
ATOM     14  N   UNL     1     -32.523  26.961   5.736  0.00  0.00    -0.149 NA
BRANCH  14  15
ATOM     15  N   UNL     1     -32.572  28.109   6.453  0.00  0.00    -0.227 N 
ATOM     16  H   UNL     1     -33.356  28.294   7.020  0.00  0.00    +0.174 HD
BRANCH  15  18
ATOM     17  S   UNL     1     -31.777  30.564   5.806  0.00  0.00    -0.018 S 
ATOM     18  C   UNL     1     -31.546  29.020   6.402  0.00  0.00    +0.146 C 
BRANCH  18  19
ATOM     19  N   UNL     1     -30.325  28.606   6.863  0.00  0.00    -0.339 N 
ATOM     20  H   UNL     1     -30.210  28.378   7.814  0.00  0.00    +0.144 HD
ATOM     21  H   UNL     1     -29.564  28.536   6.244  0.00  0.00    +0.144 HD
ENDBRANCH  18  19
ENDBRANCH  15  18
ENDBRANCH  14  15
ENDBRANCH   5  14
TORSDOF 6
ENDMDL
MODEL 2
REMARK VINA RESULT:      -5.5      4.906      6.965
REMARK  Name = 54752291
REMARK  6 active torsions:
REMARK  status: ('A' for Active; 'I' for Inactive)
REMARK    1  A    between atoms: N_1  and  C_6
REMARK    2  A    between atoms: N_1  and  N_15
REMARK    3  A    between atoms: C_9  and  O_11
REMARK    4  A    between atoms: C_10  and  O_13
REMARK    5  A    between atoms: N_15  and  C_18
REMARK    6  A    between atoms: C_18  and  N_19
REMARK                            x       y       z     vdW  Elec       q    Type
REMARK                         _______ _______ _______ _____ _____    ______ ____
ROOT
ATOM      1  C   UNL     1     -35.204  22.667   6.476  0.00  0.00    +0.001 C 
ATOM      2  C   UNL     1     -34.997  23.653   5.370  0.00  0.00    +0.001 C 
ATOM      3  C   UNL     1     -35.408  21.325   5.752  0.00  0.00    +0.018 C 
ATOM      4  C   UNL     1     -35.051  23.071   4.108  0.00  0.00    +0.002 C 
ATOM      5  C   UNL     1     -35.298  21.655   4.286  0.00  0.00    +0.084 C 
ATOM      6  C   UNL     1     -34.769  25.014   5.489  0.00  0.00    +0.039 C 
ATOM      7  C   UNL     1     -34.885  23.790   2.939  0.00  0.00    +0.095 C 
ATOM      8  C   UNL     1     -34.597  25.769   4.324  0.00  0.00    +0.169 C 
ATOM      9  C   UNL     1     -34.655  25.160   3.058  0.00  0.00    +0.154 C 
ENDROOT
BRANCH   8  10
ATOM     10  O   UNL     1     -34.371  27.110   4.429  0.00  0.00    -0.469 OA
ATOM     11  C   UNL     1     -33.015  27.526   4.579  0.00  0.00    +0.253 C 
ENDBRANCH   8  10
BRANCH   9  12
ATOM     12  O   UNL     1     -34.487  25.908   1.930  0.00  0.00    -0.472 OA
ATOM     13  C   UNL     1     -33.404  25.551   1.074  0.00  0.00    +0.252 C 
ENDBRANCH   9  12
BRANCH   5  14
ATOM     14  N   UNL     1     -35.410  20.799   3.331  0.00  0.00    -0.149 NA
BRANCH  14  15
ATOM     15  N   UNL     1     -36.657  20.729   2.805  0.00  0.00    -0.227 N 
ATOM     16  H   UNL     1     -37.435  20.919   3.377  0.00  0.00    +0.174 HD
BRANCH  15  18
ATOM     17  S   UNL     1     -37.167  21.560   0.330  0.00  0.00    -0.018 S 
ATOM     18  C   UNL     1     -36.852  20.397   1.488  0.00  0.00    +0.146 C 
BRANCH  18  19
ATOM     19  N   UNL     1     -36.774  19.069   1.165  0.00  0.00    -0.339 N 
ATOM     20  H   UNL     1     -35.897  18.651   1.002  0.00  0.00    +0.144 HD
ATOM     21  H   UNL     1     -37.595  18.531   1.097  0.00  0.00    +0.144 HD
ENDBRANCH  18  19
ENDBRANCH  15  18
ENDBRANCH  14  15
ENDBRANCH   5  14
TORSDOF 6
ENDMDL
MODEL 3
REMARK VINA RESULT:      -5.5      1.408      1.408
REMARK  Name = 54752291
REMARK  6 active torsions:
REMARK  status: ('A' for Active; 'I' for Inactive)
REMARK    1  A    between atoms: N_1  and  C_6
REMARK    2  A    between atoms: N_1  and  N_15
REMARK    3  A    between atoms: C_9  and  O_11
REMARK    4  A    between atoms: C_10  and  O_13
REMARK    5  A    between atoms: N_15  and  C_18
REMARK    6  A    between atoms: C_18  and  N_19
REMARK                            x       y       z     vdW  Elec       q    Type
REMARK                         _______ _______ _______ _____ _____    ______ ____
ROOT
ATOM      1  C   UNL     1     -33.314  26.154   2.216  0.00  0.00    +0.001 C 
ATOM      2  C   UNL     1     -34.120  25.187   3.025  0.00  0.00    +0.001 C 
ATOM      3  C   UNL     1     -32.753  27.139   3.255  0.00  0.00    +0.018 C 
ATOM      4  C   UNL     1     -34.103  25.474   4.385  0.00  0.00    +0.002 C 
ATOM      5  C   UNL     1     -33.284  26.652   4.578  0.00  0.00    +0.084 C 
ATOM      6  C   UNL     1     -34.838  24.096   2.562  0.00  0.00    +0.039 C 
ATOM      7  C   UNL     1     -34.777  24.714   5.324  0.00  0.00    +0.095 C 
ATOM      8  C   UNL     1     -35.530  23.308   3.487  0.00  0.00    +0.169 C 
ATOM      9  C   UNL     1     -35.499  23.615   4.858  0.00  0.00    +0.154 C 
ENDROOT
BRANCH   8  10
ATOM     10  O   UNL     1     -36.239  22.231   3.043  0.00  0.00    -0.469 OA
ATOM     11  C   UNL     1     -35.493  21.066   2.695  0.00  0.00    +0.253 C 
ENDBRANCH   8  10
BRANCH   9  12
ATOM     12  O   UNL     1     -36.179  22.839   5.750  0.00  0.00    -0.472 OA
ATOM     13  C   UNL     1     -35.425  21.859   6.460  0.00  0.00    +0.252 C 
ENDBRANCH   9  12
BRANCH   5  14
ATOM     14  N   UNL     1     -33.044  27.208   5.714  0.00  0.00    -0.149 NA
BRANCH  14  15
ATOM     15  N   UNL     1     -32.486  28.438   5.612  0.00  0.00    -0.227 N 
ATOM     16  H   UNL     1     -32.867  29.093   4.982  0.00  0.00    +0.174 HD
BRANCH  15  18
ATOM     17  S   UNL     1     -29.836  28.584   5.805  0.00  0.00    -0.018 S 
ATOM     18  C   UNL     1     -31.396  28.787   6.371  0.00  0.00    +0.146 C 
BRANCH  18  19
ATOM     19  N   UNL     1     -31.646  29.309   7.611  0.00  0.00    -0.339 N 
ATOM     20  H   UNL     1     -31.153  28.973   8.395  0.00  0.00    +0.144 HD
ATOM     21  H   UNL     1     -32.317  30.021   7.719  0.00  0.00    +0.144 HD
ENDBRANCH  18  19
ENDBRANCH  15  18
ENDBRANCH  14  15
ENDBRANCH   5  14
TORSDOF 6
ENDMDL
MODEL 4
REMARK VINA RESULT:      -5.1      2.836      4.688
REMARK  Name = 54752291
REMARK  6 active torsions:
REMARK  status: ('A' for Active; 'I' for Inactive)
REMARK    1  A    between atoms: N_1  and  C_6
REMARK    2  A    between atoms: N_1  and  N_15
REMARK    3  A    between atoms: C_9  and  O_11
REMARK    4  A    between atoms: C_10  and  O_13
REMARK    5  A    between atoms: N_15  and  C_18
REMARK    6  A    between atoms: C_18  and  N_19
REMARK                            x       y       z     vdW  Elec       q    Type
REMARK                         _______ _______ _______ _____ _____    ______ ____
ROOT
ATOM      1  C   UNL     1     -35.169  21.345   5.539  0.00  0.00    +0.001 C 
ATOM      2  C   UNL     1     -35.434  21.730   4.118  0.00  0.00    +0.001 C 
ATOM      3  C   UNL     1     -35.282  22.669   6.315  0.00  0.00    +0.018 C 
ATOM      4  C   UNL     1     -35.685  23.088   3.962  0.00  0.00    +0.002 C 
ATOM      5  C   UNL     1     -35.605  23.704   5.270  0.00  0.00    +0.084 C 
ATOM      6  C   UNL     1     -35.450  20.896   3.011  0.00  0.00    +0.039 C 
ATOM      7  C   UNL     1     -35.957  23.669   2.736  0.00  0.00    +0.095 C 
ATOM      8  C   UNL     1     -35.723  21.454   1.757  0.00  0.00    +0.169 C 
ATOM      9  C   UNL     1     -35.974  22.830   1.622  0.00  0.00    +0.154 C 
ENDROOT
BRANCH   8  10
ATOM     10  O   UNL     1     -35.743  20.644   0.660  0.00  0.00    -0.469 OA
ATOM     11  C   UNL     1     -34.970  19.447   0.727  0.00  0.00    +0.253 C 
ENDBRANCH   8  10
BRANCH   9  12
ATOM     12  O   UNL     1     -36.238  23.362   0.393  0.00  0.00    -0.472 OA
ATOM     13  C   UNL     1     -37.604  23.625   0.083  0.00  0.00    +0.252 C 
ENDBRANCH   9  12
BRANCH   5  14
ATOM     14  N   UNL     1     -35.781  24.957   5.508  0.00  0.00    -0.149 NA
BRANCH  14  15
ATOM     15  N   UNL     1     -34.646  25.693   5.426  0.00  0.00    -0.227 N 
ATOM     16  H   UNL     1     -33.900  25.503   6.040  0.00  0.00    +0.174 HD
BRANCH  15  18
ATOM     17  S   UNL     1     -33.022  27.265   4.023  0.00  0.00    -0.018 S 
ATOM     18  C   UNL     1     -34.521  26.699   4.501  0.00  0.00    +0.146 C 
BRANCH  18  19
ATOM     19  N   UNL     1     -35.679  27.218   3.988  0.00  0.00    -0.339 N 
ATOM     20  H   UNL     1     -35.660  27.722   3.141  0.00  0.00    +0.144 HD
ATOM     21  H   UNL     1     -36.530  27.087   4.463  0.00  0.00    +0.144 HD
ENDBRANCH  18  19
ENDBRANCH  15  18
ENDBRANCH  14  15
ENDBRANCH   5  14
TORSDOF 6
ENDMDL
MODEL 5
REMARK VINA RESULT:      -5.0      4.594      5.882
REMARK  Name = 54752291
REMARK  6 active torsions:
REMARK  status: ('A' for Active; 'I' for Inactive)
REMARK    1  A    between atoms: N_1  and  C_6
REMARK    2  A    between atoms: N_1  and  N_15
REMARK    3  A    between atoms: C_9  and  O_11
REMARK    4  A    between atoms: C_10  and  O_13
REMARK    5  A    between atoms: N_15  and  C_18
REMARK    6  A    between atoms: C_18  and  N_19
REMARK                            x       y       z     vdW  Elec       q    Type
REMARK                         _______ _______ _______ _____ _____    ______ ____
ROOT
ATOM      1  C   UNL     1     -35.169  21.747   5.608  0.00  0.00    +0.001 C 
ATOM      2  C   UNL     1     -35.351  21.676   4.124  0.00  0.00    +0.001 C 
ATOM      3  C   UNL     1     -35.557  23.191   5.967  0.00  0.00    +0.018 C 
ATOM      4  C   UNL     1     -35.789  22.876   3.575  0.00  0.00    +0.002 C 
ATOM      5  C   UNL     1     -35.931  23.830   4.655  0.00  0.00    +0.084 C 
ATOM      6  C   UNL     1     -35.132  20.583   3.302  0.00  0.00    +0.039 C 
ATOM      7  C   UNL     1     -36.026  23.043   2.223  0.00  0.00    +0.095 C 
ATOM      8  C   UNL     1     -35.363  20.721   1.929  0.00  0.00    +0.169 C 
ATOM      9  C   UNL     1     -35.808  21.943   1.395  0.00  0.00    +0.154 C 
ENDROOT
BRANCH   8  10
ATOM     10  O   UNL     1     -35.153  19.652   1.110  0.00  0.00    -0.469 OA
ATOM     11  C   UNL     1     -33.838  19.100   1.091  0.00  0.00    +0.253 C 
ENDBRANCH   8  10
BRANCH   9  12
ATOM     12  O   UNL     1     -36.028  22.065   0.054  0.00  0.00    -0.472 OA
ATOM     13  C   UNL     1     -35.070  22.810  -0.693  0.00  0.00    +0.252 C 
ENDBRANCH   9  12
BRANCH   5  14
ATOM     14  N   UNL     1     -36.319  25.050   4.517  0.00  0.00    -0.149 NA
BRANCH  14  15
ATOM     15  N   UNL     1     -37.661  25.184   4.391  0.00  0.00    -0.227 N 
ATOM     16  H   UNL     1     -38.250  24.861   5.111  0.00  0.00    +0.174 HD
BRANCH  15  18
ATOM     17  S   UNL     1     -39.784  25.432   2.807  0.00  0.00    -0.018 S 
ATOM     18  C   UNL     1     -38.213  25.761   3.274  0.00  0.00    +0.146 C 
BRANCH  18  19
ATOM     19  N   UNL     1     -37.419  26.619   2.562  0.00  0.00    -0.339 N 
ATOM     20  H   UNL     1     -37.040  26.336   1.698  0.00  0.00    +0.144 HD
ATOM     21  H   UNL     1     -37.227  27.517   2.914  0.00  0.00    +0.144 HD
ENDBRANCH  18  19
ENDBRANCH  15  18
ENDBRANCH  14  15
ENDBRANCH   5  14
TORSDOF 6
ENDMDL
MODEL 6
REMARK VINA RESULT:      -5.0      6.370      7.498
REMARK  Name = 54752291
REMARK  6 active torsions:
REMARK  status: ('A' for Active; 'I' for Inactive)
REMARK    1  A    between atoms: N_1  and  C_6
REMARK    2  A    between atoms: N_1  and  N_15
REMARK    3  A    between atoms: C_9  and  O_11
REMARK    4  A    between atoms: C_10  and  O_13
REMARK    5  A    between atoms: N_15  and  C_18
REMARK    6  A    between atoms: C_18  and  N_19
REMARK                            x       y       z     vdW  Elec       q    Type
REMARK                         _______ _______ _______ _____ _____    ______ ____
ROOT
ATOM      1  C   UNL     1     -36.386  21.765  -0.074  0.00  0.00    +0.001 C 
ATOM      2  C   UNL     1     -36.404  22.163   1.368  0.00  0.00    +0.001 C 
ATOM      3  C   UNL     1     -35.399  20.587  -0.128  0.00  0.00    +0.018 C 
ATOM      4  C   UNL     1     -35.566  21.381   2.156  0.00  0.00    +0.002 C 
ATOM      5  C   UNL     1     -34.933  20.406   1.293  0.00  0.00    +0.084 C 
ATOM      6  C   UNL     1     -37.139  23.184   1.950  0.00  0.00    +0.039 C 
ATOM      7  C   UNL     1     -35.423  21.568   3.519  0.00  0.00    +0.095 C 
ATOM      8  C   UNL     1     -37.016  23.397   3.327  0.00  0.00    +0.169 C 
ATOM      9  C   UNL     1     -36.164  22.594   4.105  0.00  0.00    +0.154 C 
ENDROOT
BRANCH   8  10
ATOM     10  O   UNL     1     -37.736  24.397   3.910  0.00  0.00    -0.469 OA
ATOM     11  C   UNL     1     -38.870  24.880   3.193  0.00  0.00    +0.253 C 
ENDBRANCH   8  10
BRANCH   9  12
ATOM     12  O   UNL     1     -36.053  22.813   5.447  0.00  0.00    -0.472 OA
ATOM     13  C   UNL     1     -35.301  21.861   6.196  0.00  0.00    +0.252 C 
ENDBRANCH   9  12
BRANCH   5  14
ATOM     14  N   UNL     1     -34.090  19.513   1.681  0.00  0.00    -0.149 NA
BRANCH  14  15
ATOM     15  N   UNL     1     -34.157  18.358   0.976  0.00  0.00    -0.227 N 
ATOM     16  H   UNL     1     -35.014  18.084   0.576  0.00  0.00    +0.174 HD
BRANCH  15  18
ATOM     17  S   UNL     1     -33.036  16.300  -0.282  0.00  0.00    -0.018 S 
ATOM     18  C   UNL     1     -33.050  17.564   0.812  0.00  0.00    +0.146 C 
BRANCH  18  19
ATOM     19  N   UNL     1     -31.958  17.854   1.584  0.00  0.00    -0.339 N 
ATOM     20  H   UNL     1     -32.047  18.459   2.356  0.00  0.00    +0.144 HD
ATOM     21  H   UNL     1     -31.083  17.459   1.367  0.00  0.00    +0.144 HD
ENDBRANCH  18  19
ENDBRANCH  15  18
ENDBRANCH  14  15
ENDBRANCH   5  14
TORSDOF 6
ENDMDL
MODEL 7
REMARK VINA RESULT:      -5.0      2.720      3.705
REMARK  Name = 54752291
REMARK  6 active torsions:
REMARK  status: ('A' for Active; 'I' for Inactive)
REMARK    1  A    between atoms: N_1  and  C_6
REMARK    2  A    between atoms: N_1  and  N_15
REMARK    3  A    between atoms: C_9  and  O_11
REMARK    4  A    between atoms: C_10  and  O_13
REMARK    5  A    between atoms: N_15  and  C_18
REMARK    6  A    between atoms: C_18  and  N_19
REMARK                            x       y       z     vdW  Elec       q    Type
REMARK                         _______ _______ _______ _____ _____    ______ ____
ROOT
ATOM      1  C   UNL     1     -33.121  26.684   5.325  0.00  0.00    +0.001 C 
ATOM      2  C   UNL     1     -34.318  25.837   5.026  0.00  0.00    +0.001 C 
ATOM      3  C   UNL     1     -33.248  27.870   4.353  0.00  0.00    +0.018 C 
ATOM      4  C   UNL     1     -35.119  26.365   4.020  0.00  0.00    +0.002 C 
ATOM      5  C   UNL     1     -34.511  27.603   3.578  0.00  0.00    +0.084 C 
ATOM      6  C   UNL     1     -34.673  24.642   5.631  0.00  0.00    +0.039 C 
ATOM      7  C   UNL     1     -36.278  25.753   3.579  0.00  0.00    +0.095 C 
ATOM      8  C   UNL     1     -35.841  23.998   5.207  0.00  0.00    +0.169 C 
ATOM      9  C   UNL     1     -36.637  24.551   4.189  0.00  0.00    +0.154 C 
ENDROOT
BRANCH   8  10
ATOM     10  O   UNL     1     -36.202  22.823   5.796  0.00  0.00    -0.469 OA
ATOM     11  C   UNL     1     -35.187  21.830   5.933  0.00  0.00    +0.253 C 
ENDBRANCH   8  10
BRANCH   9  12
ATOM     12  O   UNL     1     -37.772  23.913   3.784  0.00  0.00    -0.472 OA
ATOM     13  C   UNL     1     -37.661  23.051   2.654  0.00  0.00    +0.252 C 
ENDBRANCH   9  12
BRANCH   5  14
ATOM     14  N   UNL     1     -34.980  28.367   2.654  0.00  0.00    -0.149 NA
BRANCH  14  15
ATOM     15  N   UNL     1     -35.439  29.557   3.111  0.00  0.00    -0.227 N 
ATOM     16  H   UNL     1     -35.832  29.611   4.013  0.00  0.00    +0.174 HD
BRANCH  15  18
ATOM     17  S   UNL     1     -36.493  31.005   1.144  0.00  0.00    -0.018 S 
ATOM     18  C   UNL     1     -35.367  30.689   2.338  0.00  0.00    +0.146 C 
BRANCH  18  19
ATOM     19  N   UNL     1     -34.331  31.547   2.590  0.00  0.00    -0.339 N 
ATOM     20  H   UNL     1     -34.266  31.998   3.463  0.00  0.00    +0.144 HD
ATOM     21  H   UNL     1     -33.651  31.714   1.898  0.00  0.00    +0.144 HD
ENDBRANCH  18  19
ENDBRANCH  15  18
ENDBRANCH  14  15
ENDBRANCH   5  14
TORSDOF 6
ENDMDL
MODEL 8
REMARK VINA RESULT:      -5.0      4.551      6.413
REMARK  Name = 54752291
REMARK  6 active torsions:
REMARK  status: ('A' for Active; 'I' for Inactive)
REMARK    1  A    between atoms: N_1  and  C_6
REMARK    2  A    between atoms: N_1  and  N_15
REMARK    3  A    between atoms: C_9  and  O_11
REMARK    4  A    between atoms: C_10  and  O_13
REMARK    5  A    between atoms: N_15  and  C_18
REMARK    6  A    between atoms: C_18  and  N_19
REMARK                            x       y       z     vdW  Elec       q    Type
REMARK                         _______ _______ _______ _____ _____    ______ ____
ROOT
ATOM      1  C   UNL     1     -34.871  23.338   5.911  0.00  0.00    +0.001 C 
ATOM      2  C   UNL     1     -34.741  24.624   5.158  0.00  0.00    +0.001 C 
ATOM      3  C   UNL     1     -35.765  22.465   5.015  0.00  0.00    +0.018 C 
ATOM      4  C   UNL     1     -35.433  24.618   3.952  0.00  0.00    +0.002 C 
ATOM      5  C   UNL     1     -36.073  23.325   3.817  0.00  0.00    +0.084 C 
ATOM      6  C   UNL     1     -34.033  25.753   5.538  0.00  0.00    +0.039 C 
ATOM      7  C   UNL     1     -35.454  25.698   3.089  0.00  0.00    +0.095 C 
ATOM      8  C   UNL     1     -34.035  26.862   4.686  0.00  0.00    +0.169 C 
ATOM      9  C   UNL     1     -34.740  26.834   3.470  0.00  0.00    +0.154 C 
ENDROOT
BRANCH   8  10
ATOM     10  O   UNL     1     -33.340  27.979   5.048  0.00  0.00    -0.469 OA
ATOM     11  C   UNL     1     -32.226  27.792   5.918  0.00  0.00    +0.253 C 
ENDBRANCH   8  10
BRANCH   9  12
ATOM     12  O   UNL     1     -34.735  27.923   2.649  0.00  0.00    -0.472 OA
ATOM     13  C   UNL     1     -35.575  27.869   1.498  0.00  0.00    +0.252 C 
ENDBRANCH   9  12
BRANCH   5  14
ATOM     14  N   UNL     1     -36.801  22.962   2.820  0.00  0.00    -0.149 NA
BRANCH  14  15
ATOM     15  N   UNL     1     -38.132  23.091   3.042  0.00  0.00    -0.227 N 
ATOM     16  H   UNL     1     -38.643  22.323   3.386  0.00  0.00    +0.174 HD
BRANCH  15  18
ATOM     17  S   UNL     1     -38.866  24.916   1.251  0.00  0.00    -0.018 S 
ATOM     18  C   UNL     1     -38.779  24.275   2.792  0.00  0.00    +0.146 C 
BRANCH  18  19
ATOM     19  N   UNL     1     -39.352  24.907   3.863  0.00  0.00    -0.339 N 
ATOM     20  H   UNL     1     -38.815  25.100   4.666  0.00  0.00    +0.144 HD
ATOM     21  H   UNL     1     -40.300  25.168   3.831  0.00  0.00    +0.144 HD
ENDBRANCH  18  19
ENDBRANCH  15  18
ENDBRANCH  14  15
ENDBRANCH   5  14
TORSDOF 6
ENDMDL
MODEL 9
REMARK VINA RESULT:      -5.0      2.724      4.256
REMARK  Name = 54752291
REMARK  6 active torsions:
REMARK  status: ('A' for Active; 'I' for Inactive)
REMARK    1  A    between atoms: N_1  and  C_6
REMARK    2  A    between atoms: N_1  and  N_15
REMARK    3  A    between atoms: C_9  and  O_11
REMARK    4  A    between atoms: C_10  and  O_13
REMARK    5  A    between atoms: N_15  and  C_18
REMARK    6  A    between atoms: C_18  and  N_19
REMARK                            x       y       z     vdW  Elec       q    Type
REMARK                         _______ _______ _______ _____ _____    ______ ____
ROOT
ATOM      1  C   UNL     1     -35.495  22.633   4.617  0.00  0.00    +0.001 C 
ATOM      2  C   UNL     1     -36.616  23.238   3.833  0.00  0.00    +0.001 C 
ATOM      3  C   UNL     1     -34.948  23.800   5.456  0.00  0.00    +0.018 C 
ATOM      4  C   UNL     1     -36.795  24.591   4.100  0.00  0.00    +0.002 C 
ATOM      5  C   UNL     1     -35.805  24.981   5.082  0.00  0.00    +0.084 C 
ATOM      6  C   UNL     1     -37.440  22.603   2.918  0.00  0.00    +0.039 C 
ATOM      7  C   UNL     1     -37.773  25.356   3.491  0.00  0.00    +0.095 C 
ATOM      8  C   UNL     1     -38.440  23.351   2.286  0.00  0.00    +0.169 C 
ATOM      9  C   UNL     1     -38.604  24.718   2.572  0.00  0.00    +0.154 C 
ENDROOT
BRANCH   8  10
ATOM     10  O   UNL     1     -39.259  22.737   1.385  0.00  0.00    -0.469 OA
ATOM     11  C   UNL     1     -39.059  21.340   1.178  0.00  0.00    +0.253 C 
ENDBRANCH   8  10
BRANCH   9  12
ATOM     12  O   UNL     1     -39.582  25.435   1.948  0.00  0.00    -0.472 OA
ATOM     13  C   UNL     1     -40.553  26.065   2.781  0.00  0.00    +0.252 C 
ENDBRANCH   9  12
BRANCH   5  14
ATOM     14  N   UNL     1     -35.672  26.167   5.567  0.00  0.00    -0.149 NA
BRANCH  14  15
ATOM     15  N   UNL     1     -34.520  26.778   5.203  0.00  0.00    -0.227 N 
ATOM     16  H   UNL     1     -33.822  26.940   5.878  0.00  0.00    +0.174 HD
BRANCH  15  18
ATOM     17  S   UNL     1     -33.096  26.511   2.971  0.00  0.00    -0.018 S 
ATOM     18  C   UNL     1     -34.310  27.179   3.906  0.00  0.00    +0.146 C 
BRANCH  18  19
ATOM     19  N   UNL     1     -35.141  28.149   3.415  0.00  0.00    -0.339 N 
ATOM     20  H   UNL     1     -35.735  28.645   4.025  0.00  0.00    +0.144 HD
ATOM     21  H   UNL     1     -35.146  28.350   2.452  0.00  0.00    +0.144 HD
ENDBRANCH  18  19
ENDBRANCH  15  18
ENDBRANCH  14  15
ENDBRANCH   5  14
TORSDOF 6
ENDMDL
