MODEL 1
REMARK VINA RESULT:      -6.9      0.000      0.000
REMARK  Name = 5310960
REMARK  5 active torsions:
REMARK  status: ('A' for Active; 'I' for Inactive)
REMARK    1  A    between atoms: N_2  and  C_32
REMARK    2  A    between atoms: N_9  and  C_19
REMARK    3  A    between atoms: C_15  and  C_28
REMARK    4  A    between atoms: C_24  and  O_25
REMARK    5  A    between atoms: C_32  and  C_33
REMARK                            x       y       z     vdW  Elec       q    Type
REMARK                         _______ _______ _______ _____ _____    ______ ____
ROOT
ATOM      1  O   UNL     1     -33.808  27.243   2.892  0.00  0.00    -0.252 OA
ATOM      2  N   UNL     1     -35.972  21.650   2.368  0.00  0.00    -0.200 N 
ATOM      3  N   UNL     1     -37.713  25.659   2.781  0.00  0.00    -0.110 N 
ATOM      4  N   UNL     1     -35.082  22.670   2.456  0.00  0.00    -0.112 NA
ATOM      5  N   UNL     1     -35.402  25.070   2.695  0.00  0.00    -0.316 NA
ATOM      6  N   UNL     1     -39.492  24.364   2.675  0.00  0.00    -0.328 NA
ATOM      7  N   UNL     1     -38.731  26.531   2.878  0.00  0.00    -0.099 NA
ATOM      8  N   UNL     1     -36.126  27.306   2.924  0.00  0.00    -0.229 N 
ATOM      9  N   UNL     1     -34.968  29.274   3.107  0.00  0.00    -0.268 N 
ATOM     10  C   UNL     1     -37.237  23.392   2.553  0.00  0.00    +0.138 C 
ATOM     11  C   UNL     1     -38.185  24.379   2.661  0.00  0.00    +0.233 C 
ATOM     12  C   UNL     1     -35.874  23.737   2.570  0.00  0.00    +0.111 C 
ATOM     13  C   UNL     1     -37.289  22.037   2.421  0.00  0.00    +0.100 C 
ATOM     14  C   UNL     1     -36.349  25.962   2.795  0.00  0.00    +0.281 C 
ATOM     15  C   UNL     1     -39.780  25.700   2.808  0.00  0.00    +0.140 C 
ATOM     16  C   UNL     1     -34.851  27.888   2.967  0.00  0.00    +0.311 C 
ATOM     17  H   UNL     1     -36.907  27.900   2.992  0.00  0.00    +0.160 HD
ATOM     18  H   UNL     1     -35.886  29.629   3.154  0.00  0.00    +0.156 HD
ENDROOT
BRANCH   9  19
ATOM     19  C   UNL     1     -33.927  30.229   3.189  0.00  0.00    +0.052 C 
ATOM     20  C   UNL     1     -33.957  31.338   2.361  0.00  0.00    +0.018 C 
ATOM     21  C   UNL     1     -32.899  30.032   4.096  0.00  0.00    +0.018 C 
ATOM     22  C   UNL     1     -32.930  32.279   2.442  0.00  0.00    +0.038 C 
ATOM     23  C   UNL     1     -31.873  30.973   4.178  0.00  0.00    +0.038 C 
ATOM     24  C   UNL     1     -31.887  32.096   3.350  0.00  0.00    +0.139 C 
BRANCH  24  25
ATOM     25  O   UNL     1     -30.886  33.013   3.430  0.00  0.00    -0.471 OA
ATOM     26  C   UNL     1     -31.196  34.350   3.040  0.00  0.00    +0.252 C 
ENDBRANCH  24  25
ENDBRANCH   9  19
BRANCH  15  28
ATOM     27  O   UNL     1     -41.613  27.113   3.769  0.00  0.00    -0.439 OA
ATOM     28  C   UNL     1     -41.169  26.193   2.873  0.00  0.00    +0.220 C 
ATOM     29  C   UNL     1     -42.191  25.791   2.046  0.00  0.00    +0.052 C 
ATOM     30  C   UNL     1     -43.337  26.511   2.461  0.00  0.00    +0.045 C 
ATOM     31  C   UNL     1     -42.933  27.301   3.511  0.00  0.00    +0.181 C 
ENDBRANCH  15  28
BRANCH   2  32
ATOM     32  C   UNL     1     -35.490  20.297   2.228  0.00  0.00    +0.117 C 
BRANCH  32  33
ATOM     33  C   UNL     1     -34.439  20.171   1.128  0.00  0.00    +0.024 C 
ATOM     34  C   UNL     1     -33.463  19.043   1.420  0.00  0.00    +0.002 C 
ENDBRANCH  32  33
ENDBRANCH   2  32
TORSDOF 5
ENDMDL
MODEL 2
REMARK VINA RESULT:      -6.9      2.961      9.425
REMARK  Name = 5310960
REMARK  5 active torsions:
REMARK  status: ('A' for Active; 'I' for Inactive)
REMARK    1  A    between atoms: N_2  and  C_32
REMARK    2  A    between atoms: N_9  and  C_19
REMARK    3  A    between atoms: C_15  and  C_28
REMARK    4  A    between atoms: C_24  and  O_25
REMARK    5  A    between atoms: C_32  and  C_33
REMARK                            x       y       z     vdW  Elec       q    Type
REMARK                         _______ _______ _______ _____ _____    ______ ____
ROOT
ATOM      1  O   UNL     1     -34.944  26.043   4.062  0.00  0.00    -0.252 OA
ATOM      2  N   UNL     1     -29.955  28.795   6.002  0.00  0.00    -0.200 N 
ATOM      3  N   UNL     1     -33.409  29.934   3.542  0.00  0.00    -0.110 N 
ATOM      4  N   UNL     1     -30.884  27.826   5.810  0.00  0.00    -0.112 NA
ATOM      5  N   UNL     1     -32.978  27.824   4.572  0.00  0.00    -0.316 NA
ATOM      6  N   UNL     1     -32.205  31.779   3.576  0.00  0.00    -0.328 NA
ATOM      7  N   UNL     1     -34.136  30.786   2.799  0.00  0.00    -0.099 NA
ATOM      8  N   UNL     1     -34.913  28.225   3.280  0.00  0.00    -0.229 N 
ATOM      9  N   UNL     1     -36.682  26.881   2.723  0.00  0.00    -0.268 N 
ATOM     10  C   UNL     1     -31.437  29.771   4.768  0.00  0.00    +0.138 C 
ATOM     11  C   UNL     1     -32.267  30.542   3.993  0.00  0.00    +0.233 C 
ATOM     12  C   UNL     1     -31.791  28.439   5.049  0.00  0.00    +0.111 C 
ATOM     13  C   UNL     1     -30.245  29.991   5.391  0.00  0.00    +0.100 C 
ATOM     14  C   UNL     1     -33.725  28.606   3.842  0.00  0.00    +0.281 C 
ATOM     15  C   UNL     1     -33.367  31.882   2.851  0.00  0.00    +0.140 C 
ATOM     16  C   UNL     1     -35.471  26.946   3.418  0.00  0.00    +0.311 C 
ATOM     17  H   UNL     1     -35.405  28.888   2.745  0.00  0.00    +0.160 HD
ATOM     18  H   UNL     1     -36.959  27.703   2.256  0.00  0.00    +0.156 HD
ENDROOT
BRANCH   9  19
ATOM     19  C   UNL     1     -37.559  25.776   2.609  0.00  0.00    +0.052 C 
ATOM     20  C   UNL     1     -38.857  25.889   3.079  0.00  0.00    +0.018 C 
ATOM     21  C   UNL     1     -37.099  24.604   2.032  0.00  0.00    +0.018 C 
ATOM     22  C   UNL     1     -39.720  24.799   2.967  0.00  0.00    +0.038 C 
ATOM     23  C   UNL     1     -37.962  23.515   1.920  0.00  0.00    +0.038 C 
ATOM     24  C   UNL     1     -39.273  23.611   2.388  0.00  0.00    +0.139 C 
BRANCH  24  25
ATOM     25  O   UNL     1     -40.115  22.548   2.279  0.00  0.00    -0.471 OA
ATOM     26  C   UNL     1     -39.687  21.462   1.460  0.00  0.00    +0.252 C 
ENDBRANCH  24  25
ENDBRANCH   9  19
BRANCH  15  28
ATOM     27  O   UNL     1     -34.854  33.272   1.390  0.00  0.00    -0.439 OA
ATOM     28  C   UNL     1     -33.748  33.132   2.167  0.00  0.00    +0.220 C 
ATOM     29  C   UNL     1     -33.041  34.310   2.218  0.00  0.00    +0.052 C 
ATOM     30  C   UNL     1     -33.760  35.234   1.423  0.00  0.00    +0.045 C 
ATOM     31  C   UNL     1     -34.855  34.555   0.942  0.00  0.00    +0.181 C 
ENDBRANCH  15  28
BRANCH   2  32
ATOM     32  C   UNL     1     -28.786  28.511   6.799  0.00  0.00    +0.117 C 
BRANCH  32  33
ATOM     33  C   UNL     1     -28.567  29.554   7.892  0.00  0.00    +0.024 C 
ATOM     34  C   UNL     1     -27.271  30.317   7.679  0.00  0.00    +0.002 C 
ENDBRANCH  32  33
ENDBRANCH   2  32
TORSDOF 5
ENDMDL
MODEL 3
REMARK VINA RESULT:      -6.9      2.807      7.990
REMARK  Name = 5310960
REMARK  5 active torsions:
REMARK  status: ('A' for Active; 'I' for Inactive)
REMARK    1  A    between atoms: N_2  and  C_32
REMARK    2  A    between atoms: N_9  and  C_19
REMARK    3  A    between atoms: C_15  and  C_28
REMARK    4  A    between atoms: C_24  and  O_25
REMARK    5  A    between atoms: C_32  and  C_33
REMARK                            x       y       z     vdW  Elec       q    Type
REMARK                         _______ _______ _______ _____ _____    ______ ____
ROOT
ATOM      1  O   UNL     1     -40.578  24.532   2.662  0.00  0.00    -0.252 OA
ATOM      2  N   UNL     1     -35.928  20.818   1.757  0.00  0.00    -0.200 N 
ATOM      3  N   UNL     1     -36.495  24.718   3.694  0.00  0.00    -0.110 N 
ATOM      4  N   UNL     1     -37.192  21.309   1.730  0.00  0.00    -0.112 NA
ATOM      5  N   UNL     1     -38.139  23.371   2.607  0.00  0.00    -0.316 NA
ATOM      6  N   UNL     1     -34.344  24.338   3.984  0.00  0.00    -0.328 NA
ATOM      7  N   UNL     1     -36.081  25.806   4.366  0.00  0.00    -0.099 NA
ATOM      8  N   UNL     1     -38.662  25.454   3.589  0.00  0.00    -0.229 N 
ATOM      9  N   UNL     1     -40.631  26.614   3.750  0.00  0.00    -0.268 N 
ATOM     10  C   UNL     1     -35.747  22.704   2.798  0.00  0.00    +0.138 C 
ATOM     11  C   UNL     1     -35.450  23.859   3.478  0.00  0.00    +0.233 C 
ATOM     12  C   UNL     1     -37.068  22.470   2.374  0.00  0.00    +0.111 C 
ATOM     13  C   UNL     1     -35.017  21.626   2.393  0.00  0.00    +0.100 C 
ATOM     14  C   UNL     1     -37.795  24.450   3.255  0.00  0.00    +0.281 C 
ATOM     15  C   UNL     1     -34.779  25.527   4.515  0.00  0.00    +0.140 C 
ATOM     16  C   UNL     1     -40.028  25.446   3.272  0.00  0.00    +0.311 C 
ATOM     17  H   UNL     1     -38.307  26.229   4.080  0.00  0.00    +0.160 HD
ATOM     18  H   UNL     1     -40.040  27.246   4.218  0.00  0.00    +0.156 HD
ENDROOT
BRANCH   9  19
ATOM     19  C   UNL     1     -41.989  26.996   3.641  0.00  0.00    +0.052 C 
ATOM     20  C   UNL     1     -42.479  28.001   4.459  0.00  0.00    +0.018 C 
ATOM     21  C   UNL     1     -42.801  26.356   2.719  0.00  0.00    +0.018 C 
ATOM     22  C   UNL     1     -43.818  28.376   4.352  0.00  0.00    +0.038 C 
ATOM     23  C   UNL     1     -44.140  26.732   2.612  0.00  0.00    +0.038 C 
ATOM     24  C   UNL     1     -44.649  27.741   3.428  0.00  0.00    +0.139 C 
BRANCH  24  25
ATOM     25  O   UNL     1     -45.955  28.108   3.323  0.00  0.00    -0.471 OA
ATOM     26  C   UNL     1     -46.933  27.146   3.713  0.00  0.00    +0.252 C 
ENDBRANCH  24  25
ENDBRANCH   9  19
BRANCH  15  28
ATOM     27  O   UNL     1     -33.333  27.569   4.655  0.00  0.00    -0.439 OA
ATOM     28  C   UNL     1     -33.862  26.448   5.213  0.00  0.00    +0.220 C 
ATOM     29  C   UNL     1     -33.421  26.298   6.506  0.00  0.00    +0.052 C 
ATOM     30  C   UNL     1     -32.566  27.397   6.760  0.00  0.00    +0.045 C 
ATOM     31  C   UNL     1     -32.546  28.141   5.603  0.00  0.00    +0.181 C 
ENDBRANCH  15  28
BRANCH   2  32
ATOM     32  C   UNL     1     -35.648  19.541   1.146  0.00  0.00    +0.117 C 
BRANCH  32  33
ATOM     33  C   UNL     1     -34.235  19.475   0.572  0.00  0.00    +0.024 C 
ATOM     34  C   UNL     1     -33.306  18.683   1.477  0.00  0.00    +0.002 C 
ENDBRANCH  32  33
ENDBRANCH   2  32
TORSDOF 5
ENDMDL
MODEL 4
REMARK VINA RESULT:      -6.8      5.239      7.914
REMARK  Name = 5310960
REMARK  5 active torsions:
REMARK  status: ('A' for Active; 'I' for Inactive)
REMARK    1  A    between atoms: N_2  and  C_32
REMARK    2  A    between atoms: N_9  and  C_19
REMARK    3  A    between atoms: C_15  and  C_28
REMARK    4  A    between atoms: C_24  and  O_25
REMARK    5  A    between atoms: C_32  and  C_33
REMARK                            x       y       z     vdW  Elec       q    Type
REMARK                         _______ _______ _______ _____ _____    ______ ____
ROOT
ATOM      1  O   UNL     1     -41.177  27.339   3.720  0.00  0.00    -0.252 OA
ATOM      2  N   UNL     1     -36.420  23.653   3.855  0.00  0.00    -0.200 N 
ATOM      3  N   UNL     1     -40.248  23.753   1.707  0.00  0.00    -0.110 N 
ATOM      4  N   UNL     1     -37.224  24.708   4.137  0.00  0.00    -0.112 NA
ATOM      5  N   UNL     1     -39.424  25.326   3.302  0.00  0.00    -0.316 NA
ATOM      6  N   UNL     1     -39.309  21.913   0.943  0.00  0.00    -0.328 NA
ATOM      7  N   UNL     1     -41.162  23.282   0.841  0.00  0.00    -0.099 NA
ATOM      8  N   UNL     1     -41.528  25.572   2.259  0.00  0.00    -0.229 N 
ATOM      9  N   UNL     1     -43.153  27.174   2.460  0.00  0.00    -0.268 N 
ATOM     10  C   UNL     1     -38.149  23.304   2.605  0.00  0.00    +0.138 C 
ATOM     11  C   UNL     1     -39.157  22.928   1.752  0.00  0.00    +0.233 C 
ATOM     12  C   UNL     1     -38.285  24.482   3.361  0.00  0.00    +0.111 C 
ATOM     13  C   UNL     1     -36.935  22.775   2.932  0.00  0.00    +0.100 C 
ATOM     14  C   UNL     1     -40.348  24.916   2.476  0.00  0.00    +0.281 C 
ATOM     15  C   UNL     1     -40.547  22.173   0.409  0.00  0.00    +0.140 C 
ATOM     16  C   UNL     1     -41.890  26.766   2.899  0.00  0.00    +0.311 C 
ATOM     17  H   UNL     1     -42.162  25.183   1.616  0.00  0.00    +0.160 HD
ATOM     18  H   UNL     1     -43.590  26.593   1.796  0.00  0.00    +0.156 HD
ENDROOT
BRANCH   9  19
ATOM     19  C   UNL     1     -43.881  28.321   2.856  0.00  0.00    +0.052 C 
ATOM     20  C   UNL     1     -43.848  29.454   2.060  0.00  0.00    +0.018 C 
ATOM     21  C   UNL     1     -44.609  28.288   4.034  0.00  0.00    +0.018 C 
ATOM     22  C   UNL     1     -44.564  30.585   2.451  0.00  0.00    +0.038 C 
ATOM     23  C   UNL     1     -45.326  29.419   4.425  0.00  0.00    +0.038 C 
ATOM     24  C   UNL     1     -45.303  30.568   3.634  0.00  0.00    +0.139 C 
BRANCH  24  25
ATOM     25  O   UNL     1     -46.002  31.671   4.016  0.00  0.00    -0.471 OA
ATOM     26  C   UNL     1     -45.899  32.064   5.383  0.00  0.00    +0.252 C 
ENDBRANCH  24  25
ENDBRANCH   9  19
BRANCH  15  28
ATOM     27  O   UNL     1     -42.134  20.367  -0.300  0.00  0.00    -0.439 OA
ATOM     28  C   UNL     1     -41.168  21.278  -0.587  0.00  0.00    +0.220 C 
ATOM     29  C   UNL     1     -40.853  21.243  -1.925  0.00  0.00    +0.052 C 
ATOM     30  C   UNL     1     -41.680  20.247  -2.497  0.00  0.00    +0.045 C 
ATOM     31  C   UNL     1     -42.441  19.745  -1.467  0.00  0.00    +0.181 C 
ENDBRANCH  15  28
BRANCH   2  32
ATOM     32  C   UNL     1     -35.141  23.538   4.513  0.00  0.00    +0.117 C 
BRANCH  32  33
ATOM     33  C   UNL     1     -35.275  23.044   5.950  0.00  0.00    +0.024 C 
ATOM     34  C   UNL     1     -35.166  21.530   6.028  0.00  0.00    +0.002 C 
ENDBRANCH  32  33
ENDBRANCH   2  32
TORSDOF 5
ENDMDL
MODEL 5
REMARK VINA RESULT:      -6.8      3.803      6.986
REMARK  Name = 5310960
REMARK  5 active torsions:
REMARK  status: ('A' for Active; 'I' for Inactive)
REMARK    1  A    between atoms: N_2  and  C_32
REMARK    2  A    between atoms: N_9  and  C_19
REMARK    3  A    between atoms: C_15  and  C_28
REMARK    4  A    between atoms: C_24  and  O_25
REMARK    5  A    between atoms: C_32  and  C_33
REMARK                            x       y       z     vdW  Elec       q    Type
REMARK                         _______ _______ _______ _____ _____    ______ ____
ROOT
ATOM      1  O   UNL     1     -37.189  29.926   1.093  0.00  0.00    -0.252 OA
ATOM      2  N   UNL     1     -35.673  24.184   2.068  0.00  0.00    -0.200 N 
ATOM      3  N   UNL     1     -34.146  28.092   3.360  0.00  0.00    -0.110 N 
ATOM      4  N   UNL     1     -36.344  25.262   1.593  0.00  0.00    -0.112 NA
ATOM      5  N   UNL     1     -36.003  27.647   1.928  0.00  0.00    -0.316 NA
ATOM      6  N   UNL     1     -32.779  26.680   4.358  0.00  0.00    -0.328 NA
ATOM      7  N   UNL     1     -33.306  28.902   4.027  0.00  0.00    -0.099 NA
ATOM      8  N   UNL     1     -35.347  29.843   2.498  0.00  0.00    -0.229 N 
ATOM      9  N   UNL     1     -36.193  31.889   1.912  0.00  0.00    -0.268 N 
ATOM     10  C   UNL     1     -34.606  25.850   2.937  0.00  0.00    +0.138 C 
ATOM     11  C   UNL     1     -33.817  26.779   3.569  0.00  0.00    +0.233 C 
ATOM     12  C   UNL     1     -35.677  26.282   2.134  0.00  0.00    +0.111 C 
ATOM     13  C   UNL     1     -34.613  24.487   2.887  0.00  0.00    +0.100 C 
ATOM     14  C   UNL     1     -35.218  28.482   2.553  0.00  0.00    +0.281 C 
ATOM     15  C   UNL     1     -32.503  28.002   4.612  0.00  0.00    +0.140 C 
ATOM     16  C   UNL     1     -36.338  30.507   1.761  0.00  0.00    +0.311 C 
ATOM     17  H   UNL     1     -34.705  30.389   3.005  0.00  0.00    +0.160 HD
ATOM     18  H   UNL     1     -35.451  32.187   2.487  0.00  0.00    +0.156 HD
ENDROOT
BRANCH   9  19
ATOM     19  C   UNL     1     -36.985  32.912   1.339  0.00  0.00    +0.052 C 
ATOM     20  C   UNL     1     -38.236  33.180   1.870  0.00  0.00    +0.018 C 
ATOM     21  C   UNL     1     -36.492  33.623   0.257  0.00  0.00    +0.018 C 
ATOM     22  C   UNL     1     -39.016  34.188   1.303  0.00  0.00    +0.038 C 
ATOM     23  C   UNL     1     -37.272  34.632  -0.308  0.00  0.00    +0.038 C 
ATOM     24  C   UNL     1     -38.534  34.914   0.213  0.00  0.00    +0.139 C 
BRANCH  24  25
ATOM     25  O   UNL     1     -39.295  35.897  -0.339  0.00  0.00    -0.471 OA
ATOM     26  C   UNL     1     -40.697  35.859  -0.076  0.00  0.00    +0.252 C 
ENDBRANCH  24  25
ENDBRANCH   9  19
BRANCH  15  28
ATOM     27  O   UNL     1     -30.172  27.791   5.507  0.00  0.00    -0.439 OA
ATOM     28  C   UNL     1     -31.382  28.408   5.480  0.00  0.00    +0.220 C 
ATOM     29  C   UNL     1     -31.411  29.455   6.372  0.00  0.00    +0.052 C 
ATOM     30  C   UNL     1     -30.136  29.482   6.986  0.00  0.00    +0.045 C 
ATOM     31  C   UNL     1     -29.420  28.450   6.426  0.00  0.00    +0.181 C 
ENDBRANCH  15  28
BRANCH   2  32
ATOM     32  C   UNL     1     -36.106  22.857   1.698  0.00  0.00    +0.117 C 
BRANCH  32  33
ATOM     33  C   UNL     1     -35.957  21.862   2.845  0.00  0.00    +0.024 C 
ATOM     34  C   UNL     1     -35.185  20.627   2.411  0.00  0.00    +0.002 C 
ENDBRANCH  32  33
ENDBRANCH   2  32
TORSDOF 5
ENDMDL
MODEL 6
REMARK VINA RESULT:      -6.7      5.620      9.281
REMARK  Name = 5310960
REMARK  5 active torsions:
REMARK  status: ('A' for Active; 'I' for Inactive)
REMARK    1  A    between atoms: N_2  and  C_32
REMARK    2  A    between atoms: N_9  and  C_19
REMARK    3  A    between atoms: C_15  and  C_28
REMARK    4  A    between atoms: C_24  and  O_25
REMARK    5  A    between atoms: C_32  and  C_33
REMARK                            x       y       z     vdW  Elec       q    Type
REMARK                         _______ _______ _______ _____ _____    ______ ____
ROOT
ATOM      1  O   UNL     1     -34.193  20.590   1.425  0.00  0.00    -0.252 OA
ATOM      2  N   UNL     1     -32.721  16.693  -2.920  0.00  0.00    -0.200 N 
ATOM      3  N   UNL     1     -36.241  17.382  -0.387  0.00  0.00    -0.110 N 
ATOM      4  N   UNL     1     -32.620  17.721  -2.041  0.00  0.00    -0.112 NA
ATOM      5  N   UNL     1     -34.185  18.596  -0.397  0.00  0.00    -0.316 NA
ATOM      6  N   UNL     1     -36.856  15.663  -1.620  0.00  0.00    -0.328 NA
ATOM      7  N   UNL     1     -37.485  17.124   0.050  0.00  0.00    -0.099 NA
ATOM      8  N   UNL     1     -35.962  19.137   1.060  0.00  0.00    -0.229 N 
ATOM      9  N   UNL     1     -36.183  20.760   2.661  0.00  0.00    -0.268 N 
ATOM     10  C   UNL     1     -34.631  16.668  -1.909  0.00  0.00    +0.138 C 
ATOM     11  C   UNL     1     -35.887  16.505  -1.378  0.00  0.00    +0.233 C 
ATOM     12  C   UNL     1     -33.802  17.695  -1.425  0.00  0.00    +0.111 C 
ATOM     13  C   UNL     1     -33.921  16.025  -2.879  0.00  0.00    +0.100 C 
ATOM     14  C   UNL     1     -35.387  18.391   0.068  0.00  0.00    +0.281 C 
ATOM     15  C   UNL     1     -37.811  16.080  -0.724  0.00  0.00    +0.140 C 
ATOM     16  C   UNL     1     -35.330  20.213   1.698  0.00  0.00    +0.311 C 
ATOM     17  H   UNL     1     -36.875  18.905   1.343  0.00  0.00    +0.160 HD
ATOM     18  H   UNL     1     -37.065  20.332   2.752  0.00  0.00    +0.156 HD
ENDROOT
BRANCH   9  19
ATOM     19  C   UNL     1     -35.931  21.854   3.523  0.00  0.00    +0.052 C 
ATOM     20  C   UNL     1     -35.347  21.624   4.758  0.00  0.00    +0.018 C 
ATOM     21  C   UNL     1     -36.275  23.131   3.113  0.00  0.00    +0.018 C 
ATOM     22  C   UNL     1     -35.100  22.703   5.607  0.00  0.00    +0.038 C 
ATOM     23  C   UNL     1     -36.027  24.210   3.962  0.00  0.00    +0.038 C 
ATOM     24  C   UNL     1     -35.441  23.996   5.210  0.00  0.00    +0.139 C 
BRANCH  24  25
ATOM     25  O   UNL     1     -35.199  25.048   6.038  0.00  0.00    -0.471 OA
ATOM     26  C   UNL     1     -34.153  25.943   5.664  0.00  0.00    +0.252 C 
ENDBRANCH  24  25
ENDBRANCH   9  19
BRANCH  15  28
ATOM     27  O   UNL     1     -39.321  14.201  -0.040  0.00  0.00    -0.439 OA
ATOM     28  C   UNL     1     -39.123  15.414  -0.620  0.00  0.00    +0.220 C 
ATOM     29  C   UNL     1     -40.309  15.923  -1.094  0.00  0.00    +0.052 C 
ATOM     30  C   UNL     1     -41.300  14.962  -0.783  0.00  0.00    +0.045 C 
ATOM     31  C   UNL     1     -40.649  13.934  -0.143  0.00  0.00    +0.181 C 
ENDBRANCH  15  28
BRANCH   2  32
ATOM     32  C   UNL     1     -31.613  16.394  -3.795  0.00  0.00    +0.117 C 
BRANCH  32  33
ATOM     33  C   UNL     1     -30.328  16.111  -3.021  0.00  0.00    +0.024 C 
ATOM     34  C   UNL     1     -30.420  14.803  -2.252  0.00  0.00    +0.002 C 
ENDBRANCH  32  33
ENDBRANCH   2  32
TORSDOF 5
ENDMDL
MODEL 7
REMARK VINA RESULT:      -6.6      4.245      9.469
REMARK  Name = 5310960
REMARK  5 active torsions:
REMARK  status: ('A' for Active; 'I' for Inactive)
REMARK    1  A    between atoms: N_2  and  C_32
REMARK    2  A    between atoms: N_9  and  C_19
REMARK    3  A    between atoms: C_15  and  C_28
REMARK    4  A    between atoms: C_24  and  O_25
REMARK    5  A    between atoms: C_32  and  C_33
REMARK                            x       y       z     vdW  Elec       q    Type
REMARK                         _______ _______ _______ _____ _____    ______ ____
ROOT
ATOM      1  O   UNL     1     -35.652  19.931   1.875  0.00  0.00    -0.252 OA
ATOM      2  N   UNL     1     -35.342  24.983   5.134  0.00  0.00    -0.200 N 
ATOM      3  N   UNL     1     -38.261  23.204   2.378  0.00  0.00    -0.110 N 
ATOM      4  N   UNL     1     -34.994  23.784   4.604  0.00  0.00    -0.112 NA
ATOM      5  N   UNL     1     -36.149  22.314   3.046  0.00  0.00    -0.316 NA
ATOM      6  N   UNL     1     -39.235  25.089   2.969  0.00  0.00    -0.328 NA
ATOM      7  N   UNL     1     -39.419  23.174   1.697  0.00  0.00    -0.099 NA
ATOM      8  N   UNL     1     -37.573  21.185   1.540  0.00  0.00    -0.229 N 
ATOM      9  N   UNL     1     -37.356  19.187   0.441  0.00  0.00    -0.268 N 
ATOM     10  C   UNL     1     -37.027  24.494   3.871  0.00  0.00    +0.138 C 
ATOM     11  C   UNL     1     -38.171  24.347   3.127  0.00  0.00    +0.233 C 
ATOM     12  C   UNL     1     -36.040  23.494   3.829  0.00  0.00    +0.111 C 
ATOM     13  C   UNL     1     -36.565  25.454   4.722  0.00  0.00    +0.100 C 
ATOM     14  C   UNL     1     -37.256  22.232   2.361  0.00  0.00    +0.281 C 
ATOM     15  C   UNL     1     -39.968  24.332   2.088  0.00  0.00    +0.140 C 
ATOM     16  C   UNL     1     -36.745  20.072   1.334  0.00  0.00    +0.311 C 
ATOM     17  H   UNL     1     -38.434  21.214   1.064  0.00  0.00    +0.160 HD
ATOM     18  H   UNL     1     -38.239  19.457   0.098  0.00  0.00    +0.156 HD
ENDROOT
BRANCH   9  19
ATOM     19  C   UNL     1     -36.859  17.949  -0.031  0.00  0.00    +0.052 C 
ATOM     20  C   UNL     1     -37.712  16.861  -0.111  0.00  0.00    +0.018 C 
ATOM     21  C   UNL     1     -35.528  17.851  -0.401  0.00  0.00    +0.018 C 
ATOM     22  C   UNL     1     -37.221  15.641  -0.574  0.00  0.00    +0.038 C 
ATOM     23  C   UNL     1     -35.036  16.631  -0.865  0.00  0.00    +0.038 C 
ATOM     24  C   UNL     1     -35.882  15.525  -0.951  0.00  0.00    +0.139 C 
BRANCH  24  25
ATOM     25  O   UNL     1     -35.403  14.335  -1.404  0.00  0.00    -0.471 OA
ATOM     26  C   UNL     1     -34.018  14.278  -1.740  0.00  0.00    +0.252 C 
ENDBRANCH  24  25
ENDBRANCH   9  19
BRANCH  15  28
ATOM     27  O   UNL     1     -42.076  24.043   0.764  0.00  0.00    -0.439 OA
ATOM     28  C   UNL     1     -41.289  24.771   1.599  0.00  0.00    +0.220 C 
ATOM     29  C   UNL     1     -41.895  25.964   1.915  0.00  0.00    +0.052 C 
ATOM     30  C   UNL     1     -43.134  25.969   1.232  0.00  0.00    +0.045 C 
ATOM     31  C   UNL     1     -43.197  24.778   0.546  0.00  0.00    +0.181 C 
ENDBRANCH  15  28
BRANCH   2  32
ATOM     32  C   UNL     1     -34.445  25.641   6.052  0.00  0.00    +0.117 C 
BRANCH  32  33
ATOM     33  C   UNL     1     -33.557  26.668   5.353  0.00  0.00    +0.024 C 
ATOM     34  C   UNL     1     -32.619  27.350   6.335  0.00  0.00    +0.002 C 
ENDBRANCH  32  33
ENDBRANCH   2  32
TORSDOF 5
ENDMDL
MODEL 8
REMARK VINA RESULT:      -6.6      5.127     11.033
REMARK  Name = 5310960
REMARK  5 active torsions:
REMARK  status: ('A' for Active; 'I' for Inactive)
REMARK    1  A    between atoms: N_2  and  C_32
REMARK    2  A    between atoms: N_9  and  C_19
REMARK    3  A    between atoms: C_15  and  C_28
REMARK    4  A    between atoms: C_24  and  O_25
REMARK    5  A    between atoms: C_32  and  C_33
REMARK                            x       y       z     vdW  Elec       q    Type
REMARK                         _______ _______ _______ _____ _____    ______ ____
ROOT
ATOM      1  O   UNL     1     -40.785  22.426   0.818  0.00  0.00    -0.252 OA
ATOM      2  N   UNL     1     -36.390  24.261   4.500  0.00  0.00    -0.200 N 
ATOM      3  N   UNL     1     -36.880  21.028   1.569  0.00  0.00    -0.110 N 
ATOM      4  N   UNL     1     -37.591  24.215   3.871  0.00  0.00    -0.112 NA
ATOM      5  N   UNL     1     -38.468  22.701   2.180  0.00  0.00    -0.316 NA
ATOM      6  N   UNL     1     -34.829  20.709   2.309  0.00  0.00    -0.328 NA
ATOM      7  N   UNL     1     -36.469  19.953   0.875  0.00  0.00    -0.099 NA
ATOM      8  N   UNL     1     -38.941  21.042   0.569  0.00  0.00    -0.229 N 
ATOM      9  N   UNL     1     -40.809  20.625  -0.689  0.00  0.00    -0.268 N 
ATOM     10  C   UNL     1     -36.192  22.560   3.181  0.00  0.00    +0.138 C 
ATOM     11  C   UNL     1     -35.893  21.462   2.414  0.00  0.00    +0.233 C 
ATOM     12  C   UNL     1     -37.456  23.164   3.062  0.00  0.00    +0.111 C 
ATOM     13  C   UNL     1     -35.509  23.280   4.116  0.00  0.00    +0.100 C 
ATOM     14  C   UNL     1     -38.125  21.655   1.480  0.00  0.00    +0.281 C 
ATOM     15  C   UNL     1     -35.229  19.802   1.358  0.00  0.00    +0.140 C 
ATOM     16  C   UNL     1     -40.248  21.462   0.279  0.00  0.00    +0.311 C 
ATOM     17  H   UNL     1     -38.592  20.258   0.089  0.00  0.00    +0.160 HD
ATOM     18  H   UNL     1     -40.236  19.893  -1.015  0.00  0.00    +0.156 HD
ENDROOT
BRANCH   9  19
ATOM     19  C   UNL     1     -42.103  20.702  -1.258  0.00  0.00    +0.052 C 
ATOM     20  C   UNL     1     -43.108  19.885  -0.769  0.00  0.00    +0.018 C 
ATOM     21  C   UNL     1     -42.336  21.593  -2.292  0.00  0.00    +0.018 C 
ATOM     22  C   UNL     1     -44.383  19.960  -1.330  0.00  0.00    +0.038 C 
ATOM     23  C   UNL     1     -43.610  21.669  -2.853  0.00  0.00    +0.038 C 
ATOM     24  C   UNL     1     -44.634  20.852  -2.373  0.00  0.00    +0.139 C 
BRANCH  24  25
ATOM     25  O   UNL     1     -45.877  20.927  -2.921  0.00  0.00    -0.471 OA
ATOM     26  C   UNL     1     -46.903  21.520  -2.126  0.00  0.00    +0.252 C 
ENDBRANCH  24  25
ENDBRANCH   9  19
BRANCH  15  28
ATOM     27  O   UNL     1     -34.725  17.717   0.062  0.00  0.00    -0.439 OA
ATOM     28  C   UNL     1     -34.340  18.720   0.894  0.00  0.00    +0.220 C 
ATOM     29  C   UNL     1     -33.016  18.580   1.238  0.00  0.00    +0.052 C 
ATOM     30  C   UNL     1     -32.559  17.417   0.575  0.00  0.00    +0.045 C 
ATOM     31  C   UNL     1     -33.636  16.928  -0.127  0.00  0.00    +0.181 C 
ENDBRANCH  15  28
BRANCH   2  32
ATOM     32  C   UNL     1     -36.139  25.291   5.478  0.00  0.00    +0.117 C 
BRANCH  32  33
ATOM     33  C   UNL     1     -35.012  26.228   5.051  0.00  0.00    +0.024 C 
ATOM     34  C   UNL     1     -33.884  26.238   6.068  0.00  0.00    +0.002 C 
ENDBRANCH  32  33
ENDBRANCH   2  32
TORSDOF 5
ENDMDL
MODEL 9
REMARK VINA RESULT:      -6.6      3.346     10.786
REMARK  Name = 5310960
REMARK  5 active torsions:
REMARK  status: ('A' for Active; 'I' for Inactive)
REMARK    1  A    between atoms: N_2  and  C_32
REMARK    2  A    between atoms: N_9  and  C_19
REMARK    3  A    between atoms: C_15  and  C_28
REMARK    4  A    between atoms: C_24  and  O_25
REMARK    5  A    between atoms: C_32  and  C_33
REMARK                            x       y       z     vdW  Elec       q    Type
REMARK                         _______ _______ _______ _____ _____    ______ ____
ROOT
ATOM      1  O   UNL     1     -35.452  27.954   2.716  0.00  0.00    -0.252 OA
ATOM      2  N   UNL     1     -32.332  33.101   2.727  0.00  0.00    -0.200 N 
ATOM      3  N   UNL     1     -31.779  29.096   4.439  0.00  0.00    -0.110 N 
ATOM      4  N   UNL     1     -33.320  32.209   2.465  0.00  0.00    -0.112 NA
ATOM      5  N   UNL     1     -33.601  29.881   3.112  0.00  0.00    -0.316 NA
ATOM      6  N   UNL     1     -29.973  30.167   5.110  0.00  0.00    -0.328 NA
ATOM      7  N   UNL     1     -31.117  28.164   5.145  0.00  0.00    -0.099 NA
ATOM      8  N   UNL     1     -33.503  27.672   3.939  0.00  0.00    -0.229 N 
ATOM      9  N   UNL     1     -34.938  25.899   3.731  0.00  0.00    -0.268 N 
ATOM     10  C   UNL     1     -31.661  31.312   3.737  0.00  0.00    +0.138 C 
ATOM     11  C   UNL     1     -31.084  30.277   4.429  0.00  0.00    +0.233 C 
ATOM     12  C   UNL     1     -32.895  31.112   3.092  0.00  0.00    +0.111 C 
ATOM     13  C   UNL     1     -31.305  32.605   3.493  0.00  0.00    +0.100 C 
ATOM     14  C   UNL     1     -33.004  28.937   3.787  0.00  0.00    +0.281 C 
ATOM     15  C   UNL     1     -30.037  28.860   5.527  0.00  0.00    +0.140 C 
ATOM     16  C   UNL     1     -34.717  27.236   3.390  0.00  0.00    +0.311 C 
ATOM     17  H   UNL     1     -32.978  27.028   4.467  0.00  0.00    +0.160 HD
ATOM     18  H   UNL     1     -34.243  25.472   4.283  0.00  0.00    +0.156 HD
ENDROOT
BRANCH   9  19
ATOM     19  C   UNL     1     -36.040  25.084   3.379  0.00  0.00    +0.052 C 
ATOM     20  C   UNL     1     -35.815  23.879   2.734  0.00  0.00    +0.018 C 
ATOM     21  C   UNL     1     -37.322  25.510   3.686  0.00  0.00    +0.018 C 
ATOM     22  C   UNL     1     -36.902  23.078   2.387  0.00  0.00    +0.038 C 
ATOM     23  C   UNL     1     -38.409  24.708   3.339  0.00  0.00    +0.038 C 
ATOM     24  C   UNL     1     -38.200  23.492   2.688  0.00  0.00    +0.139 C 
BRANCH  24  25
ATOM     25  O   UNL     1     -39.260  22.710   2.350  0.00  0.00    -0.471 OA
ATOM     26  C   UNL     1     -38.986  21.542   1.578  0.00  0.00    +0.252 C 
ENDBRANCH  24  25
ENDBRANCH   9  19
BRANCH  15  28
ATOM     27  O   UNL     1     -28.557  26.966   6.238  0.00  0.00    -0.439 OA
ATOM     28  C   UNL     1     -28.974  28.255   6.352  0.00  0.00    +0.220 C 
ATOM     29  C   UNL     1     -28.270  28.905   7.338  0.00  0.00    +0.052 C 
ATOM     30  C   UNL     1     -27.362  27.955   7.864  0.00  0.00    +0.045 C 
ATOM     31  C   UNL     1     -27.576  26.792   7.161  0.00  0.00    +0.181 C 
ENDBRANCH  15  28
BRANCH   2  32
ATOM     32  C   UNL     1     -32.429  34.443   2.203  0.00  0.00    +0.117 C 
BRANCH  32  33
ATOM     33  C   UNL     1     -33.871  34.840   1.899  0.00  0.00    +0.024 C 
ATOM     34  C   UNL     1     -33.934  36.135   1.107  0.00  0.00    +0.002 C 
ENDBRANCH  32  33
ENDBRANCH   2  32
TORSDOF 5
ENDMDL
