MODEL 1
REMARK VINA RESULT:      -6.6      0.000      0.000
REMARK  Name = 195527
REMARK  8 active torsions:
REMARK  status: ('A' for Active; 'I' for Inactive)
REMARK    1  A    between atoms: C_3  and  O_15
REMARK    2  A    between atoms: C_4  and  O_17
REMARK    3  A    between atoms: C_6  and  O_21
REMARK    4  A    between atoms: C_10  and  C_20
REMARK    5  A    between atoms: O_21  and  C_23
REMARK    6  A    between atoms: C_23  and  C_25
REMARK    7  A    between atoms: C_27  and  O_32
REMARK    8  A    between atoms: C_31  and  O_34
REMARK                            x       y       z     vdW  Elec       q    Type
REMARK                         _______ _______ _______ _____ _____    ______ ____
ROOT
ATOM      1  C   UNL     1     -35.739  20.965   0.848  0.00  0.00    +0.036 C 
ATOM      2  C   UNL     1     -35.803  20.268  -0.507  0.00  0.00    +0.031 C 
ATOM      3  C   UNL     1     -37.100  21.286   1.526  0.00  0.00    +0.146 C 
ATOM      4  C   UNL     1     -36.927  20.795  -1.413  0.00  0.00    +0.107 C 
ATOM      5  C   UNL     1     -35.392  22.473   0.936  0.00  0.00    +0.049 C 
ATOM      6  C   UNL     1     -36.454  22.596   2.045  0.00  0.00    +0.197 C 
ATOM      7  C   UNL     1     -36.128  18.775  -0.304  0.00  0.00    +0.003 C 
ATOM      8  C   UNL     1     -36.959  18.328  -1.523  0.00  0.00    +0.003 C 
ATOM      9  C   UNL     1     -37.169  19.606  -2.357  0.00  0.00    +0.031 C 
ATOM     10  C   UNL     1     -38.267  21.462   0.623  0.00  0.00    +0.045 C 
ATOM     11  C   UNL     1     -34.832  20.241   1.895  0.00  0.00    +0.003 C 
ATOM     12  C   UNL     1     -38.180  21.235  -0.695  0.00  0.00    +0.001 C 
ATOM     13  C   UNL     1     -36.204  17.273  -2.344  0.00  0.00    +0.000 C 
ATOM     14  C   UNL     1     -38.302  17.730  -1.075  0.00  0.00    +0.000 C 
ENDROOT
BRANCH   3  15
ATOM     15  O   UNL     1     -37.443  20.389   2.613  0.00  0.00    -0.379 OA
ATOM     16  H   UNL     1     -37.151  19.490   2.394  0.00  0.00    +0.211 HD
ENDBRANCH   3  15
BRANCH   4  17
ATOM     17  O   UNL     1     -36.454  21.876  -2.217  0.00  0.00    -0.383 OA
ATOM     18  H   UNL     1     -36.945  21.897  -3.052  0.00  0.00    +0.211 HD
ENDBRANCH   4  17
BRANCH  10  20
ATOM     19  O   UNL     1     -40.063  21.379   2.153  0.00  0.00    -0.283 OA
ATOM     20  C   UNL     1     -39.562  21.888   1.159  0.00  0.00    +0.232 C 
ENDBRANCH  10  20
BRANCH   6  21
ATOM     21  O   UNL     1     -37.275  23.795   2.002  0.00  0.00    -0.446 OA
BRANCH  21  23
ATOM     22  O   UNL     1     -38.634  24.366   3.769  0.00  0.00    -0.245 OA
ATOM     23  C   UNL     1     -37.550  24.355   3.209  0.00  0.00    +0.344 C 
BRANCH  23  25
ATOM     24 CL   UNL     1     -34.016  28.160   3.104  0.00  0.00    -0.079 Cl
ATOM     25  C   UNL     1     -36.328  24.973   3.783  0.00  0.00    +0.106 C 
ATOM     26  C   UNL     1     -35.825  26.133   3.226  0.00  0.00    +0.001 C 
ATOM     27  C   UNL     1     -35.723  24.363   4.866  0.00  0.00    +0.143 C 
ATOM     28  C   UNL     1     -34.676  26.705   3.773  0.00  0.00    +0.088 C 
ATOM     29  C   UNL     1     -34.574  24.935   5.413  0.00  0.00    +0.075 C 
ATOM     30  C   UNL     1     -36.508  26.766   2.052  0.00  0.00    +0.032 C 
ATOM     31  C   UNL     1     -34.051  26.106   4.865  0.00  0.00    +0.152 C 
BRANCH  27  32
ATOM     32  O   UNL     1     -36.217  23.217   5.417  0.00  0.00    -0.505 OA
ATOM     33  H   UNL     1     -35.902  22.384   5.126  0.00  0.00    +0.292 HD
ENDBRANCH  27  32
BRANCH  31  34
ATOM     34  O   UNL     1     -32.927  26.640   5.423  0.00  0.00    -0.470 OA
ATOM     35  C   UNL     1     -32.975  26.937   6.817  0.00  0.00    +0.253 C 
ENDBRANCH  31  34
ENDBRANCH  23  25
ENDBRANCH  21  23
ENDBRANCH   6  21
TORSDOF 8
ENDMDL
MODEL 2
REMARK VINA RESULT:      -6.5      1.777      2.855
REMARK  Name = 195527
REMARK  8 active torsions:
REMARK  status: ('A' for Active; 'I' for Inactive)
REMARK    1  A    between atoms: C_3  and  O_15
REMARK    2  A    between atoms: C_4  and  O_17
REMARK    3  A    between atoms: C_6  and  O_21
REMARK    4  A    between atoms: C_10  and  C_20
REMARK    5  A    between atoms: O_21  and  C_23
REMARK    6  A    between atoms: C_23  and  C_25
REMARK    7  A    between atoms: C_27  and  O_32
REMARK    8  A    between atoms: C_31  and  O_34
REMARK                            x       y       z     vdW  Elec       q    Type
REMARK                         _______ _______ _______ _____ _____    ______ ____
ROOT
ATOM      1  C   UNL     1     -35.923  22.042   0.140  0.00  0.00    +0.036 C 
ATOM      2  C   UNL     1     -35.506  20.654  -0.335  0.00  0.00    +0.031 C 
ATOM      3  C   UNL     1     -35.460  22.453   1.565  0.00  0.00    +0.146 C 
ATOM      4  C   UNL     1     -35.590  19.582   0.763  0.00  0.00    +0.107 C 
ATOM      5  C   UNL     1     -37.383  22.310   0.587  0.00  0.00    +0.049 C 
ATOM      6  C   UNL     1     -36.817  23.189   1.719  0.00  0.00    +0.197 C 
ATOM      7  C   UNL     1     -34.023  20.676  -0.753  0.00  0.00    +0.003 C 
ATOM      8  C   UNL     1     -33.445  19.284  -0.426  0.00  0.00    +0.003 C 
ATOM      9  C   UNL     1     -34.596  18.523   0.260  0.00  0.00    +0.031 C 
ATOM     10  C   UNL     1     -35.218  21.350   2.529  0.00  0.00    +0.045 C 
ATOM     11  C   UNL     1     -35.545  23.195  -0.847  0.00  0.00    +0.003 C 
ATOM     12  C   UNL     1     -35.274  20.063   2.158  0.00  0.00    +0.001 C 
ATOM     13  C   UNL     1     -33.011  18.557  -1.706  0.00  0.00    +0.000 C 
ATOM     14  C   UNL     1     -32.229  19.407   0.504  0.00  0.00    +0.000 C 
ENDROOT
BRANCH   3  15
ATOM     15  O   UNL     1     -34.344  23.379   1.578  0.00  0.00    -0.379 OA
ATOM     16  H   UNL     1     -34.209  23.735   0.686  0.00  0.00    +0.211 HD
ENDBRANCH   3  15
BRANCH   4  17
ATOM     17  O   UNL     1     -36.882  18.973   0.767  0.00  0.00    -0.383 OA
ATOM     18  H   UNL     1     -37.564  19.662   0.764  0.00  0.00    +0.211 HD
ENDBRANCH   4  17
BRANCH  10  20
ATOM     19  O   UNL     1     -35.238  20.910   4.848  0.00  0.00    -0.283 OA
ATOM     20  C   UNL     1     -34.900  21.643   3.929  0.00  0.00    +0.232 C 
ENDBRANCH  10  20
BRANCH   6  21
ATOM     21  O   UNL     1     -37.486  23.070   3.004  0.00  0.00    -0.446 OA
BRANCH  21  23
ATOM     22  O   UNL     1     -39.017  24.629   3.728  0.00  0.00    -0.245 OA
ATOM     23  C   UNL     1     -37.869  24.244   3.570  0.00  0.00    +0.344 C 
BRANCH  23  25
ATOM     24 CL   UNL     1     -34.730  28.312   2.814  0.00  0.00    -0.079 Cl
ATOM     25  C   UNL     1     -36.680  25.028   3.988  0.00  0.00    +0.106 C 
ATOM     26  C   UNL     1     -36.326  26.159   3.278  0.00  0.00    +0.001 C 
ATOM     27  C   UNL     1     -35.955  24.600   5.085  0.00  0.00    +0.143 C 
ATOM     28  C   UNL     1     -35.206  26.889   3.678  0.00  0.00    +0.088 C 
ATOM     29  C   UNL     1     -34.836  25.330   5.485  0.00  0.00    +0.075 C 
ATOM     30  C   UNL     1     -37.135  26.593   2.094  0.00  0.00    +0.032 C 
ATOM     31  C   UNL     1     -34.462  26.475   4.781  0.00  0.00    +0.152 C 
BRANCH  27  32
ATOM     32  O   UNL     1     -36.303  23.484   5.787  0.00  0.00    -0.505 OA
ATOM     33  H   UNL     1     -35.854  23.273   6.582  0.00  0.00    +0.292 HD
ENDBRANCH  27  32
BRANCH  31  34
ATOM     34  O   UNL     1     -33.362  27.165   5.199  0.00  0.00    -0.470 OA
ATOM     35  C   UNL     1     -32.968  26.993   6.559  0.00  0.00    +0.253 C 
ENDBRANCH  31  34
ENDBRANCH  23  25
ENDBRANCH  21  23
ENDBRANCH   6  21
TORSDOF 8
ENDMDL
MODEL 3
REMARK VINA RESULT:      -6.4      3.776      6.850
REMARK  Name = 195527
REMARK  8 active torsions:
REMARK  status: ('A' for Active; 'I' for Inactive)
REMARK    1  A    between atoms: C_3  and  O_15
REMARK    2  A    between atoms: C_4  and  O_17
REMARK    3  A    between atoms: C_6  and  O_21
REMARK    4  A    between atoms: C_10  and  C_20
REMARK    5  A    between atoms: O_21  and  C_23
REMARK    6  A    between atoms: C_23  and  C_25
REMARK    7  A    between atoms: C_27  and  O_32
REMARK    8  A    between atoms: C_31  and  O_34
REMARK                            x       y       z     vdW  Elec       q    Type
REMARK                         _______ _______ _______ _____ _____    ______ ____
ROOT
ATOM      1  C   UNL     1     -34.690  26.112   2.066  0.00  0.00    +0.036 C 
ATOM      2  C   UNL     1     -35.942  25.262   2.259  0.00  0.00    +0.031 C 
ATOM      3  C   UNL     1     -33.817  26.354   3.329  0.00  0.00    +0.146 C 
ATOM      4  C   UNL     1     -36.681  25.553   3.575  0.00  0.00    +0.107 C 
ATOM      5  C   UNL     1     -34.806  27.650   1.909  0.00  0.00    +0.049 C 
ATOM      6  C   UNL     1     -33.544  27.779   2.782  0.00  0.00    +0.197 C 
ATOM      7  C   UNL     1     -35.546  23.775   2.349  0.00  0.00    +0.003 C 
ATOM      8  C   UNL     1     -36.554  23.101   3.303  0.00  0.00    +0.003 C 
ATOM      9  C   UNL     1     -37.453  24.245   3.810  0.00  0.00    +0.031 C 
ATOM     10  C   UNL     1     -34.513  26.293   4.639  0.00  0.00    +0.045 C 
ATOM     11  C   UNL     1     -33.756  25.619   0.914  0.00  0.00    +0.003 C 
ATOM     12  C   UNL     1     -35.799  25.929   4.740  0.00  0.00    +0.001 C 
ATOM     13  C   UNL     1     -37.392  22.051   2.561  0.00  0.00    +0.000 C 
ATOM     14  C   UNL     1     -35.823  22.412   4.465  0.00  0.00    +0.000 C 
ENDROOT
BRANCH   3  15
ATOM     15  O   UNL     1     -32.608  25.554   3.370  0.00  0.00    -0.379 OA
ATOM     16  H   UNL     1     -32.772  24.746   3.881  0.00  0.00    +0.211 HD
ENDBRANCH   3  15
BRANCH   4  17
ATOM     17  O   UNL     1     -37.653  26.582   3.383  0.00  0.00    -0.383 OA
ATOM     18  H   UNL     1     -38.351  26.260   2.792  0.00  0.00    +0.211 HD
ENDBRANCH   4  17
BRANCH  10  20
ATOM     19  O   UNL     1     -32.579  26.646   5.945  0.00  0.00    -0.283 OA
ATOM     20  C   UNL     1     -33.800  26.630   5.874  0.00  0.00    +0.232 C 
ENDBRANCH  10  20
BRANCH   6  21
ATOM     21  O   UNL     1     -33.554  28.865   3.748  0.00  0.00    -0.446 OA
BRANCH  21  23
ATOM     22  O   UNL     1     -32.518  30.716   2.855  0.00  0.00    -0.245 OA
ATOM     23  C   UNL     1     -32.545  29.766   3.620  0.00  0.00    +0.344 C 
BRANCH  23  25
ATOM     24 CL   UNL     1     -27.972  27.458   4.480  0.00  0.00    -0.079 Cl
ATOM     25  C   UNL     1     -31.440  29.440   4.557  0.00  0.00    +0.106 C 
ATOM     26  C   UNL     1     -30.366  28.693   4.111  0.00  0.00    +0.001 C 
ATOM     27  C   UNL     1     -31.518  29.898   5.859  0.00  0.00    +0.143 C 
ATOM     28  C   UNL     1     -29.334  28.392   5.000  0.00  0.00    +0.088 C 
ATOM     29  C   UNL     1     -30.486  29.598   6.747  0.00  0.00    +0.075 C 
ATOM     30  C   UNL     1     -30.316  28.214   2.693  0.00  0.00    +0.032 C 
ATOM     31  C   UNL     1     -29.393  28.845   6.317  0.00  0.00    +0.152 C 
BRANCH  27  32
ATOM     32  O   UNL     1     -32.577  30.636   6.301  0.00  0.00    -0.505 OA
ATOM     33  H   UNL     1     -33.377  30.645   5.814  0.00  0.00    +0.292 HD
ENDBRANCH  27  32
BRANCH  31  34
ATOM     34  O   UNL     1     -28.401  28.568   7.211  0.00  0.00    -0.470 OA
ATOM     35  C   UNL     1     -28.117  29.565   8.191  0.00  0.00    +0.253 C 
ENDBRANCH  31  34
ENDBRANCH  23  25
ENDBRANCH  21  23
ENDBRANCH   6  21
TORSDOF 8
ENDMDL
MODEL 4
REMARK VINA RESULT:      -6.4     11.628     13.357
REMARK  Name = 195527
REMARK  8 active torsions:
REMARK  status: ('A' for Active; 'I' for Inactive)
REMARK    1  A    between atoms: C_3  and  O_15
REMARK    2  A    between atoms: C_4  and  O_17
REMARK    3  A    between atoms: C_6  and  O_21
REMARK    4  A    between atoms: C_10  and  C_20
REMARK    5  A    between atoms: O_21  and  C_23
REMARK    6  A    between atoms: C_23  and  C_25
REMARK    7  A    between atoms: C_27  and  O_32
REMARK    8  A    between atoms: C_31  and  O_34
REMARK                            x       y       z     vdW  Elec       q    Type
REMARK                         _______ _______ _______ _____ _____    ______ ____
ROOT
ATOM      1  C   UNL     1     -45.259  32.704   5.235  0.00  0.00    +0.036 C 
ATOM      2  C   UNL     1     -45.278  31.616   6.304  0.00  0.00    +0.031 C 
ATOM      3  C   UNL     1     -45.233  32.222   3.757  0.00  0.00    +0.146 C 
ATOM      4  C   UNL     1     -44.370  30.421   5.974  0.00  0.00    +0.107 C 
ATOM      5  C   UNL     1     -43.959  33.498   4.950  0.00  0.00    +0.049 C 
ATOM      6  C   UNL     1     -44.311  33.430   3.452  0.00  0.00    +0.197 C 
ATOM      7  C   UNL     1     -46.695  31.018   6.406  0.00  0.00    +0.003 C 
ATOM      8  C   UNL     1     -46.527  29.533   6.784  0.00  0.00    +0.003 C 
ATOM      9  C   UNL     1     -45.006  29.291   6.800  0.00  0.00    +0.031 C 
ATOM     10  C   UNL     1     -44.640  30.884   3.506  0.00  0.00    +0.045 C 
ATOM     11  C   UNL     1     -46.400  33.762   5.382  0.00  0.00    +0.003 C 
ATOM     12  C   UNL     1     -44.258  30.081   4.509  0.00  0.00    +0.001 C 
ATOM     13  C   UNL     1     -47.128  29.249   8.168  0.00  0.00    +0.000 C 
ATOM     14  C   UNL     1     -47.222  28.629   5.754  0.00  0.00    +0.000 C 
ENDROOT
BRANCH   3  15
ATOM     15  O   UNL     1     -46.509  32.336   3.078  0.00  0.00    -0.379 OA
ATOM     16  H   UNL     1     -46.830  33.249   3.143  0.00  0.00    +0.211 HD
ENDBRANCH   3  15
BRANCH   4  17
ATOM     17  O   UNL     1     -43.058  30.633   6.499  0.00  0.00    -0.383 OA
ATOM     18  H   UNL     1     -42.949  30.118   7.313  0.00  0.00    +0.211 HD
ENDBRANCH   4  17
BRANCH  10  20
ATOM     19  O   UNL     1     -45.112  30.827   1.194  0.00  0.00    -0.283 OA
ATOM     20  C   UNL     1     -44.459  30.399   2.135  0.00  0.00    +0.232 C 
ENDBRANCH  10  20
BRANCH   6  21
ATOM     21  O   UNL     1     -43.195  33.193   2.551  0.00  0.00    -0.446 OA
BRANCH  21  23
ATOM     22  O   UNL     1     -43.840  34.686   0.923  0.00  0.00    -0.245 OA
ATOM     23  C   UNL     1     -42.987  34.157   1.617  0.00  0.00    +0.344 C 
BRANCH  23  25
ATOM     24 CL   UNL     1     -38.470  33.858  -0.929  0.00  0.00    -0.079 Cl
ATOM     25  C   UNL     1     -41.544  34.499   1.541  0.00  0.00    +0.106 C 
ATOM     26  C   UNL     1     -40.796  34.061   0.465  0.00  0.00    +0.001 C 
ATOM     27  C   UNL     1     -40.986  35.252   2.558  0.00  0.00    +0.143 C 
ATOM     28  C   UNL     1     -39.440  34.388   0.403  0.00  0.00    +0.088 C 
ATOM     29  C   UNL     1     -39.632  35.579   2.495  0.00  0.00    +0.075 C 
ATOM     30  C   UNL     1     -41.434  33.247  -0.619  0.00  0.00    +0.032 C 
ATOM     31  C   UNL     1     -38.859  35.146   1.417  0.00  0.00    +0.152 C 
BRANCH  27  32
ATOM     32  O   UNL     1     -41.722  35.686   3.620  0.00  0.00    -0.505 OA
ATOM     33  H   UNL     1     -41.704  36.589   3.865  0.00  0.00    +0.292 HD
ENDBRANCH  27  32
BRANCH  31  34
ATOM     34  O   UNL     1     -37.538  35.483   1.387  0.00  0.00    -0.470 OA
ATOM     35  C   UNL     1     -37.200  36.722   0.768  0.00  0.00    +0.253 C 
ENDBRANCH  31  34
ENDBRANCH  23  25
ENDBRANCH  21  23
ENDBRANCH   6  21
TORSDOF 8
ENDMDL
MODEL 5
REMARK VINA RESULT:      -6.3      3.068      7.854
REMARK  Name = 195527
REMARK  8 active torsions:
REMARK  status: ('A' for Active; 'I' for Inactive)
REMARK    1  A    between atoms: C_3  and  O_15
REMARK    2  A    between atoms: C_4  and  O_17
REMARK    3  A    between atoms: C_6  and  O_21
REMARK    4  A    between atoms: C_10  and  C_20
REMARK    5  A    between atoms: O_21  and  C_23
REMARK    6  A    between atoms: C_23  and  C_25
REMARK    7  A    between atoms: C_27  and  O_32
REMARK    8  A    between atoms: C_31  and  O_34
REMARK                            x       y       z     vdW  Elec       q    Type
REMARK                         _______ _______ _______ _____ _____    ______ ____
ROOT
ATOM      1  C   UNL     1     -34.287  26.326   1.621  0.00  0.00    +0.036 C 
ATOM      2  C   UNL     1     -33.158  27.351   1.575  0.00  0.00    +0.031 C 
ATOM      3  C   UNL     1     -35.000  26.142   2.989  0.00  0.00    +0.146 C 
ATOM      4  C   UNL     1     -32.270  27.336   2.829  0.00  0.00    +0.107 C 
ATOM      5  C   UNL     1     -33.967  24.809   1.636  0.00  0.00    +0.049 C 
ATOM      6  C   UNL     1     -35.114  24.634   2.649  0.00  0.00    +0.197 C 
ATOM      7  C   UNL     1     -33.753  28.771   1.529  0.00  0.00    +0.003 C 
ATOM      8  C   UNL     1     -32.771  29.692   2.282  0.00  0.00    +0.003 C 
ATOM      9  C   UNL     1     -31.675  28.753   2.823  0.00  0.00    +0.031 C 
ATOM     10  C   UNL     1     -34.205  26.467   4.201  0.00  0.00    +0.045 C 
ATOM     11  C   UNL     1     -35.383  26.536   0.525  0.00  0.00    +0.003 C 
ATOM     12  C   UNL     1     -32.980  27.007   4.118  0.00  0.00    +0.001 C 
ATOM     13  C   UNL     1     -32.161  30.734   1.335  0.00  0.00    +0.000 C 
ATOM     14  C   UNL     1     -33.485  30.428   3.425  0.00  0.00    +0.000 C 
ENDROOT
BRANCH   3  15
ATOM     15  O   UNL     1     -36.302  26.775   3.065  0.00  0.00    -0.379 OA
ATOM     16  H   UNL     1     -36.191  27.737   3.122  0.00  0.00    +0.211 HD
ENDBRANCH   3  15
BRANCH   4  17
ATOM     17  O   UNL     1     -31.181  26.427   2.658  0.00  0.00    -0.383 OA
ATOM     18  H   UNL     1     -30.352  26.925   2.592  0.00  0.00    +0.211 HD
ENDBRANCH   4  17
BRANCH  10  20
ATOM     19  O   UNL     1     -35.948  26.238   5.776  0.00  0.00    -0.283 OA
ATOM     20  C   UNL     1     -34.748  26.207   5.537  0.00  0.00    +0.232 C 
ENDBRANCH  10  20
BRANCH   6  21
ATOM     21  O   UNL     1     -34.862  23.696   3.731  0.00  0.00    -0.446 OA
BRANCH  21  23
ATOM     22  O   UNL     1     -36.118  22.853   5.465  0.00  0.00    -0.245 OA
ATOM     23  C   UNL     1     -35.969  23.141   4.288  0.00  0.00    +0.344 C 
BRANCH  23  25
ATOM     24 CL   UNL     1     -37.761  20.332   0.304  0.00  0.00    -0.079 Cl
ATOM     25  C   UNL     1     -37.012  22.918   3.255  0.00  0.00    +0.106 C 
ATOM     26  C   UNL     1     -36.891  21.854   2.383  0.00  0.00    +0.001 C 
ATOM     27  C   UNL     1     -38.083  23.791   3.196  0.00  0.00    +0.143 C 
ATOM     28  C   UNL     1     -37.877  21.654   1.415  0.00  0.00    +0.088 C 
ATOM     29  C   UNL     1     -39.068  23.592   2.229  0.00  0.00    +0.075 C 
ATOM     30  C   UNL     1     -35.717  20.929   2.477  0.00  0.00    +0.032 C 
ATOM     31  C   UNL     1     -38.964  22.523   1.339  0.00  0.00    +0.152 C 
BRANCH  27  32
ATOM     32  O   UNL     1     -38.204  24.843   4.056  0.00  0.00    -0.505 OA
ATOM     33  H   UNL     1     -38.133  25.720   3.735  0.00  0.00    +0.292 HD
ENDBRANCH  27  32
BRANCH  31  34
ATOM     34  O   UNL     1     -39.945  22.355   0.405  0.00  0.00    -0.470 OA
ATOM     35  C   UNL     1     -40.708  23.508   0.055  0.00  0.00    +0.253 C 
ENDBRANCH  31  34
ENDBRANCH  23  25
ENDBRANCH  21  23
ENDBRANCH   6  21
TORSDOF 8
ENDMDL
MODEL 6
REMARK VINA RESULT:      -6.3      3.375      4.857
REMARK  Name = 195527
REMARK  8 active torsions:
REMARK  status: ('A' for Active; 'I' for Inactive)
REMARK    1  A    between atoms: C_3  and  O_15
REMARK    2  A    between atoms: C_4  and  O_17
REMARK    3  A    between atoms: C_6  and  O_21
REMARK    4  A    between atoms: C_10  and  C_20
REMARK    5  A    between atoms: O_21  and  C_23
REMARK    6  A    between atoms: C_23  and  C_25
REMARK    7  A    between atoms: C_27  and  O_32
REMARK    8  A    between atoms: C_31  and  O_34
REMARK                            x       y       z     vdW  Elec       q    Type
REMARK                         _______ _______ _______ _____ _____    ______ ____
ROOT
ATOM      1  C   UNL     1     -35.322  21.306   2.051  0.00  0.00    +0.036 C 
ATOM      2  C   UNL     1     -34.185  20.842   1.147  0.00  0.00    +0.031 C 
ATOM      3  C   UNL     1     -36.732  20.732   1.738  0.00  0.00    +0.146 C 
ATOM      4  C   UNL     1     -34.585  20.739  -0.334  0.00  0.00    +0.107 C 
ATOM      5  C   UNL     1     -35.917  22.728   1.892  0.00  0.00    +0.049 C 
ATOM      6  C   UNL     1     -37.308  22.114   2.139  0.00  0.00    +0.197 C 
ATOM      7  C   UNL     1     -33.762  19.414   1.541  0.00  0.00    +0.003 C 
ATOM      8  C   UNL     1     -33.303  18.709   0.249  0.00  0.00    +0.003 C 
ATOM      9  C   UNL     1     -33.562  19.729  -0.877  0.00  0.00    +0.031 C 
ATOM     10  C   UNL     1     -36.984  20.316   0.335  0.00  0.00    +0.045 C 
ATOM     11  C   UNL     1     -35.043  21.111   3.577  0.00  0.00    +0.003 C 
ATOM     12  C   UNL     1     -36.011  20.319  -0.588  0.00  0.00    +0.001 C 
ATOM     13  C   UNL     1     -31.811  18.356   0.317  0.00  0.00    +0.000 C 
ATOM     14  C   UNL     1     -34.102  17.417   0.022  0.00  0.00    +0.000 C 
ENDROOT
BRANCH   3  15
ATOM     15  O   UNL     1     -37.158  19.688   2.650  0.00  0.00    -0.379 OA
ATOM     16  H   UNL     1     -36.489  19.570   3.342  0.00  0.00    +0.211 HD
ENDBRANCH   3  15
BRANCH   4  17
ATOM     17  O   UNL     1     -34.343  21.978  -1.003  0.00  0.00    -0.383 OA
ATOM     18  H   UNL     1     -34.278  21.822  -1.957  0.00  0.00    +0.211 HD
ENDBRANCH   4  17
BRANCH  10  20
ATOM     19  O   UNL     1     -38.539  18.760  -0.522  0.00  0.00    -0.283 OA
ATOM     20  C   UNL     1     -38.320  19.880  -0.082  0.00  0.00    +0.232 C 
ENDBRANCH  10  20
BRANCH   6  21
ATOM     21  O   UNL     1     -38.385  22.641   1.317  0.00  0.00    -0.446 OA
BRANCH  21  23
ATOM     22  O   UNL     1     -40.188  21.670   2.366  0.00  0.00    -0.245 OA
ATOM     23  C   UNL     1     -39.613  22.639   1.897  0.00  0.00    +0.344 C 
BRANCH  23  25
ATOM     24 CL   UNL     1     -42.715  26.147  -0.352  0.00  0.00    -0.079 Cl
ATOM     25  C   UNL     1     -40.191  24.007   1.888  0.00  0.00    +0.106 C 
ATOM     26  C   UNL     1     -41.071  24.368   0.886  0.00  0.00    +0.001 C 
ATOM     27  C   UNL     1     -39.827  24.886   2.890  0.00  0.00    +0.143 C 
ATOM     28  C   UNL     1     -41.608  25.656   0.887  0.00  0.00    +0.088 C 
ATOM     29  C   UNL     1     -40.364  26.173   2.891  0.00  0.00    +0.075 C 
ATOM     30  C   UNL     1     -41.442  23.388  -0.185  0.00  0.00    +0.032 C 
ATOM     31  C   UNL     1     -41.255  26.558   1.889  0.00  0.00    +0.152 C 
BRANCH  27  32
ATOM     32  O   UNL     1     -38.959  24.532   3.880  0.00  0.00    -0.505 OA
ATOM     33  H   UNL     1     -39.029  23.690   4.285  0.00  0.00    +0.292 HD
ENDBRANCH  27  32
BRANCH  31  34
ATOM     34  O   UNL     1     -41.762  27.824   1.918  0.00  0.00    -0.470 OA
ATOM     35  C   UNL     1     -42.755  28.100   2.903  0.00  0.00    +0.253 C 
ENDBRANCH  31  34
ENDBRANCH  23  25
ENDBRANCH  21  23
ENDBRANCH   6  21
TORSDOF 8
ENDMDL
MODEL 7
REMARK VINA RESULT:      -6.2      4.260      9.306
REMARK  Name = 195527
REMARK  8 active torsions:
REMARK  status: ('A' for Active; 'I' for Inactive)
REMARK    1  A    between atoms: C_3  and  O_15
REMARK    2  A    between atoms: C_4  and  O_17
REMARK    3  A    between atoms: C_6  and  O_21
REMARK    4  A    between atoms: C_10  and  C_20
REMARK    5  A    between atoms: O_21  and  C_23
REMARK    6  A    between atoms: C_23  and  C_25
REMARK    7  A    between atoms: C_27  and  O_32
REMARK    8  A    between atoms: C_31  and  O_34
REMARK                            x       y       z     vdW  Elec       q    Type
REMARK                         _______ _______ _______ _____ _____    ______ ____
ROOT
ATOM      1  C   UNL     1     -31.850  28.243   3.364  0.00  0.00    +0.036 C 
ATOM      2  C   UNL     1     -30.962  29.059   4.298  0.00  0.00    +0.031 C 
ATOM      3  C   UNL     1     -32.997  29.014   2.652  0.00  0.00    +0.146 C 
ATOM      4  C   UNL     1     -31.739  30.086   5.137  0.00  0.00    +0.107 C 
ATOM      5  C   UNL     1     -32.918  27.280   3.942  0.00  0.00    +0.049 C 
ATOM      6  C   UNL     1     -33.861  27.736   2.813  0.00  0.00    +0.197 C 
ATOM      7  C   UNL     1     -29.971  29.896   3.467  0.00  0.00    +0.003 C 
ATOM      8  C   UNL     1     -29.721  31.201   4.250  0.00  0.00    +0.003 C 
ATOM      9  C   UNL     1     -30.652  31.118   5.475  0.00  0.00    +0.031 C 
ATOM     10  C   UNL     1     -33.510  30.225   3.341  0.00  0.00    +0.045 C 
ATOM     11  C   UNL     1     -31.063  27.432   2.283  0.00  0.00    +0.003 C 
ATOM     12  C   UNL     1     -32.936  30.701   4.455  0.00  0.00    +0.001 C 
ATOM     13  C   UNL     1     -28.256  31.300   4.698  0.00  0.00    +0.000 C 
ATOM     14  C   UNL     1     -30.051  32.426   3.384  0.00  0.00    +0.000 C 
ENDROOT
BRANCH   3  15
ATOM     15  O   UNL     1     -32.731  29.309   1.258  0.00  0.00    -0.379 OA
ATOM     16  H   UNL     1     -32.494  30.246   1.165  0.00  0.00    +0.211 HD
ENDBRANCH   3  15
BRANCH   4  17
ATOM     17  O   UNL     1     -32.160  29.505   6.371  0.00  0.00    -0.383 OA
ATOM     18  H   UNL     1     -31.627  28.717   6.556  0.00  0.00    +0.211 HD
ENDBRANCH   4  17
BRANCH  10  20
ATOM     19  O   UNL     1     -35.026  30.851   1.643  0.00  0.00    -0.283 OA
ATOM     20  C   UNL     1     -34.671  30.944   2.810  0.00  0.00    +0.232 C 
ENDBRANCH  10  20
BRANCH   6  21
ATOM     21  O   UNL     1     -35.251  27.928   3.191  0.00  0.00    -0.446 OA
BRANCH  21  23
ATOM     22  O   UNL     1     -36.942  27.306   1.759  0.00  0.00    -0.245 OA
ATOM     23  C   UNL     1     -36.130  27.054   2.635  0.00  0.00    +0.344 C 
BRANCH  23  25
ATOM     24 CL   UNL     1     -35.038  22.008   2.070  0.00  0.00    -0.079 Cl
ATOM     25  C   UNL     1     -35.978  25.709   3.245  0.00  0.00    +0.106 C 
ATOM     26  C   UNL     1     -35.622  24.636   2.450  0.00  0.00    +0.001 C 
ATOM     27  C   UNL     1     -36.199  25.568   4.602  0.00  0.00    +0.143 C 
ATOM     28  C   UNL     1     -35.482  23.376   3.033  0.00  0.00    +0.088 C 
ATOM     29  C   UNL     1     -36.058  24.309   5.185  0.00  0.00    +0.075 C 
ATOM     30  C   UNL     1     -35.391  24.827   0.982  0.00  0.00    +0.032 C 
ATOM     31  C   UNL     1     -35.700  23.213   4.400  0.00  0.00    +0.152 C 
BRANCH  27  32
ATOM     32  O   UNL     1     -36.550  26.625   5.389  0.00  0.00    -0.505 OA
ATOM     33  H   UNL     1     -37.426  26.955   5.366  0.00  0.00    +0.292 HD
ENDBRANCH  27  32
BRANCH  31  34
ATOM     34  O   UNL     1     -35.571  21.995   5.001  0.00  0.00    -0.470 OA
ATOM     35  C   UNL     1     -35.188  21.989   6.374  0.00  0.00    +0.253 C 
ENDBRANCH  31  34
ENDBRANCH  23  25
ENDBRANCH  21  23
ENDBRANCH   6  21
TORSDOF 8
ENDMDL
MODEL 8
REMARK VINA RESULT:      -6.1      2.027      3.490
REMARK  Name = 195527
REMARK  8 active torsions:
REMARK  status: ('A' for Active; 'I' for Inactive)
REMARK    1  A    between atoms: C_3  and  O_15
REMARK    2  A    between atoms: C_4  and  O_17
REMARK    3  A    between atoms: C_6  and  O_21
REMARK    4  A    between atoms: C_10  and  C_20
REMARK    5  A    between atoms: O_21  and  C_23
REMARK    6  A    between atoms: C_23  and  C_25
REMARK    7  A    between atoms: C_27  and  O_32
REMARK    8  A    between atoms: C_31  and  O_34
REMARK                            x       y       z     vdW  Elec       q    Type
REMARK                         _______ _______ _______ _____ _____    ______ ____
ROOT
ATOM      1  C   UNL     1     -36.290  19.936   0.642  0.00  0.00    +0.036 C 
ATOM      2  C   UNL     1     -35.250  18.919   0.183  0.00  0.00    +0.031 C 
ATOM      3  C   UNL     1     -35.893  21.433   0.522  0.00  0.00    +0.146 C 
ATOM      4  C   UNL     1     -33.813  19.294   0.577  0.00  0.00    +0.107 C 
ATOM      5  C   UNL     1     -36.540  20.171   2.154  0.00  0.00    +0.049 C 
ATOM      6  C   UNL     1     -36.670  21.673   1.842  0.00  0.00    +0.197 C 
ATOM      7  C   UNL     1     -35.233  18.858  -1.357  0.00  0.00    +0.003 C 
ATOM      8  C   UNL     1     -33.782  18.548  -1.777  0.00  0.00    +0.003 C 
ATOM      9  C   UNL     1     -32.979  18.528  -0.462  0.00  0.00    +0.031 C 
ATOM     10  C   UNL     1     -34.441  21.741   0.569  0.00  0.00    +0.045 C 
ATOM     11  C   UNL     1     -37.697  19.750  -0.014  0.00  0.00    +0.003 C 
ATOM     12  C   UNL     1     -33.514  20.773   0.590  0.00  0.00    +0.001 C 
ATOM     13  C   UNL     1     -33.694  17.184  -2.477  0.00  0.00    +0.000 C 
ATOM     14  C   UNL     1     -33.253  19.625  -2.735  0.00  0.00    +0.000 C 
ENDROOT
BRANCH   3  15
ATOM     15  O   UNL     1     -36.511  22.118  -0.596  0.00  0.00    -0.379 OA
ATOM     16  H   UNL     1     -37.126  22.791  -0.264  0.00  0.00    +0.211 HD
ENDBRANCH   3  15
BRANCH   4  17
ATOM     17  O   UNL     1     -33.488  18.748   1.857  0.00  0.00    -0.383 OA
ATOM     18  H   UNL     1     -32.810  19.297   2.279  0.00  0.00    +0.211 HD
ENDBRANCH   4  17
BRANCH  10  20
ATOM     19  O   UNL     1     -34.545  24.023  -0.028  0.00  0.00    -0.283 OA
ATOM     20  C   UNL     1     -33.978  23.132   0.589  0.00  0.00    +0.232 C 
ENDBRANCH  10  20
BRANCH   6  21
ATOM     21  O   UNL     1     -36.062  22.573   2.808  0.00  0.00    -0.446 OA
BRANCH  21  23
ATOM     22  O   UNL     1     -38.060  23.563   3.377  0.00  0.00    -0.245 OA
ATOM     23  C   UNL     1     -36.849  23.598   3.224  0.00  0.00    +0.344 C 
BRANCH  23  25
ATOM     24 CL   UNL     1     -33.684  26.251   6.375  0.00  0.00    -0.079 Cl
ATOM     25  C   UNL     1     -36.029  24.810   3.479  0.00  0.00    +0.106 C 
ATOM     26  C   UNL     1     -35.335  24.926   4.668  0.00  0.00    +0.001 C 
ATOM     27  C   UNL     1     -35.984  25.795   2.510  0.00  0.00    +0.143 C 
ATOM     28  C   UNL     1     -34.568  26.069   4.897  0.00  0.00    +0.088 C 
ATOM     29  C   UNL     1     -35.217  26.937   2.739  0.00  0.00    +0.075 C 
ATOM     30  C   UNL     1     -35.408  23.838   5.695  0.00  0.00    +0.032 C 
ATOM     31  C   UNL     1     -34.509  27.073   3.933  0.00  0.00    +0.152 C 
BRANCH  27  32
ATOM     32  O   UNL     1     -36.668  25.683   1.335  0.00  0.00    -0.505 OA
ATOM     33  H   UNL     1     -37.213  24.937   1.181  0.00  0.00    +0.292 HD
ENDBRANCH  27  32
BRANCH  31  34
ATOM     34  O   UNL     1     -33.768  28.202   4.126  0.00  0.00    -0.470 OA
ATOM     35  C   UNL     1     -32.472  28.235   3.532  0.00  0.00    +0.253 C 
ENDBRANCH  31  34
ENDBRANCH  23  25
ENDBRANCH  21  23
ENDBRANCH   6  21
TORSDOF 8
ENDMDL
MODEL 9
REMARK VINA RESULT:      -6.0      3.275      5.454
REMARK  Name = 195527
REMARK  8 active torsions:
REMARK  status: ('A' for Active; 'I' for Inactive)
REMARK    1  A    between atoms: C_3  and  O_15
REMARK    2  A    between atoms: C_4  and  O_17
REMARK    3  A    between atoms: C_6  and  O_21
REMARK    4  A    between atoms: C_10  and  C_20
REMARK    5  A    between atoms: O_21  and  C_23
REMARK    6  A    between atoms: C_23  and  C_25
REMARK    7  A    between atoms: C_27  and  O_32
REMARK    8  A    between atoms: C_31  and  O_34
REMARK                            x       y       z     vdW  Elec       q    Type
REMARK                         _______ _______ _______ _____ _____    ______ ____
ROOT
ATOM      1  C   UNL     1     -38.758  26.000   0.986  0.00  0.00    +0.036 C 
ATOM      2  C   UNL     1     -40.093  26.664   1.307  0.00  0.00    +0.031 C 
ATOM      3  C   UNL     1     -38.720  24.448   1.069  0.00  0.00    +0.146 C 
ATOM      4  C   UNL     1     -40.834  26.009   2.482  0.00  0.00    +0.107 C 
ATOM      5  C   UNL     1     -37.599  26.037   2.014  0.00  0.00    +0.049 C 
ATOM      6  C   UNL     1     -37.278  24.582   1.622  0.00  0.00    +0.197 C 
ATOM      7  C   UNL     1     -41.046  26.512   0.105  0.00  0.00    +0.003 C 
ATOM      8  C   UNL     1     -42.474  26.404   0.678  0.00  0.00    +0.003 C 
ATOM      9  C   UNL     1     -42.294  26.405   2.208  0.00  0.00    +0.031 C 
ATOM     10  C   UNL     1     -39.699  23.808   1.983  0.00  0.00    +0.045 C 
ATOM     11  C   UNL     1     -38.145  26.430  -0.387  0.00  0.00    +0.003 C 
ATOM     12  C   UNL     1     -40.648  24.517   2.611  0.00  0.00    +0.001 C 
ATOM     13  C   UNL     1     -43.332  27.599   0.240  0.00  0.00    +0.000 C 
ATOM     14  C   UNL     1     -43.153  25.112   0.200  0.00  0.00    +0.000 C 
ENDROOT
BRANCH   3  15
ATOM     15  O   UNL     1     -38.740  23.789  -0.223  0.00  0.00    -0.379 OA
ATOM     16  H   UNL     1     -39.657  23.703  -0.528  0.00  0.00    +0.211 HD
ENDBRANCH   3  15
BRANCH   4  17
ATOM     17  O   UNL     1     -40.459  26.627   3.714  0.00  0.00    -0.383 OA
ATOM     18  H   UNL     1     -39.578  26.318   3.975  0.00  0.00    +0.211 HD
ENDBRANCH   4  17
BRANCH  10  20
ATOM     19  O   UNL     1     -40.091  21.550   1.416  0.00  0.00    -0.283 OA
ATOM     20  C   UNL     1     -39.657  22.362   2.221  0.00  0.00    +0.232 C 
ENDBRANCH  10  20
BRANCH   6  21
ATOM     21  O   UNL     1     -36.910  23.700   2.718  0.00  0.00    -0.446 OA
BRANCH  21  23
ATOM     22  O   UNL     1     -35.002  22.456   2.390  0.00  0.00    -0.245 OA
ATOM     23  C   UNL     1     -35.583  23.435   2.830  0.00  0.00    +0.344 C 
BRANCH  23  25
ATOM     24 CL   UNL     1     -32.210  27.385   2.868  0.00  0.00    -0.079 Cl
ATOM     25  C   UNL     1     -34.901  24.520   3.581  0.00  0.00    +0.106 C 
ATOM     26  C   UNL     1     -33.992  25.331   2.931  0.00  0.00    +0.001 C 
ATOM     27  C   UNL     1     -35.199  24.686   4.921  0.00  0.00    +0.143 C 
ATOM     28  C   UNL     1     -33.356  26.347   3.647  0.00  0.00    +0.088 C 
ATOM     29  C   UNL     1     -34.565  25.702   5.636  0.00  0.00    +0.075 C 
ATOM     30  C   UNL     1     -33.694  25.121   1.478  0.00  0.00    +0.032 C 
ATOM     31  C   UNL     1     -33.643  26.532   4.998  0.00  0.00    +0.152 C 
BRANCH  27  32
ATOM     32  O   UNL     1     -36.097  23.886   5.565  0.00  0.00    -0.505 OA
ATOM     33  H   UNL     1     -35.876  22.997   5.758  0.00  0.00    +0.292 HD
ENDBRANCH  27  32
BRANCH  31  34
ATOM     34  O   UNL     1     -33.040  27.515   5.726  0.00  0.00    -0.470 OA
ATOM     35  C   UNL     1     -32.653  27.189   7.060  0.00  0.00    +0.253 C 
ENDBRANCH  31  34
ENDBRANCH  23  25
ENDBRANCH  21  23
ENDBRANCH   6  21
TORSDOF 8
ENDMDL
