MODEL 1
REMARK VINA RESULT:      -5.7      0.000      0.000
REMARK  Name = 53471836
REMARK  7 active torsions:
REMARK  status: ('A' for Active; 'I' for Inactive)
REMARK    1  A    between atoms: C_1  and  C_14
REMARK    2  A    between atoms: C_4  and  O_7
REMARK    3  A    between atoms: C_5  and  O_9
REMARK    4  A    between atoms: O_9  and  S_10
REMARK    5  A    between atoms: C_14  and  O_15
REMARK    6  A    between atoms: C_14  and  C_17
REMARK    7  A    between atoms: C_17  and  N_18
REMARK                            x       y       z     vdW  Elec       q    Type
REMARK                         _______ _______ _______ _____ _____    ______ ____
ROOT
ATOM      1  C   UNL     1     -36.783  22.457   2.965  0.00  0.00    +0.005 C 
ATOM      2  C   UNL     1     -37.359  23.724   3.062  0.00  0.00    +0.038 C 
ATOM      3  C   UNL     1     -35.728  22.105   3.805  0.00  0.00    +0.001 C 
ATOM      4  C   UNL     1     -36.879  24.638   4.000  0.00  0.00    +0.170 C 
ATOM      5  C   UNL     1     -35.823  24.286   4.841  0.00  0.00    +0.209 C 
ATOM      6  C   UNL     1     -35.248  23.018   4.744  0.00  0.00    +0.043 C 
ENDROOT
BRANCH   4   7
ATOM      7  O   UNL     1     -37.451  25.872   4.087  0.00  0.00    -0.503 OA
ATOM      8  H   UNL     1     -38.151  26.022   4.691  0.00  0.00    +0.292 HD
ENDBRANCH   4   7
BRANCH   5   9
ATOM      9  O   UNL     1     -35.346  25.170   5.760  0.00  0.00    -0.319 OA
BRANCH   9  10
ATOM     10  S   UNL     1     -34.097  26.155   5.344  0.00  0.00    +0.282 S 
ATOM     11  O   UNL     1     -34.811  27.357   4.502  0.00  0.00    -0.105 OA
ATOM     12  O   UNL     1     -33.528  26.730   6.548  0.00  0.00    -0.105 OA
ATOM     13  O   UNL     1     -33.249  25.423   4.420  0.00  0.00    -0.012 OA
ENDBRANCH   9  10
ENDBRANCH   5   9
BRANCH   1  14
ATOM     14  C   UNL     1     -37.298  21.480   1.963  0.00  0.00    +0.112 C 
BRANCH  14  15
ATOM     15  O   UNL     1     -38.582  21.005   2.389  0.00  0.00    -0.382 OA
ATOM     16  H   UNL     1     -38.751  20.134   1.999  0.00  0.00    +0.211 HD
ENDBRANCH  14  15
BRANCH  14  17
ATOM     17  C   UNL     1     -36.347  20.282   1.773  0.00  0.00    -0.047 C 
BRANCH  17  18
ATOM     18  N   UNL     1     -37.040  19.133   1.192  0.00  0.00    +0.384 N 
ATOM     19  C   UNL     1     -36.408  18.726  -0.054  0.00  0.00    -0.106 C 
ATOM     20  H   UNL     1     -38.011  19.388   1.007  0.00  0.00    -0.085 HD
ATOM     21  H   UNL     1     -36.996  18.357   1.851  0.00  0.00    -0.085 HD
ENDBRANCH  17  18
ENDBRANCH  14  17
ENDBRANCH   1  14
TORSDOF 7
ENDMDL
MODEL 2
REMARK VINA RESULT:      -5.6      1.132      1.179
REMARK  Name = 53471836
REMARK  7 active torsions:
REMARK  status: ('A' for Active; 'I' for Inactive)
REMARK    1  A    between atoms: C_1  and  C_14
REMARK    2  A    between atoms: C_4  and  O_7
REMARK    3  A    between atoms: C_5  and  O_9
REMARK    4  A    between atoms: O_9  and  S_10
REMARK    5  A    between atoms: C_14  and  O_15
REMARK    6  A    between atoms: C_14  and  C_17
REMARK    7  A    between atoms: C_17  and  N_18
REMARK                            x       y       z     vdW  Elec       q    Type
REMARK                         _______ _______ _______ _____ _____    ______ ____
ROOT
ATOM      1  C   UNL     1     -36.320  21.964   2.940  0.00  0.00    +0.005 C 
ATOM      2  C   UNL     1     -36.908  23.221   2.790  0.00  0.00    +0.038 C 
ATOM      3  C   UNL     1     -35.442  21.726   3.995  0.00  0.00    +0.001 C 
ATOM      4  C   UNL     1     -36.616  24.239   3.699  0.00  0.00    +0.170 C 
ATOM      5  C   UNL     1     -35.736  24.001   4.755  0.00  0.00    +0.209 C 
ATOM      6  C   UNL     1     -35.150  22.744   4.904  0.00  0.00    +0.043 C 
ENDROOT
BRANCH   4   7
ATOM      7  O   UNL     1     -37.198  25.462   3.544  0.00  0.00    -0.503 OA
ATOM      8  H   UNL     1     -36.827  26.086   2.953  0.00  0.00    +0.292 HD
ENDBRANCH   4   7
BRANCH   5   9
ATOM      9  O   UNL     1     -35.445  24.987   5.647  0.00  0.00    -0.319 OA
BRANCH   9  10
ATOM     10  S   UNL     1     -34.211  26.022   5.315  0.00  0.00    +0.282 S 
ATOM     11  O   UNL     1     -34.926  27.226   4.476  0.00  0.00    -0.105 OA
ATOM     12  O   UNL     1     -33.712  26.578   6.558  0.00  0.00    -0.105 OA
ATOM     13  O   UNL     1     -33.301  25.344   4.409  0.00  0.00    -0.012 OA
ENDBRANCH   9  10
ENDBRANCH   5   9
BRANCH   1  14
ATOM     14  C   UNL     1     -36.634  20.876   1.969  0.00  0.00    +0.112 C 
BRANCH  14  15
ATOM     15  O   UNL     1     -36.950  19.680   2.693  0.00  0.00    -0.382 OA
ATOM     16  H   UNL     1     -36.638  18.908   2.195  0.00  0.00    +0.211 HD
ENDBRANCH  14  15
BRANCH  14  17
ATOM     17  C   UNL     1     -35.464  20.598   1.005  0.00  0.00    -0.047 C 
BRANCH  17  18
ATOM     18  N   UNL     1     -35.027  19.205   1.080  0.00  0.00    +0.384 N 
ATOM     19  C   UNL     1     -33.638  19.123   1.508  0.00  0.00    -0.106 C 
ATOM     20  H   UNL     1     -35.119  18.775   0.160  0.00  0.00    -0.085 HD
ATOM     21  H   UNL     1     -35.608  18.716   1.760  0.00  0.00    -0.085 HD
ENDBRANCH  17  18
ENDBRANCH  14  17
ENDBRANCH   1  14
TORSDOF 7
ENDMDL
MODEL 3
REMARK VINA RESULT:      -5.6      3.787      6.133
REMARK  Name = 53471836
REMARK  7 active torsions:
REMARK  status: ('A' for Active; 'I' for Inactive)
REMARK    1  A    between atoms: C_1  and  C_14
REMARK    2  A    between atoms: C_4  and  O_7
REMARK    3  A    between atoms: C_5  and  O_9
REMARK    4  A    between atoms: O_9  and  S_10
REMARK    5  A    between atoms: C_14  and  O_15
REMARK    6  A    between atoms: C_14  and  C_17
REMARK    7  A    between atoms: C_17  and  N_18
REMARK                            x       y       z     vdW  Elec       q    Type
REMARK                         _______ _______ _______ _____ _____    ______ ____
ROOT
ATOM      1  C   UNL     1     -35.737  24.373   4.997  0.00  0.00    +0.005 C 
ATOM      2  C   UNL     1     -35.336  23.128   5.485  0.00  0.00    +0.038 C 
ATOM      3  C   UNL     1     -36.319  24.473   3.735  0.00  0.00    +0.001 C 
ATOM      4  C   UNL     1     -35.521  21.984   4.708  0.00  0.00    +0.170 C 
ATOM      5  C   UNL     1     -36.103  22.084   3.445  0.00  0.00    +0.209 C 
ATOM      6  C   UNL     1     -36.503  23.329   2.958  0.00  0.00    +0.043 C 
ENDROOT
BRANCH   4   7
ATOM      7  O   UNL     1     -35.128  20.774   5.197  0.00  0.00    -0.503 OA
ATOM      8  H   UNL     1     -34.217  20.582   5.297  0.00  0.00    +0.292 HD
ENDBRANCH   4   7
BRANCH   5   9
ATOM      9  O   UNL     1     -36.288  20.973   2.679  0.00  0.00    -0.319 OA
BRANCH   9  10
ATOM     10  S   UNL     1     -35.069  20.475   1.693  0.00  0.00    +0.282 S 
ATOM     11  O   UNL     1     -35.833  19.625   0.527  0.00  0.00    -0.105 OA
ATOM     12  O   UNL     1     -34.460  21.636   1.073  0.00  0.00    -0.105 OA
ATOM     13  O   UNL     1     -34.250  19.541   2.444  0.00  0.00    -0.012 OA
ENDBRANCH   9  10
ENDBRANCH   5   9
BRANCH   1  14
ATOM     14  C   UNL     1     -35.541  25.596   5.828  0.00  0.00    +0.112 C 
BRANCH  14  15
ATOM     15  O   UNL     1     -36.419  26.627   5.358  0.00  0.00    -0.382 OA
ATOM     16  H   UNL     1     -36.973  26.940   6.089  0.00  0.00    +0.211 HD
ENDBRANCH  14  15
BRANCH  14  17
ATOM     17  C   UNL     1     -34.086  26.104   5.787  0.00  0.00    -0.047 C 
BRANCH  17  18
ATOM     18  N   UNL     1     -33.934  27.221   4.856  0.00  0.00    +0.384 N 
ATOM     19  C   UNL     1     -33.207  26.806   3.666  0.00  0.00    -0.106 C 
ATOM     20  H   UNL     1     -33.420  27.972   5.317  0.00  0.00    -0.085 HD
ATOM     21  H   UNL     1     -34.861  27.543   4.578  0.00  0.00    -0.085 HD
ENDBRANCH  17  18
ENDBRANCH  14  17
ENDBRANCH   1  14
TORSDOF 7
ENDMDL
MODEL 4
REMARK VINA RESULT:      -5.5      1.513      2.351
REMARK  Name = 53471836
REMARK  7 active torsions:
REMARK  status: ('A' for Active; 'I' for Inactive)
REMARK    1  A    between atoms: C_1  and  C_14
REMARK    2  A    between atoms: C_4  and  O_7
REMARK    3  A    between atoms: C_5  and  O_9
REMARK    4  A    between atoms: O_9  and  S_10
REMARK    5  A    between atoms: C_14  and  O_15
REMARK    6  A    between atoms: C_14  and  C_17
REMARK    7  A    between atoms: C_17  and  N_18
REMARK                            x       y       z     vdW  Elec       q    Type
REMARK                         _______ _______ _______ _____ _____    ______ ____
ROOT
ATOM      1  C   UNL     1     -35.759  21.769   2.804  0.00  0.00    +0.005 C 
ATOM      2  C   UNL     1     -35.457  21.631   4.160  0.00  0.00    +0.038 C 
ATOM      3  C   UNL     1     -35.962  23.036   2.260  0.00  0.00    +0.001 C 
ATOM      4  C   UNL     1     -35.359  22.763   4.970  0.00  0.00    +0.170 C 
ATOM      5  C   UNL     1     -35.563  24.031   4.426  0.00  0.00    +0.209 C 
ATOM      6  C   UNL     1     -35.864  24.168   3.070  0.00  0.00    +0.043 C 
ENDROOT
BRANCH   4   7
ATOM      7  O   UNL     1     -35.061  22.617   6.292  0.00  0.00    -0.503 OA
ATOM      8  H   UNL     1     -34.181  22.730   6.589  0.00  0.00    +0.292 HD
ENDBRANCH   4   7
BRANCH   5   9
ATOM      9  O   UNL     1     -35.470  25.142   5.207  0.00  0.00    -0.319 OA
BRANCH   9  10
ATOM     10  S   UNL     1     -34.201  26.165   4.986  0.00  0.00    +0.282 S 
ATOM     11  O   UNL     1     -33.749  26.560   6.505  0.00  0.00    -0.105 OA
ATOM     12  O   UNL     1     -33.109  25.436   4.370  0.00  0.00    -0.105 OA
ATOM     13  O   UNL     1     -34.712  27.371   4.359  0.00  0.00    -0.012 OA
ENDBRANCH   9  10
ENDBRANCH   5   9
BRANCH   1  14
ATOM     14  C   UNL     1     -35.862  20.559   1.939  0.00  0.00    +0.112 C 
BRANCH  14  15
ATOM     15  O   UNL     1     -36.796  19.642   2.524  0.00  0.00    -0.382 OA
ATOM     16  H   UNL     1     -36.842  18.838   1.985  0.00  0.00    +0.211 HD
ENDBRANCH  14  15
BRANCH  14  17
ATOM     17  C   UNL     1     -34.503  19.855   1.753  0.00  0.00    -0.047 C 
BRANCH  17  18
ATOM     18  N   UNL     1     -34.617  18.687   0.882  0.00  0.00    +0.384 N 
ATOM     19  C   UNL     1     -33.367  17.943   0.850  0.00  0.00    -0.106 C 
ATOM     20  H   UNL     1     -34.848  18.996  -0.062  0.00  0.00    -0.085 HD
ATOM     21  H   UNL     1     -35.351  18.079   1.246  0.00  0.00    -0.085 HD
ENDBRANCH  17  18
ENDBRANCH  14  17
ENDBRANCH   1  14
TORSDOF 7
ENDMDL
MODEL 5
REMARK VINA RESULT:      -5.4      2.014      2.570
REMARK  Name = 53471836
REMARK  7 active torsions:
REMARK  status: ('A' for Active; 'I' for Inactive)
REMARK    1  A    between atoms: C_1  and  C_14
REMARK    2  A    between atoms: C_4  and  O_7
REMARK    3  A    between atoms: C_5  and  O_9
REMARK    4  A    between atoms: O_9  and  S_10
REMARK    5  A    between atoms: C_14  and  O_15
REMARK    6  A    between atoms: C_14  and  C_17
REMARK    7  A    between atoms: C_17  and  N_18
REMARK                            x       y       z     vdW  Elec       q    Type
REMARK                         _______ _______ _______ _____ _____    ______ ____
ROOT
ATOM      1  C   UNL     1     -35.480  22.943   4.333  0.00  0.00    +0.005 C 
ATOM      2  C   UNL     1     -35.249  23.646   3.150  0.00  0.00    +0.038 C 
ATOM      3  C   UNL     1     -35.406  23.600   5.560  0.00  0.00    +0.001 C 
ATOM      4  C   UNL     1     -34.945  25.007   3.196  0.00  0.00    +0.170 C 
ATOM      5  C   UNL     1     -34.871  25.665   4.424  0.00  0.00    +0.209 C 
ATOM      6  C   UNL     1     -35.102  24.961   5.607  0.00  0.00    +0.043 C 
ENDROOT
BRANCH   4   7
ATOM      7  O   UNL     1     -34.725  25.683   2.034  0.00  0.00    -0.503 OA
ATOM      8  H   UNL     1     -34.286  25.261   1.322  0.00  0.00    +0.292 HD
ENDBRANCH   4   7
BRANCH   5   9
ATOM      9  O   UNL     1     -34.575  26.992   4.481  0.00  0.00    -0.319 OA
BRANCH   9  10
ATOM     10  S   UNL     1     -32.999  27.454   4.558  0.00  0.00    +0.282 S 
ATOM     11  O   UNL     1     -32.543  27.032   6.068  0.00  0.00    -0.105 OA
ATOM     12  O   UNL     1     -32.228  26.661   3.620  0.00  0.00    -0.105 OA
ATOM     13  O   UNL     1     -32.961  28.903   4.484  0.00  0.00    -0.012 OA
ENDBRANCH   9  10
ENDBRANCH   5   9
BRANCH   1  14
ATOM     14  C   UNL     1     -35.806  21.489   4.283  0.00  0.00    +0.112 C 
BRANCH  14  15
ATOM     15  O   UNL     1     -35.057  20.806   5.297  0.00  0.00    -0.382 OA
ATOM     16  H   UNL     1     -35.436  21.001   6.167  0.00  0.00    +0.211 HD
ENDBRANCH  14  15
BRANCH  14  17
ATOM     17  C   UNL     1     -35.492  20.866   2.908  0.00  0.00    -0.047 C 
BRANCH  17  18
ATOM     18  N   UNL     1     -36.596  20.034   2.432  0.00  0.00    +0.384 N 
ATOM     19  C   UNL     1     -36.460  19.764   1.008  0.00  0.00    -0.106 C 
ATOM     20  H   UNL     1     -37.477  20.520   2.598  0.00  0.00    -0.085 HD
ATOM     21  H   UNL     1     -36.578  19.148   2.936  0.00  0.00    -0.085 HD
ENDBRANCH  17  18
ENDBRANCH  14  17
ENDBRANCH   1  14
TORSDOF 7
ENDMDL
MODEL 6
REMARK VINA RESULT:      -5.3      3.434      5.109
REMARK  Name = 53471836
REMARK  7 active torsions:
REMARK  status: ('A' for Active; 'I' for Inactive)
REMARK    1  A    between atoms: C_1  and  C_14
REMARK    2  A    between atoms: C_4  and  O_7
REMARK    3  A    between atoms: C_5  and  O_9
REMARK    4  A    between atoms: O_9  and  S_10
REMARK    5  A    between atoms: C_14  and  O_15
REMARK    6  A    between atoms: C_14  and  C_17
REMARK    7  A    between atoms: C_17  and  N_18
REMARK                            x       y       z     vdW  Elec       q    Type
REMARK                         _______ _______ _______ _____ _____    ______ ____
ROOT
ATOM      1  C   UNL     1     -34.751  26.055   4.682  0.00  0.00    +0.005 C 
ATOM      2  C   UNL     1     -34.056  26.097   5.892  0.00  0.00    +0.038 C 
ATOM      3  C   UNL     1     -34.349  26.862   3.619  0.00  0.00    +0.001 C 
ATOM      4  C   UNL     1     -32.959  26.947   6.036  0.00  0.00    +0.170 C 
ATOM      5  C   UNL     1     -32.558  27.756   4.972  0.00  0.00    +0.209 C 
ATOM      6  C   UNL     1     -33.253  27.713   3.763  0.00  0.00    +0.043 C 
ENDROOT
BRANCH   4   7
ATOM      7  O   UNL     1     -32.287  26.978   7.221  0.00  0.00    -0.503 OA
ATOM      8  H   UNL     1     -31.424  27.340   7.261  0.00  0.00    +0.292 HD
ENDBRANCH   4   7
BRANCH   5   9
ATOM      9  O   UNL     1     -31.489  28.589   5.102  0.00  0.00    -0.319 OA
BRANCH   9  10
ATOM     10  S   UNL     1     -31.698  30.042   5.842  0.00  0.00    +0.282 S 
ATOM     11  O   UNL     1     -30.399  30.911   5.370  0.00  0.00    -0.105 OA
ATOM     12  O   UNL     1     -32.883  30.681   5.302  0.00  0.00    -0.105 OA
ATOM     13  O   UNL     1     -31.579  29.828   7.273  0.00  0.00    -0.012 OA
ENDBRANCH   9  10
ENDBRANCH   5   9
BRANCH   1  14
ATOM     14  C   UNL     1     -35.922  25.145   4.529  0.00  0.00    +0.112 C 
BRANCH  14  15
ATOM     15  O   UNL     1     -37.118  25.859   4.867  0.00  0.00    -0.382 OA
ATOM     16  H   UNL     1     -37.165  26.676   4.347  0.00  0.00    +0.211 HD
ENDBRANCH  14  15
BRANCH  14  17
ATOM     17  C   UNL     1     -35.807  23.890   5.416  0.00  0.00    -0.047 C 
BRANCH  17  18
ATOM     18  N   UNL     1     -36.454  22.734   4.797  0.00  0.00    +0.384 N 
ATOM     19  C   UNL     1     -35.835  22.421   3.518  0.00  0.00    -0.106 C 
ATOM     20  H   UNL     1     -37.441  22.943   4.649  0.00  0.00    -0.085 HD
ATOM     21  H   UNL     1     -36.350  21.931   5.417  0.00  0.00    -0.085 HD
ENDBRANCH  17  18
ENDBRANCH  14  17
ENDBRANCH   1  14
TORSDOF 7
ENDMDL
MODEL 7
REMARK VINA RESULT:      -5.3      2.397      3.571
REMARK  Name = 53471836
REMARK  7 active torsions:
REMARK  status: ('A' for Active; 'I' for Inactive)
REMARK    1  A    between atoms: C_1  and  C_14
REMARK    2  A    between atoms: C_4  and  O_7
REMARK    3  A    between atoms: C_5  and  O_9
REMARK    4  A    between atoms: O_9  and  S_10
REMARK    5  A    between atoms: C_14  and  O_15
REMARK    6  A    between atoms: C_14  and  C_17
REMARK    7  A    between atoms: C_17  and  N_18
REMARK                            x       y       z     vdW  Elec       q    Type
REMARK                         _______ _______ _______ _____ _____    ______ ____
ROOT
ATOM      1  C   UNL     1     -36.134  25.094   3.858  0.00  0.00    +0.005 C 
ATOM      2  C   UNL     1     -34.925  25.195   3.169  0.00  0.00    +0.038 C 
ATOM      3  C   UNL     1     -36.215  25.504   5.188  0.00  0.00    +0.001 C 
ATOM      4  C   UNL     1     -33.797  25.708   3.812  0.00  0.00    +0.170 C 
ATOM      5  C   UNL     1     -33.878  26.118   5.142  0.00  0.00    +0.209 C 
ATOM      6  C   UNL     1     -35.088  26.017   5.831  0.00  0.00    +0.043 C 
ENDROOT
BRANCH   4   7
ATOM      7  O   UNL     1     -32.623  25.804   3.127  0.00  0.00    -0.503 OA
ATOM      8  H   UNL     1     -32.097  25.042   2.989  0.00  0.00    +0.292 HD
ENDBRANCH   4   7
BRANCH   5   9
ATOM      9  O   UNL     1     -32.785  26.620   5.779  0.00  0.00    -0.319 OA
BRANCH   9  10
ATOM     10  S   UNL     1     -32.289  28.147   5.425  0.00  0.00    +0.282 S 
ATOM     11  O   UNL     1     -30.815  27.934   4.758  0.00  0.00    -0.105 OA
ATOM     12  O   UNL     1     -33.163  28.703   4.409  0.00  0.00    -0.105 OA
ATOM     13  O   UNL     1     -32.099  28.850   6.681  0.00  0.00    -0.012 OA
ENDBRANCH   9  10
ENDBRANCH   5   9
BRANCH   1  14
ATOM     14  C   UNL     1     -37.339  24.547   3.170  0.00  0.00    +0.112 C 
BRANCH  14  15
ATOM     15  O   UNL     1     -38.483  24.730   4.014  0.00  0.00    -0.382 OA
ATOM     16  H   UNL     1     -38.907  25.577   3.807  0.00  0.00    +0.211 HD
ENDBRANCH  14  15
BRANCH  14  17
ATOM     17  C   UNL     1     -37.189  23.052   2.829  0.00  0.00    -0.047 C 
BRANCH  17  18
ATOM     18  N   UNL     1     -36.647  22.295   3.956  0.00  0.00    +0.384 N 
ATOM     19  C   UNL     1     -35.573  21.417   3.518  0.00  0.00    -0.106 C 
ATOM     20  H   UNL     1     -37.391  21.733   4.370  0.00  0.00    -0.085 HD
ATOM     21  H   UNL     1     -36.275  22.952   4.641  0.00  0.00    -0.085 HD
ENDBRANCH  17  18
ENDBRANCH  14  17
ENDBRANCH   1  14
TORSDOF 7
ENDMDL
MODEL 8
REMARK VINA RESULT:      -5.2      1.912      2.533
REMARK  Name = 53471836
REMARK  7 active torsions:
REMARK  status: ('A' for Active; 'I' for Inactive)
REMARK    1  A    between atoms: C_1  and  C_14
REMARK    2  A    between atoms: C_4  and  O_7
REMARK    3  A    between atoms: C_5  and  O_9
REMARK    4  A    between atoms: O_9  and  S_10
REMARK    5  A    between atoms: C_14  and  O_15
REMARK    6  A    between atoms: C_14  and  C_17
REMARK    7  A    between atoms: C_17  and  N_18
REMARK                            x       y       z     vdW  Elec       q    Type
REMARK                         _______ _______ _______ _____ _____    ______ ____
ROOT
ATOM      1  C   UNL     1     -35.764  23.472   3.872  0.00  0.00    +0.005 C 
ATOM      2  C   UNL     1     -36.353  24.392   4.741  0.00  0.00    +0.038 C 
ATOM      3  C   UNL     1     -34.686  23.854   3.077  0.00  0.00    +0.001 C 
ATOM      4  C   UNL     1     -35.861  25.695   4.812  0.00  0.00    +0.170 C 
ATOM      5  C   UNL     1     -34.782  26.079   4.015  0.00  0.00    +0.209 C 
ATOM      6  C   UNL     1     -34.194  25.158   3.148  0.00  0.00    +0.043 C 
ENDROOT
BRANCH   4   7
ATOM      7  O   UNL     1     -36.442  26.584   5.666  0.00  0.00    -0.503 OA
ATOM      8  H   UNL     1     -36.878  26.277   6.436  0.00  0.00    +0.292 HD
ENDBRANCH   4   7
BRANCH   5   9
ATOM      9  O   UNL     1     -34.293  27.348   4.077  0.00  0.00    -0.319 OA
BRANCH   9  10
ATOM     10  S   UNL     1     -32.888  27.621   4.886  0.00  0.00    +0.282 S 
ATOM     11  O   UNL     1     -31.732  27.222   3.805  0.00  0.00    -0.105 OA
ATOM     12  O   UNL     1     -32.770  29.040   5.163  0.00  0.00    -0.105 OA
ATOM     13  O   UNL     1     -32.813  26.662   5.973  0.00  0.00    -0.012 OA
ENDBRANCH   9  10
ENDBRANCH   5   9
BRANCH   1  14
ATOM     14  C   UNL     1     -36.289  22.078   3.797  0.00  0.00    +0.112 C 
BRANCH  14  15
ATOM     15  O   UNL     1     -35.425  21.211   4.544  0.00  0.00    -0.382 OA
ATOM     16  H   UNL     1     -34.502  21.462   4.389  0.00  0.00    +0.211 HD
ENDBRANCH  14  15
BRANCH  14  17
ATOM     17  C   UNL     1     -36.394  21.570   2.346  0.00  0.00    -0.047 C 
BRANCH  17  18
ATOM     18  N   UNL     1     -37.587  20.748   2.150  0.00  0.00    +0.384 N 
ATOM     19  C   UNL     1     -38.754  21.582   1.904  0.00  0.00    -0.106 C 
ATOM     20  H   UNL     1     -37.748  20.187   2.987  0.00  0.00    -0.085 HD
ATOM     21  H   UNL     1     -37.440  20.145   1.341  0.00  0.00    -0.085 HD
ENDBRANCH  17  18
ENDBRANCH  14  17
ENDBRANCH   1  14
TORSDOF 7
ENDMDL
MODEL 9
REMARK VINA RESULT:      -5.1      3.779      5.268
REMARK  Name = 53471836
REMARK  7 active torsions:
REMARK  status: ('A' for Active; 'I' for Inactive)
REMARK    1  A    between atoms: C_1  and  C_14
REMARK    2  A    between atoms: C_4  and  O_7
REMARK    3  A    between atoms: C_5  and  O_9
REMARK    4  A    between atoms: O_9  and  S_10
REMARK    5  A    between atoms: C_14  and  O_15
REMARK    6  A    between atoms: C_14  and  C_17
REMARK    7  A    between atoms: C_17  and  N_18
REMARK                            x       y       z     vdW  Elec       q    Type
REMARK                         _______ _______ _______ _____ _____    ______ ____
ROOT
ATOM      1  C   UNL     1     -35.138  25.996   4.972  0.00  0.00    +0.005 C 
ATOM      2  C   UNL     1     -34.249  26.084   6.045  0.00  0.00    +0.038 C 
ATOM      3  C   UNL     1     -34.889  26.707   3.800  0.00  0.00    +0.001 C 
ATOM      4  C   UNL     1     -33.111  26.885   5.942  0.00  0.00    +0.170 C 
ATOM      5  C   UNL     1     -32.863  27.598   4.769  0.00  0.00    +0.209 C 
ATOM      6  C   UNL     1     -33.752  27.509   3.698  0.00  0.00    +0.043 C 
ENDROOT
BRANCH   4   7
ATOM      7  O   UNL     1     -32.249  26.961   6.995  0.00  0.00    -0.503 OA
ATOM      8  H   UNL     1     -31.838  26.186   7.321  0.00  0.00    +0.292 HD
ENDBRANCH   4   7
BRANCH   5   9
ATOM      9  O   UNL     1     -31.756  28.383   4.658  0.00  0.00    -0.319 OA
BRANCH   9  10
ATOM     10  S   UNL     1     -31.835  29.946   5.162  0.00  0.00    +0.282 S 
ATOM     11  O   UNL     1     -31.699  29.841   6.785  0.00  0.00    -0.105 OA
ATOM     12  O   UNL     1     -30.677  30.663   4.663  0.00  0.00    -0.105 OA
ATOM     13  O   UNL     1     -33.171  30.435   4.870  0.00  0.00    -0.012 OA
ENDBRANCH   9  10
ENDBRANCH   5   9
BRANCH   1  14
ATOM     14  C   UNL     1     -36.352  25.137   5.082  0.00  0.00    +0.112 C 
BRANCH  14  15
ATOM     15  O   UNL     1     -35.973  23.850   5.585  0.00  0.00    -0.382 OA
ATOM     16  H   UNL     1     -35.098  23.613   5.242  0.00  0.00    +0.211 HD
ENDBRANCH  14  15
BRANCH  14  17
ATOM     17  C   UNL     1     -37.071  24.966   3.729  0.00  0.00    -0.047 C 
BRANCH  17  18
ATOM     18  N   UNL     1     -38.524  24.990   3.886  0.00  0.00    +0.384 N 
ATOM     19  C   UNL     1     -39.137  25.849   2.884  0.00  0.00    -0.106 C 
ATOM     20  H   UNL     1     -38.754  25.342   4.815  0.00  0.00    -0.085 HD
ATOM     21  H   UNL     1     -38.881  24.042   3.768  0.00  0.00    -0.085 HD
ENDBRANCH  17  18
ENDBRANCH  14  17
ENDBRANCH   1  14
TORSDOF 7
ENDMDL
