MODEL 1
REMARK VINA RESULT:      -6.5      0.000      0.000
REMARK  Name = 5287408
REMARK  12 active torsions:
REMARK  status: ('A' for Active; 'I' for Inactive)
REMARK    1  A    between atoms: CA_1  and  C_8
REMARK    2  A    between atoms: CA_1  and  N_14
REMARK    3  A    between atoms: CA_1  and  CB_28
REMARK    4  A    between atoms: CA_4  and  C_10
REMARK    5  A    between atoms: C_10  and  O_11
REMARK    6  A    between atoms: C_15  and  C_17
REMARK    7  A    between atoms: C_17  and  C_18
REMARK    8  A    between atoms: C_18  and  C_21
REMARK    9  A    between atoms: C_18  and  O_26
REMARK   10  A    between atoms: N_20  and  C_23
REMARK   11  A    between atoms: C_23  and  C_24
REMARK   12  A    between atoms: CB_28  and  CG1_30
REMARK                            x       y       z     vdW  Elec       q    Type
REMARK                         _______ _______ _______ _____ _____    ______ ____
ROOT
ATOM      1  CA  ILE A   1     -31.855  28.876   5.197  0.00  0.00    +0.149 C 
ENDROOT
BRANCH   1   8
ATOM      2  O   ILE A   1     -31.276  29.469   7.429  0.00  0.00    -0.273 OA
ATOM      3  N   ILE A   1     -29.594  28.604   6.096  0.00  0.00    -0.270 N 
ATOM      4  CA  ILE A   1     -28.582  28.517   7.140  0.00  0.00    +0.175 C 
ATOM      5  CB  ILE A   1     -27.497  27.621   6.555  0.00  0.00    +0.033 C 
ATOM      6  CD  ILE A   1     -29.098  28.058   4.835  0.00  0.00    +0.094 C 
ATOM      7  CG  ILE A   1     -27.604  27.868   5.052  0.00  0.00    +0.024 C 
ATOM      8  C   ILE A   1     -30.894  29.012   6.350  0.00  0.00    +0.244 C 
BRANCH   4  10
ATOM      9  OXT ILE A   1     -27.891  30.750   6.522  0.00  0.00    -0.248 OA
ATOM     10  C   ILE A   1     -28.080  29.908   7.387  0.00  0.00    +0.332 C 
BRANCH  10  11
ATOM     11  O   ILE A   1     -27.863  30.111   8.709  0.00  0.00    -0.479 OA
ATOM     12  H   ILE A   1     -28.499  29.831   9.337  0.00  0.00    +0.295 HD
ENDBRANCH  10  11
ENDBRANCH   4  10
ENDBRANCH   1   8
BRANCH   1  14
ATOM     13  O   UNK A   0     -32.709  26.473   3.825  0.00  0.00    -0.275 OA
ATOM     14  N   ILE A   1     -32.875  27.943   5.620  0.00  0.00    -0.298 N 
ATOM     15  C   UNK A   0     -33.214  26.815   4.891  0.00  0.00    +0.226 C 
ATOM     16  H   ILE A   1     -33.350  28.118   6.465  0.00  0.00    +0.150 HD
BRANCH  15  17
ATOM     17  C   UNK A   0     -34.297  25.990   5.559  0.00  0.00    +0.124 C 
BRANCH  17  18
ATOM     18  C   UNK A   0     -35.604  26.072   4.769  0.00  0.00    +0.196 C 
BRANCH  18  21
ATOM     19  O   UNK A   0     -37.367  24.467   4.382  0.00  0.00    -0.272 OA
ATOM     20  N   UNK A   0     -35.163  23.732   4.348  0.00  0.00    -0.302 N 
ATOM     21  C   UNK A   0     -36.161  24.684   4.487  0.00  0.00    +0.250 C 
ATOM     22  H   UNK A   0     -34.226  24.014   4.454  0.00  0.00    +0.150 HD
BRANCH  20  23
ATOM     23  C   UNK A   0     -35.436  22.343   4.057  0.00  0.00    +0.089 C 
BRANCH  23  24
ATOM     24  C   UNK A   0     -35.063  21.423   5.213  0.00  0.00    +0.021 C 
ATOM     25  C   UNK A   0     -35.389  22.026   6.573  0.00  0.00    +0.002 C 
ENDBRANCH  23  24
ENDBRANCH  20  23
ENDBRANCH  18  21
BRANCH  18  26
ATOM     26  O   UNK A   0     -36.548  26.806   5.533  0.00  0.00    -0.375 OA
ATOM     27  H   UNK A   0     -36.337  27.753   5.485  0.00  0.00    +0.211 HD
ENDBRANCH  18  26
ENDBRANCH  17  18
ENDBRANCH  15  17
ENDBRANCH   1  14
BRANCH   1  28
ATOM     28  CB  ILE A   1     -32.405  30.242   4.741  0.00  0.00    +0.027 C 
ATOM     29  CG2 ILE A   1     -31.263  31.265   4.661  0.00  0.00    +0.002 C 
BRANCH  28  30
ATOM     30  CG1 ILE A   1     -33.183  30.157   3.408  0.00  0.00    +0.002 C 
ATOM     31  CD1 ILE A   1     -34.385  31.092   3.346  0.00  0.00    +0.000 C 
ENDBRANCH  28  30
ENDBRANCH   1  28
TORSDOF 12
ENDMDL
MODEL 2
REMARK VINA RESULT:      -6.0      2.656      9.146
REMARK  Name = 5287408
REMARK  12 active torsions:
REMARK  status: ('A' for Active; 'I' for Inactive)
REMARK    1  A    between atoms: CA_1  and  C_8
REMARK    2  A    between atoms: CA_1  and  N_14
REMARK    3  A    between atoms: CA_1  and  CB_28
REMARK    4  A    between atoms: CA_4  and  C_10
REMARK    5  A    between atoms: C_10  and  O_11
REMARK    6  A    between atoms: C_15  and  C_17
REMARK    7  A    between atoms: C_17  and  C_18
REMARK    8  A    between atoms: C_18  and  C_21
REMARK    9  A    between atoms: C_18  and  O_26
REMARK   10  A    between atoms: N_20  and  C_23
REMARK   11  A    between atoms: C_23  and  C_24
REMARK   12  A    between atoms: CB_28  and  CG1_30
REMARK                            x       y       z     vdW  Elec       q    Type
REMARK                         _______ _______ _______ _____ _____    ______ ____
ROOT
ATOM      1  CA  ILE A   1     -35.622  23.403   3.189  0.00  0.00    +0.149 C 
ENDROOT
BRANCH   1   8
ATOM      2  O   ILE A   1     -37.217  24.640   4.451  0.00  0.00    -0.273 OA
ATOM      3  N   ILE A   1     -37.637  24.371   2.191  0.00  0.00    -0.270 N 
ATOM      4  CA  ILE A   1     -38.802  25.244   2.132  0.00  0.00    +0.175 C 
ATOM      5  CB  ILE A   1     -39.018  25.502   0.646  0.00  0.00    +0.033 C 
ATOM      6  CD  ILE A   1     -37.291  23.865   0.865  0.00  0.00    +0.094 C 
ATOM      7  CG  ILE A   1     -38.473  24.239  -0.017  0.00  0.00    +0.024 C 
ATOM      8  C   ILE A   1     -36.893  24.198   3.347  0.00  0.00    +0.244 C 
BRANCH   4  10
ATOM      9  OXT ILE A   1     -40.601  23.630   2.172  0.00  0.00    -0.248 OA
ATOM     10  C   ILE A   1     -39.948  24.493   2.739  0.00  0.00    +0.332 C 
BRANCH  10  11
ATOM     11  O   ILE A   1     -40.167  24.902   4.013  0.00  0.00    -0.479 OA
ATOM     12  H   ILE A   1     -40.391  24.277   4.674  0.00  0.00    +0.295 HD
ENDBRANCH  10  11
ENDBRANCH   4  10
ENDBRANCH   1   8
BRANCH   1  14
ATOM     13  O   UNK A   0     -34.426  25.641   1.793  0.00  0.00    -0.275 OA
ATOM     14  N   ILE A   1     -34.547  24.250   3.654  0.00  0.00    -0.298 N 
ATOM     15  C   UNK A   0     -34.041  25.303   2.909  0.00  0.00    +0.226 C 
ATOM     16  H   ILE A   1     -34.157  24.071   4.540  0.00  0.00    +0.150 HD
BRANCH  15  17
ATOM     17  C   UNK A   0     -32.932  26.049   3.627  0.00  0.00    +0.124 C 
BRANCH  17  18
ATOM     18  C   UNK A   0     -33.458  26.698   4.908  0.00  0.00    +0.196 C 
BRANCH  18  21
ATOM     19  O   UNK A   0     -32.936  28.964   4.253  0.00  0.00    -0.272 OA
ATOM     20  N   UNK A   0     -32.246  28.220   6.343  0.00  0.00    -0.302 N 
ATOM     21  C   UNK A   0     -32.856  28.082   5.106  0.00  0.00    +0.250 C 
ATOM     22  H   UNK A   0     -32.238  27.448   6.952  0.00  0.00    +0.150 HD
BRANCH  20  23
ATOM     23  C   UNK A   0     -31.619  29.447   6.778  0.00  0.00    +0.089 C 
BRANCH  23  24
ATOM     24  C   UNK A   0     -30.121  29.465   6.499  0.00  0.00    +0.021 C 
ATOM     25  C   UNK A   0     -29.728  30.512   5.466  0.00  0.00    +0.002 C 
ENDBRANCH  23  24
ENDBRANCH  20  23
ENDBRANCH  18  21
BRANCH  18  26
ATOM     26  O   UNK A   0     -34.869  26.813   4.809  0.00  0.00    -0.375 OA
ATOM     27  H   UNK A   0     -35.226  26.032   4.356  0.00  0.00    +0.211 HD
ENDBRANCH  18  26
ENDBRANCH  17  18
ENDBRANCH  15  17
ENDBRANCH   1  14
BRANCH   1  28
ATOM     28  CB  ILE A   1     -35.701  22.040   3.907  0.00  0.00    +0.027 C 
ATOM     29  CG2 ILE A   1     -35.366  20.911   2.922  0.00  0.00    +0.002 C 
BRANCH  28  30
ATOM     30  CG1 ILE A   1     -34.807  21.977   5.166  0.00  0.00    +0.002 C 
ATOM     31  CD1 ILE A   1     -35.587  22.096   6.469  0.00  0.00    +0.000 C 
ENDBRANCH  28  30
ENDBRANCH   1  28
TORSDOF 12
ENDMDL
MODEL 3
REMARK VINA RESULT:      -5.9      3.042      9.120
REMARK  Name = 5287408
REMARK  12 active torsions:
REMARK  status: ('A' for Active; 'I' for Inactive)
REMARK    1  A    between atoms: CA_1  and  C_8
REMARK    2  A    between atoms: CA_1  and  N_14
REMARK    3  A    between atoms: CA_1  and  CB_28
REMARK    4  A    between atoms: CA_4  and  C_10
REMARK    5  A    between atoms: C_10  and  O_11
REMARK    6  A    between atoms: C_15  and  C_17
REMARK    7  A    between atoms: C_17  and  C_18
REMARK    8  A    between atoms: C_18  and  C_21
REMARK    9  A    between atoms: C_18  and  O_26
REMARK   10  A    between atoms: N_20  and  C_23
REMARK   11  A    between atoms: C_23  and  C_24
REMARK   12  A    between atoms: CB_28  and  CG1_30
REMARK                            x       y       z     vdW  Elec       q    Type
REMARK                         _______ _______ _______ _____ _____    ______ ____
ROOT
ATOM      1  CA  ILE A   1     -35.660  23.468   3.156  0.00  0.00    +0.149 C 
ENDROOT
BRANCH   1   8
ATOM      2  O   ILE A   1     -37.244  24.663   4.472  0.00  0.00    -0.273 OA
ATOM      3  N   ILE A   1     -37.674  24.485   2.205  0.00  0.00    -0.270 N 
ATOM      4  CA  ILE A   1     -38.834  25.367   2.186  0.00  0.00    +0.175 C 
ATOM      5  CB  ILE A   1     -39.055  25.684   0.712  0.00  0.00    +0.033 C 
ATOM      6  CD  ILE A   1     -37.335  24.031   0.858  0.00  0.00    +0.094 C 
ATOM      7  CG  ILE A   1     -38.519  24.446  -0.003  0.00  0.00    +0.024 C 
ATOM      8  C   ILE A   1     -36.926  24.263   3.350  0.00  0.00    +0.244 C 
BRANCH   4  10
ATOM      9  OXT ILE A   1     -40.652  23.773   2.164  0.00  0.00    -0.248 OA
ATOM     10  C   ILE A   1     -39.982  24.598   2.767  0.00  0.00    +0.332 C 
BRANCH  10  11
ATOM     11  O   ILE A   1     -40.182  24.942   4.063  0.00  0.00    -0.479 OA
ATOM     12  H   ILE A   1     -41.023  24.822   4.456  0.00  0.00    +0.295 HD
ENDBRANCH  10  11
ENDBRANCH   4  10
ENDBRANCH   1   8
BRANCH   1  14
ATOM     13  O   UNK A   0     -34.499  25.735   1.778  0.00  0.00    -0.275 OA
ATOM     14  N   ILE A   1     -34.575  24.306   3.612  0.00  0.00    -0.298 N 
ATOM     15  C   UNK A   0     -34.087  25.374   2.878  0.00  0.00    +0.226 C 
ATOM     16  H   ILE A   1     -34.164  24.109   4.485  0.00  0.00    +0.150 HD
BRANCH  15  17
ATOM     17  C   UNK A   0     -32.962  26.106   3.584  0.00  0.00    +0.124 C 
BRANCH  17  18
ATOM     18  C   UNK A   0     -33.484  26.836   4.822  0.00  0.00    +0.196 C 
BRANCH  18  21
ATOM     19  O   UNK A   0     -32.305  28.671   5.860  0.00  0.00    -0.272 OA
ATOM     20  N   UNK A   0     -33.220  28.987   3.748  0.00  0.00    -0.302 N 
ATOM     21  C   UNK A   0     -32.938  28.255   4.892  0.00  0.00    +0.250 C 
ATOM     22  H   UNK A   0     -33.737  28.556   3.030  0.00  0.00    +0.150 HD
BRANCH  20  23
ATOM     23  C   UNK A   0     -32.792  30.354   3.563  0.00  0.00    +0.089 C 
BRANCH  23  24
ATOM     24  C   UNK A   0     -33.952  31.289   3.248  0.00  0.00    +0.021 C 
ATOM     25  C   UNK A   0     -35.254  30.544   2.987  0.00  0.00    +0.002 C 
ENDBRANCH  23  24
ENDBRANCH  20  23
ENDBRANCH  18  21
BRANCH  18  26
ATOM     26  O   UNK A   0     -34.901  26.885   4.752  0.00  0.00    -0.375 OA
ATOM     27  H   UNK A   0     -35.234  27.531   5.395  0.00  0.00    +0.211 HD
ENDBRANCH  18  26
ENDBRANCH  17  18
ENDBRANCH  15  17
ENDBRANCH   1  14
BRANCH   1  28
ATOM     28  CB  ILE A   1     -35.728  22.095   3.854  0.00  0.00    +0.027 C 
ATOM     29  CG2 ILE A   1     -35.402  20.981   2.850  0.00  0.00    +0.002 C 
BRANCH  28  30
ATOM     30  CG1 ILE A   1     -34.821  22.015   5.102  0.00  0.00    +0.002 C 
ATOM     31  CD1 ILE A   1     -35.583  22.140   6.416  0.00  0.00    +0.000 C 
ENDBRANCH  28  30
ENDBRANCH   1  28
TORSDOF 12
ENDMDL
MODEL 4
REMARK VINA RESULT:      -5.9      3.934      6.597
REMARK  Name = 5287408
REMARK  12 active torsions:
REMARK  status: ('A' for Active; 'I' for Inactive)
REMARK    1  A    between atoms: CA_1  and  C_8
REMARK    2  A    between atoms: CA_1  and  N_14
REMARK    3  A    between atoms: CA_1  and  CB_28
REMARK    4  A    between atoms: CA_4  and  C_10
REMARK    5  A    between atoms: C_10  and  O_11
REMARK    6  A    between atoms: C_15  and  C_17
REMARK    7  A    between atoms: C_17  and  C_18
REMARK    8  A    between atoms: C_18  and  C_21
REMARK    9  A    between atoms: C_18  and  O_26
REMARK   10  A    between atoms: N_20  and  C_23
REMARK   11  A    between atoms: C_23  and  C_24
REMARK   12  A    between atoms: CB_28  and  CG1_30
REMARK                            x       y       z     vdW  Elec       q    Type
REMARK                         _______ _______ _______ _____ _____    ______ ____
ROOT
ATOM      1  CA  ILE A   1     -35.099  24.844   3.620  0.00  0.00    +0.149 C 
ENDROOT
BRANCH   1   8
ATOM      2  O   ILE A   1     -32.841  25.546   3.342  0.00  0.00    -0.273 OA
ATOM      3  N   ILE A   1     -34.495  26.984   2.596  0.00  0.00    -0.270 N 
ATOM      4  CA  ILE A   1     -33.603  27.951   1.968  0.00  0.00    +0.175 C 
ATOM      5  CB  ILE A   1     -34.512  28.800   1.089  0.00  0.00    +0.033 C 
ATOM      6  CD  ILE A   1     -35.894  27.340   2.380  0.00  0.00    +0.094 C 
ATOM      7  CG  ILE A   1     -35.856  28.751   1.813  0.00  0.00    +0.024 C 
ATOM      8  C   ILE A   1     -34.033  25.812   3.175  0.00  0.00    +0.244 C 
BRANCH   4  10
ATOM      9  OXT ILE A   1     -33.562  29.600   3.736  0.00  0.00    -0.248 OA
ATOM     10  C   ILE A   1     -32.981  28.757   3.068  0.00  0.00    +0.332 C 
BRANCH  10  11
ATOM     11  O   ILE A   1     -31.676  28.426   3.225  0.00  0.00    -0.479 OA
ATOM     12  H   ILE A   1     -31.367  27.590   2.937  0.00  0.00    +0.295 HD
ENDBRANCH  10  11
ENDBRANCH   4  10
ENDBRANCH   1   8
BRANCH   1  14
ATOM     13  O   UNK A   0     -37.168  24.207   1.697  0.00  0.00    -0.275 OA
ATOM     14  N   ILE A   1     -35.098  23.763   2.661  0.00  0.00    -0.298 N 
ATOM     15  C   UNK A   0     -36.140  23.538   1.776  0.00  0.00    +0.226 C 
ATOM     16  H   ILE A   1     -34.321  23.159   2.635  0.00  0.00    +0.150 HD
BRANCH  15  17
ATOM     17  C   UNK A   0     -35.888  22.356   0.861  0.00  0.00    +0.124 C 
BRANCH  17  18
ATOM     18  C   UNK A   0     -36.375  21.058   1.506  0.00  0.00    +0.196 C 
BRANCH  18  21
ATOM     19  O   UNK A   0     -35.007  20.258   3.329  0.00  0.00    -0.272 OA
ATOM     20  N   UNK A   0     -34.467  19.612   1.164  0.00  0.00    -0.302 N 
ATOM     21  C   UNK A   0     -35.217  20.282   2.118  0.00  0.00    +0.250 C 
ATOM     22  H   UNK A   0     -34.723  19.702   0.218  0.00  0.00    +0.150 HD
BRANCH  20  23
ATOM     23  C   UNK A   0     -33.327  18.789   1.495  0.00  0.00    +0.089 C 
BRANCH  23  24
ATOM     24  C   UNK A   0     -32.103  19.126   0.651  0.00  0.00    +0.021 C 
ATOM     25  C   UNK A   0     -30.987  18.101   0.797  0.00  0.00    +0.002 C 
ENDBRANCH  23  24
ENDBRANCH  20  23
ENDBRANCH  18  21
BRANCH  18  26
ATOM     26  O   UNK A   0     -37.308  21.384   2.526  0.00  0.00    -0.375 OA
ATOM     27  H   UNK A   0     -36.839  21.500   3.368  0.00  0.00    +0.211 HD
ENDBRANCH  18  26
ENDBRANCH  17  18
ENDBRANCH  15  17
ENDBRANCH   1  14
BRANCH   1  28
ATOM     28  CB  ILE A   1     -34.891  24.387   5.079  0.00  0.00    +0.027 C 
ATOM     29  CG2 ILE A   1     -35.021  25.589   6.025  0.00  0.00    +0.002 C 
BRANCH  28  30
ATOM     30  CG1 ILE A   1     -35.844  23.241   5.486  0.00  0.00    +0.002 C 
ATOM     31  CD1 ILE A   1     -35.167  22.155   6.313  0.00  0.00    +0.000 C 
ENDBRANCH  28  30
ENDBRANCH   1  28
TORSDOF 12
ENDMDL
MODEL 5
REMARK VINA RESULT:      -5.9      4.304      7.123
REMARK  Name = 5287408
REMARK  12 active torsions:
REMARK  status: ('A' for Active; 'I' for Inactive)
REMARK    1  A    between atoms: CA_1  and  C_8
REMARK    2  A    between atoms: CA_1  and  N_14
REMARK    3  A    between atoms: CA_1  and  CB_28
REMARK    4  A    between atoms: CA_4  and  C_10
REMARK    5  A    between atoms: C_10  and  O_11
REMARK    6  A    between atoms: C_15  and  C_17
REMARK    7  A    between atoms: C_17  and  C_18
REMARK    8  A    between atoms: C_18  and  C_21
REMARK    9  A    between atoms: C_18  and  O_26
REMARK   10  A    between atoms: N_20  and  C_23
REMARK   11  A    between atoms: C_23  and  C_24
REMARK   12  A    between atoms: CB_28  and  CG1_30
REMARK                            x       y       z     vdW  Elec       q    Type
REMARK                         _______ _______ _______ _____ _____    ______ ____
ROOT
ATOM      1  CA  ILE A   1     -35.087  24.475   3.703  0.00  0.00    +0.149 C 
ENDROOT
BRANCH   1   8
ATOM      2  O   ILE A   1     -32.962  25.464   3.283  0.00  0.00    -0.273 OA
ATOM      3  N   ILE A   1     -34.824  26.575   2.472  0.00  0.00    -0.270 N 
ATOM      4  CA  ILE A   1     -34.098  27.596   1.729  0.00  0.00    +0.175 C 
ATOM      5  CB  ILE A   1     -35.140  28.221   0.810  0.00  0.00    +0.033 C 
ATOM      6  CD  ILE A   1     -36.265  26.705   2.275  0.00  0.00    +0.094 C 
ATOM      7  CG  ILE A   1     -36.446  28.048   1.583  0.00  0.00    +0.024 C 
ATOM      8  C   ILE A   1     -34.184  25.540   3.136  0.00  0.00    +0.244 C 
BRANCH   4  10
ATOM      9  OXT ILE A   1     -34.258  29.384   3.348  0.00  0.00    -0.248 OA
ATOM     10  C   ILE A   1     -33.574  28.583   2.729  0.00  0.00    +0.332 C 
BRANCH  10  11
ATOM     11  O   ILE A   1     -32.230  28.467   2.857  0.00  0.00    -0.479 OA
ATOM     12  H   ILE A   1     -31.864  28.097   3.636  0.00  0.00    +0.295 HD
ENDBRANCH  10  11
ENDBRANCH   4  10
ENDBRANCH   1   8
BRANCH   1  14
ATOM     13  O   UNK A   0     -37.153  22.952   2.362  0.00  0.00    -0.275 OA
ATOM     14  N   ILE A   1     -34.911  23.304   2.875  0.00  0.00    -0.298 N 
ATOM     15  C   UNK A   0     -35.968  22.641   2.272  0.00  0.00    +0.226 C 
ATOM     16  H   ILE A   1     -33.999  22.962   2.732  0.00  0.00    +0.150 HD
BRANCH  15  17
ATOM     17  C   UNK A   0     -35.519  21.456   1.440  0.00  0.00    +0.124 C 
BRANCH  17  18
ATOM     18  C   UNK A   0     -36.603  20.379   1.401  0.00  0.00    +0.196 C 
BRANCH  18  21
ATOM     19  O   UNK A   0     -36.957  18.975  -0.532  0.00  0.00    -0.272 OA
ATOM     20  N   UNK A   0     -35.026  18.676   0.724  0.00  0.00    -0.302 N 
ATOM     21  C   UNK A   0     -36.240  19.271   0.421  0.00  0.00    +0.250 C 
ATOM     22  H   UNK A   0     -34.532  18.990   1.515  0.00  0.00    +0.150 HD
BRANCH  20  23
ATOM     23  C   UNK A   0     -34.452  17.612  -0.068  0.00  0.00    +0.089 C 
BRANCH  23  24
ATOM     24  C   UNK A   0     -33.042  17.250   0.380  0.00  0.00    +0.021 C 
ATOM     25  C   UNK A   0     -32.498  18.200   1.438  0.00  0.00    +0.002 C 
ENDBRANCH  23  24
ENDBRANCH  20  23
ENDBRANCH  18  21
BRANCH  18  26
ATOM     26  O   UNK A   0     -36.736  19.826   2.701  0.00  0.00    -0.375 OA
ATOM     27  H   UNK A   0     -35.935  19.325   2.923  0.00  0.00    +0.211 HD
ENDBRANCH  18  26
ENDBRANCH  17  18
ENDBRANCH  15  17
ENDBRANCH   1  14
BRANCH   1  28
ATOM     28  CB  ILE A   1     -34.818  24.229   5.202  0.00  0.00    +0.027 C 
ATOM     29  CG2 ILE A   1     -34.983  25.540   5.984  0.00  0.00    +0.002 C 
BRANCH  28  30
ATOM     30  CG1 ILE A   1     -35.700  23.104   5.789  0.00  0.00    +0.002 C 
ATOM     31  CD1 ILE A   1     -34.929  21.827   6.096  0.00  0.00    +0.000 C 
ENDBRANCH  28  30
ENDBRANCH   1  28
TORSDOF 12
ENDMDL
MODEL 6
REMARK VINA RESULT:      -5.8      5.420      8.649
REMARK  Name = 5287408
REMARK  12 active torsions:
REMARK  status: ('A' for Active; 'I' for Inactive)
REMARK    1  A    between atoms: CA_1  and  C_8
REMARK    2  A    between atoms: CA_1  and  N_14
REMARK    3  A    between atoms: CA_1  and  CB_28
REMARK    4  A    between atoms: CA_4  and  C_10
REMARK    5  A    between atoms: C_10  and  O_11
REMARK    6  A    between atoms: C_15  and  C_17
REMARK    7  A    between atoms: C_17  and  C_18
REMARK    8  A    between atoms: C_18  and  C_21
REMARK    9  A    between atoms: C_18  and  O_26
REMARK   10  A    between atoms: N_20  and  C_23
REMARK   11  A    between atoms: C_23  and  C_24
REMARK   12  A    between atoms: CB_28  and  CG1_30
REMARK                            x       y       z     vdW  Elec       q    Type
REMARK                         _______ _______ _______ _____ _____    ______ ____
ROOT
ATOM      1  CA  ILE A   1     -36.184  23.171   3.839  0.00  0.00    +0.149 C 
ENDROOT
BRANCH   1   8
ATOM      2  O   ILE A   1     -34.974  24.468   2.250  0.00  0.00    -0.273 OA
ATOM      3  N   ILE A   1     -37.184  25.048   2.627  0.00  0.00    -0.270 N 
ATOM      4  CA  ILE A   1     -37.274  26.053   1.575  0.00  0.00    +0.175 C 
ATOM      5  CB  ILE A   1     -38.767  26.303   1.406  0.00  0.00    +0.033 C 
ATOM      6  CD  ILE A   1     -38.472  24.862   3.289  0.00  0.00    +0.094 C 
ATOM      7  CG  ILE A   1     -39.337  26.011   2.793  0.00  0.00    +0.024 C 
ATOM      8  C   ILE A   1     -36.047  24.281   2.829  0.00  0.00    +0.244 C 
BRANCH   4  10
ATOM      9  OXT ILE A   1     -35.638  27.271   2.874  0.00  0.00    -0.248 OA
ATOM     10  C   ILE A   1     -36.557  27.274   2.069  0.00  0.00    +0.332 C 
BRANCH  10  11
ATOM     11  O   ILE A   1     -37.069  28.392   1.500  0.00  0.00    -0.479 OA
ATOM     12  H   ILE A   1     -37.992  28.552   1.527  0.00  0.00    +0.295 HD
ENDBRANCH  10  11
ENDBRANCH   4  10
ENDBRANCH   1   8
BRANCH   1  14
ATOM     13  O   UNK A   0     -37.295  21.252   1.977  0.00  0.00    -0.275 OA
ATOM     14  N   ILE A   1     -35.522  22.017   3.273  0.00  0.00    -0.298 N 
ATOM     15  C   UNK A   0     -36.141  21.153   2.385  0.00  0.00    +0.226 C 
ATOM     16  H   ILE A   1     -34.588  21.838   3.531  0.00  0.00    +0.150 HD
BRANCH  15  17
ATOM     17  C   UNK A   0     -35.227  20.035   1.922  0.00  0.00    +0.124 C 
BRANCH  17  18
ATOM     18  C   UNK A   0     -35.787  19.362   0.669  0.00  0.00    +0.196 C 
BRANCH  18  21
ATOM     19  O   UNK A   0     -34.861  18.009  -1.105  0.00  0.00    -0.272 OA
ATOM     20  N   UNK A   0     -33.733  18.112   0.923  0.00  0.00    -0.302 N 
ATOM     21  C   UNK A   0     -34.764  18.420   0.050  0.00  0.00    +0.250 C 
ATOM     22  H   UNK A   0     -33.754  18.495   1.829  0.00  0.00    +0.150 HD
BRANCH  20  23
ATOM     23  C   UNK A   0     -32.628  17.252   0.564  0.00  0.00    +0.089 C 
BRANCH  23  24
ATOM     24  C   UNK A   0     -31.277  17.929   0.764  0.00  0.00    +0.021 C 
ATOM     25  C   UNK A   0     -31.252  19.359   0.244  0.00  0.00    +0.002 C 
ENDBRANCH  23  24
ENDBRANCH  20  23
ENDBRANCH  18  21
BRANCH  18  26
ATOM     26  O   UNK A   0     -36.942  18.622   1.032  0.00  0.00    -0.375 OA
ATOM     27  H   UNK A   0     -37.627  18.738   0.354  0.00  0.00    +0.211 HD
ENDBRANCH  18  26
ENDBRANCH  17  18
ENDBRANCH  15  17
ENDBRANCH   1  14
BRANCH   1  28
ATOM     28  CB  ILE A   1     -35.648  23.583   5.226  0.00  0.00    +0.027 C 
ATOM     29  CG2 ILE A   1     -35.395  22.333   6.080  0.00  0.00    +0.002 C 
BRANCH  28  30
ATOM     30  CG1 ILE A   1     -34.388  24.473   5.138  0.00  0.00    +0.002 C 
ATOM     31  CD1 ILE A   1     -34.539  25.810   5.853  0.00  0.00    +0.000 C 
ENDBRANCH  28  30
ENDBRANCH   1  28
TORSDOF 12
ENDMDL
MODEL 7
REMARK VINA RESULT:      -5.8      2.617      8.384
REMARK  Name = 5287408
REMARK  12 active torsions:
REMARK  status: ('A' for Active; 'I' for Inactive)
REMARK    1  A    between atoms: CA_1  and  C_8
REMARK    2  A    between atoms: CA_1  and  N_14
REMARK    3  A    between atoms: CA_1  and  CB_28
REMARK    4  A    between atoms: CA_4  and  C_10
REMARK    5  A    between atoms: C_10  and  O_11
REMARK    6  A    between atoms: C_15  and  C_17
REMARK    7  A    between atoms: C_17  and  C_18
REMARK    8  A    between atoms: C_18  and  C_21
REMARK    9  A    between atoms: C_18  and  O_26
REMARK   10  A    between atoms: N_20  and  C_23
REMARK   11  A    between atoms: C_23  and  C_24
REMARK   12  A    between atoms: CB_28  and  CG1_30
REMARK                            x       y       z     vdW  Elec       q    Type
REMARK                         _______ _______ _______ _____ _____    ______ ____
ROOT
ATOM      1  CA  ILE A   1     -34.235  25.292   3.636  0.00  0.00    +0.149 C 
ENDROOT
BRANCH   1   8
ATOM      2  O   ILE A   1     -36.000  26.886   3.526  0.00  0.00    -0.273 OA
ATOM      3  N   ILE A   1     -36.342  24.856   2.467  0.00  0.00    -0.270 N 
ATOM      4  CA  ILE A   1     -37.610  25.207   1.840  0.00  0.00    +0.175 C 
ATOM      5  CB  ILE A   1     -37.833  24.128   0.788  0.00  0.00    +0.033 C 
ATOM      6  CD  ILE A   1     -35.910  23.519   2.070  0.00  0.00    +0.094 C 
ATOM      7  CG  ILE A   1     -37.116  22.911   1.368  0.00  0.00    +0.024 C 
ATOM      8  C   ILE A   1     -35.601  25.764   3.208  0.00  0.00    +0.244 C 
BRANCH   4  10
ATOM      9  OXT ILE A   1     -39.203  24.152   3.321  0.00  0.00    -0.248 OA
ATOM     10  C   ILE A   1     -38.659  25.166   2.910  0.00  0.00    +0.332 C 
BRANCH  10  11
ATOM     11  O   ILE A   1     -38.927  26.413   3.367  0.00  0.00    -0.479 OA
ATOM     12  H   ILE A   1     -38.690  26.654   4.240  0.00  0.00    +0.295 HD
ENDBRANCH  10  11
ENDBRANCH   4  10
ENDBRANCH   1   8
BRANCH   1  14
ATOM     13  O   UNK A   0     -32.804  25.614   1.139  0.00  0.00    -0.275 OA
ATOM     14  N   ILE A   1     -33.309  26.346   3.289  0.00  0.00    -0.298 N 
ATOM     15  C   UNK A   0     -32.671  26.415   2.062  0.00  0.00    +0.226 C 
ATOM     16  H   ILE A   1     -33.124  27.046   3.956  0.00  0.00    +0.150 HD
BRANCH  15  17
ATOM     17  C   UNK A   0     -31.767  27.626   1.939  0.00  0.00    +0.124 C 
BRANCH  17  18
ATOM     18  C   UNK A   0     -30.345  27.288   2.389  0.00  0.00    +0.196 C 
BRANCH  18  21
ATOM     19  O   UNK A   0     -29.092  27.690   4.414  0.00  0.00    -0.272 OA
ATOM     20  N   UNK A   0     -30.695  29.243   3.769  0.00  0.00    -0.302 N 
ATOM     21  C   UNK A   0     -29.965  28.072   3.638  0.00  0.00    +0.250 C 
ATOM     22  H   UNK A   0     -31.374  29.452   3.088  0.00  0.00    +0.150 HD
BRANCH  20  23
ATOM     23  C   UNK A   0     -30.505  30.170   4.861  0.00  0.00    +0.089 C 
BRANCH  23  24
ATOM     24  C   UNK A   0     -31.727  30.261   5.765  0.00  0.00    +0.021 C 
ATOM     25  C   UNK A   0     -31.783  29.142   6.795  0.00  0.00    +0.002 C 
ENDBRANCH  23  24
ENDBRANCH  20  23
ENDBRANCH  18  21
BRANCH  18  26
ATOM     26  O   UNK A   0     -30.280  25.899   2.673  0.00  0.00    -0.375 OA
ATOM     27  H   UNK A   0     -29.674  25.749   3.416  0.00  0.00    +0.211 HD
ENDBRANCH  18  26
ENDBRANCH  17  18
ENDBRANCH  15  17
ENDBRANCH   1  14
BRANCH   1  28
ATOM     28  CB  ILE A   1     -34.203  24.894   5.126  0.00  0.00    +0.027 C 
ATOM     29  CG2 ILE A   1     -33.940  26.134   5.992  0.00  0.00    +0.002 C 
BRANCH  28  30
ATOM     30  CG1 ILE A   1     -35.483  24.153   5.573  0.00  0.00    +0.002 C 
ATOM     31  CD1 ILE A   1     -35.259  22.672   5.857  0.00  0.00    +0.000 C 
ENDBRANCH  28  30
ENDBRANCH   1  28
TORSDOF 12
ENDMDL
MODEL 8
REMARK VINA RESULT:      -5.8      3.272      9.150
REMARK  Name = 5287408
REMARK  12 active torsions:
REMARK  status: ('A' for Active; 'I' for Inactive)
REMARK    1  A    between atoms: CA_1  and  C_8
REMARK    2  A    between atoms: CA_1  and  N_14
REMARK    3  A    between atoms: CA_1  and  CB_28
REMARK    4  A    between atoms: CA_4  and  C_10
REMARK    5  A    between atoms: C_10  and  O_11
REMARK    6  A    between atoms: C_15  and  C_17
REMARK    7  A    between atoms: C_17  and  C_18
REMARK    8  A    between atoms: C_18  and  C_21
REMARK    9  A    between atoms: C_18  and  O_26
REMARK   10  A    between atoms: N_20  and  C_23
REMARK   11  A    between atoms: C_23  and  C_24
REMARK   12  A    between atoms: CB_28  and  CG1_30
REMARK                            x       y       z     vdW  Elec       q    Type
REMARK                         _______ _______ _______ _____ _____    ______ ____
ROOT
ATOM      1  CA  ILE A   1     -35.977  24.413   3.363  0.00  0.00    +0.149 C 
ENDROOT
BRANCH   1   8
ATOM      2  O   ILE A   1     -38.085  25.147   2.535  0.00  0.00    -0.273 OA
ATOM      3  N   ILE A   1     -37.408  23.010   1.957  0.00  0.00    -0.270 N 
ATOM      4  CA  ILE A   1     -38.502  22.733   1.034  0.00  0.00    +0.175 C 
ATOM      5  CB  ILE A   1     -38.047  21.506   0.253  0.00  0.00    +0.033 C 
ATOM      6  CD  ILE A   1     -36.451  21.907   1.986  0.00  0.00    +0.094 C 
ATOM      7  CG  ILE A   1     -37.138  20.774   1.237  0.00  0.00    +0.024 C 
ATOM      8  C   ILE A   1     -37.254  24.237   2.582  0.00  0.00    +0.244 C 
BRANCH   4  10
ATOM      9  OXT ILE A   1     -40.024  21.347   2.302  0.00  0.00    -0.248 OA
ATOM     10  C   ILE A   1     -39.717  22.446   1.864  0.00  0.00    +0.332 C 
BRANCH  10  11
ATOM     11  O   ILE A   1     -40.438  23.576   2.064  0.00  0.00    -0.479 OA
ATOM     12  H   ILE A   1     -40.063  24.412   1.868  0.00  0.00    +0.295 HD
ENDBRANCH  10  11
ENDBRANCH   4  10
ENDBRANCH   1   8
BRANCH   1  14
ATOM     13  O   UNK A   0     -33.809  24.421   1.443  0.00  0.00    -0.275 OA
ATOM     14  N   ILE A   1     -35.309  25.566   2.804  0.00  0.00    -0.298 N 
ATOM     15  C   UNK A   0     -34.276  25.467   1.885  0.00  0.00    +0.226 C 
ATOM     16  H   ILE A   1     -35.601  26.462   3.088  0.00  0.00    +0.150 HD
BRANCH  15  17
ATOM     17  C   UNK A   0     -33.759  26.820   1.438  0.00  0.00    +0.124 C 
BRANCH  17  18
ATOM     18  C   UNK A   0     -32.695  27.340   2.405  0.00  0.00    +0.196 C 
BRANCH  18  21
ATOM     19  O   UNK A   0     -34.444  28.576   3.522  0.00  0.00    -0.272 OA
ATOM     20  N   UNK A   0     -32.248  29.300   3.749  0.00  0.00    -0.302 N 
ATOM     21  C   UNK A   0     -33.245  28.463   3.274  0.00  0.00    +0.250 C 
ATOM     22  H   UNK A   0     -31.317  29.118   3.487  0.00  0.00    +0.150 HD
BRANCH  20  23
ATOM     23  C   UNK A   0     -32.514  30.428   4.613  0.00  0.00    +0.089 C 
BRANCH  23  24
ATOM     24  C   UNK A   0     -31.680  30.392   5.888  0.00  0.00    +0.021 C 
ATOM     25  C   UNK A   0     -31.805  29.072   6.636  0.00  0.00    +0.002 C 
ENDBRANCH  23  24
ENDBRANCH  20  23
ENDBRANCH  18  21
BRANCH  18  26
ATOM     26  O   UNK A   0     -32.279  26.268   3.237  0.00  0.00    -0.375 OA
ATOM     27  H   UNK A   0     -31.703  26.609   3.940  0.00  0.00    +0.211 HD
ENDBRANCH  18  26
ENDBRANCH  17  18
ENDBRANCH  15  17
ENDBRANCH   1  14
BRANCH   1  28
ATOM     28  CB  ILE A   1     -36.237  24.514   4.880  0.00  0.00    +0.027 C 
ATOM     29  CG2 ILE A   1     -35.518  23.371   5.611  0.00  0.00    +0.002 C 
BRANCH  28  30
ATOM     30  CG1 ILE A   1     -35.847  25.891   5.461  0.00  0.00    +0.002 C 
ATOM     31  CD1 ILE A   1     -34.414  25.948   5.976  0.00  0.00    +0.000 C 
ENDBRANCH  28  30
ENDBRANCH   1  28
TORSDOF 12
ENDMDL
MODEL 9
REMARK VINA RESULT:      -5.7      2.655      4.226
REMARK  Name = 5287408
REMARK  12 active torsions:
REMARK  status: ('A' for Active; 'I' for Inactive)
REMARK    1  A    between atoms: CA_1  and  C_8
REMARK    2  A    between atoms: CA_1  and  N_14
REMARK    3  A    between atoms: CA_1  and  CB_28
REMARK    4  A    between atoms: CA_4  and  C_10
REMARK    5  A    between atoms: C_10  and  O_11
REMARK    6  A    between atoms: C_15  and  C_17
REMARK    7  A    between atoms: C_17  and  C_18
REMARK    8  A    between atoms: C_18  and  C_21
REMARK    9  A    between atoms: C_18  and  O_26
REMARK   10  A    between atoms: N_20  and  C_23
REMARK   11  A    between atoms: C_23  and  C_24
REMARK   12  A    between atoms: CB_28  and  CG1_30
REMARK                            x       y       z     vdW  Elec       q    Type
REMARK                         _______ _______ _______ _____ _____    ______ ____
ROOT
ATOM      1  CA  ILE A   1     -33.212  27.026   3.415  0.00  0.00    +0.149 C 
ENDROOT
BRANCH   1   8
ATOM      2  O   ILE A   1     -34.279  29.065   2.804  0.00  0.00    -0.273 OA
ATOM      3  N   ILE A   1     -32.463  29.209   4.232  0.00  0.00    -0.270 N 
ATOM      4  CA  ILE A   1     -32.578  30.636   4.505  0.00  0.00    +0.175 C 
ATOM      5  CB  ILE A   1     -31.693  30.869   5.723  0.00  0.00    +0.033 C 
ATOM      6  CD  ILE A   1     -31.384  28.609   5.012  0.00  0.00    +0.094 C 
ATOM      7  CG  ILE A   1     -30.621  29.789   5.596  0.00  0.00    +0.024 C 
ATOM      8  C   ILE A   1     -33.380  28.524   3.450  0.00  0.00    +0.244 C 
BRANCH   4  10
ATOM      9  OXT ILE A   1     -30.888  31.449   2.979  0.00  0.00    -0.248 OA
ATOM     10  C   ILE A   1     -32.065  31.359   3.297  0.00  0.00    +0.332 C 
BRANCH  10  11
ATOM     11  O   ILE A   1     -33.088  31.907   2.597  0.00  0.00    -0.479 OA
ATOM     12  H   ILE A   1     -33.257  31.629   1.718  0.00  0.00    +0.295 HD
ENDBRANCH  10  11
ENDBRANCH   4  10
ENDBRANCH   1   8
BRANCH   1  14
ATOM     13  O   UNK A   0     -33.846  26.493   6.190  0.00  0.00    -0.275 OA
ATOM     14  N   ILE A   1     -34.436  26.464   3.940  0.00  0.00    -0.298 N 
ATOM     15  C   UNK A   0     -34.647  26.246   5.291  0.00  0.00    +0.226 C 
ATOM     16  H   ILE A   1     -35.152  26.225   3.307  0.00  0.00    +0.150 HD
BRANCH  15  17
ATOM     17  C   UNK A   0     -36.017  25.667   5.585  0.00  0.00    +0.124 C 
BRANCH  17  18
ATOM     18  C   UNK A   0     -36.472  24.749   4.450  0.00  0.00    +0.196 C 
BRANCH  18  21
ATOM     19  O   UNK A   0     -36.099  22.815   5.849  0.00  0.00    -0.272 OA
ATOM     20  N   UNK A   0     -35.714  22.630   3.566  0.00  0.00    -0.302 N 
ATOM     21  C   UNK A   0     -36.075  23.305   4.721  0.00  0.00    +0.250 C 
ATOM     22  H   UNK A   0     -35.728  23.119   2.712  0.00  0.00    +0.150 HD
BRANCH  20  23
ATOM     23  C   UNK A   0     -35.316  21.241   3.557  0.00  0.00    +0.089 C 
BRANCH  23  24
ATOM     24  C   UNK A   0     -35.662  20.546   2.246  0.00  0.00    +0.021 C 
ATOM     25  C   UNK A   0     -34.471  19.828   1.628  0.00  0.00    +0.002 C 
ENDBRANCH  23  24
ENDBRANCH  20  23
ENDBRANCH  18  21
BRANCH  18  26
ATOM     26  O   UNK A   0     -37.885  24.831   4.343  0.00  0.00    -0.375 OA
ATOM     27  H   UNK A   0     -38.293  24.275   5.025  0.00  0.00    +0.211 HD
ENDBRANCH  18  26
ENDBRANCH  17  18
ENDBRANCH  15  17
ENDBRANCH   1  14
BRANCH   1  28
ATOM     28  CB  ILE A   1     -32.844  26.520   2.005  0.00  0.00    +0.027 C 
ATOM     29  CG2 ILE A   1     -31.324  26.334   1.897  0.00  0.00    +0.002 C 
BRANCH  28  30
ATOM     30  CG1 ILE A   1     -33.601  25.230   1.618  0.00  0.00    +0.002 C 
ATOM     31  CD1 ILE A   1     -32.997  24.508   0.420  0.00  0.00    +0.000 C 
ENDBRANCH  28  30
ENDBRANCH   1  28
TORSDOF 12
ENDMDL
