MODEL 1
REMARK VINA RESULT:      -6.5      0.000      0.000
REMARK  Name = 58421399
REMARK  8 active torsions:
REMARK  status: ('A' for Active; 'I' for Inactive)
REMARK    1  A    between atoms: C_4  and  O_18
REMARK    2  A    between atoms: C_5  and  N_9
REMARK    3  A    between atoms: C_6  and  C_24
REMARK    4  A    between atoms: O_18  and  C_20
REMARK    5  A    between atoms: C_20  and  C_21
REMARK    6  A    between atoms: C_24  and  O_25
REMARK    7  A    between atoms: O_25  and  C_27
REMARK    8  A    between atoms: C_27  and  C_28
REMARK                            x       y       z     vdW  Elec       q    Type
REMARK                         _______ _______ _______ _____ _____    ______ ____
ROOT
ATOM      1  F   UNL     1     -36.304  26.258   4.962  0.00  0.00    -0.232 F 
ATOM      2  O   UNL     1     -34.279  24.172   4.496  0.00  0.00    -0.329 OA
ATOM      3  C   UNL     1     -35.835  25.807   3.762  0.00  0.00    +0.216 C 
ATOM      4  C   UNL     1     -36.408  24.428   3.511  0.00  0.00    +0.233 C 
ATOM      5  C   UNL     1     -34.353  25.484   3.904  0.00  0.00    +0.241 C 
ATOM      6  C   UNL     1     -35.598  23.596   4.494  0.00  0.00    +0.203 C 
ATOM      7  C   UNL     1     -36.161  26.845   2.709  0.00  0.00    +0.044 C 
ENDROOT
BRANCH   5   9
ATOM      8  O   UNL     1     -32.978  27.759   2.972  0.00  0.00    -0.193 OA
ATOM      9  N   UNL     1     -33.639  26.415   4.727  0.00  0.00    -0.178 N 
ATOM     10  N   UNL     1     -32.298  28.400   5.040  0.00  0.00    -0.306 NA
ATOM     11  N   UNL     1     -31.606  29.052   7.162  0.00  0.00    -0.332 N 
ATOM     12  C   UNL     1     -33.605  26.207   6.099  0.00  0.00    +0.083 C 
ATOM     13  C   UNL     1     -32.968  27.543   4.185  0.00  0.00    +0.276 C 
ATOM     14  C   UNL     1     -32.966  27.019   6.938  0.00  0.00    +0.065 C 
ATOM     15  C   UNL     1     -32.277  28.187   6.329  0.00  0.00    +0.193 C 
ATOM     16  H   UNL     1     -31.139  29.834   6.787  0.00  0.00    +0.145 HD
ATOM     17  H   UNL     1     -31.591  28.889   8.132  0.00  0.00    +0.145 HD
ENDBRANCH   5   9
BRANCH   4  18
ATOM     18  O   UNL     1     -37.793  24.346   3.780  0.00  0.00    -0.447 OA
BRANCH  18  20
ATOM     19  O   UNL     1     -38.627  22.595   2.532  0.00  0.00    -0.250 OA
ATOM     20  C   UNL     1     -38.571  23.789   2.794  0.00  0.00    +0.316 C 
BRANCH  20  21
ATOM     21  C   UNL     1     -39.345  24.873   2.063  0.00  0.00    +0.099 C 
ATOM     22  C   UNL     1     -40.471  24.245   1.252  0.00  0.00    +0.012 C 
ATOM     23  C   UNL     1     -39.890  25.905   3.047  0.00  0.00    +0.012 C 
ENDBRANCH  20  21
ENDBRANCH  18  20
ENDBRANCH   4  18
BRANCH   6  24
ATOM     24  C   UNL     1     -35.515  22.128   4.116  0.00  0.00    +0.242 C 
BRANCH  24  25
ATOM     25  O   UNL     1     -35.292  22.027   2.719  0.00  0.00    -0.446 OA
BRANCH  25  27
ATOM     26  O   UNL     1     -36.265  19.954   2.442  0.00  0.00    -0.250 OA
ATOM     27  C   UNL     1     -35.387  20.767   2.185  0.00  0.00    +0.316 C 
BRANCH  27  28
ATOM     28  C   UNL     1     -34.229  20.520   1.231  0.00  0.00    +0.099 C 
ATOM     29  C   UNL     1     -33.654  19.130   1.469  0.00  0.00    +0.012 C 
ATOM     30  C   UNL     1     -34.679  20.686  -0.218  0.00  0.00    +0.012 C 
ENDBRANCH  27  28
ENDBRANCH  25  27
ENDBRANCH  24  25
ENDBRANCH   6  24
TORSDOF 8
ENDMDL
MODEL 2
REMARK VINA RESULT:      -6.4      0.921      1.347
REMARK  Name = 58421399
REMARK  8 active torsions:
REMARK  status: ('A' for Active; 'I' for Inactive)
REMARK    1  A    between atoms: C_4  and  O_18
REMARK    2  A    between atoms: C_5  and  N_9
REMARK    3  A    between atoms: C_6  and  C_24
REMARK    4  A    between atoms: O_18  and  C_20
REMARK    5  A    between atoms: C_20  and  C_21
REMARK    6  A    between atoms: C_24  and  O_25
REMARK    7  A    between atoms: O_25  and  C_27
REMARK    8  A    between atoms: C_27  and  C_28
REMARK                            x       y       z     vdW  Elec       q    Type
REMARK                         _______ _______ _______ _____ _____    ______ ____
ROOT
ATOM      1  F   UNL     1     -36.302  26.316   5.139  0.00  0.00    -0.232 F 
ATOM      2  O   UNL     1     -34.376  24.127   4.729  0.00  0.00    -0.329 OA
ATOM      3  C   UNL     1     -35.891  25.780   3.952  0.00  0.00    +0.216 C 
ATOM      4  C   UNL     1     -36.525  24.414   3.798  0.00  0.00    +0.233 C 
ATOM      5  C   UNL     1     -34.418  25.406   4.067  0.00  0.00    +0.241 C 
ATOM      6  C   UNL     1     -35.715  23.606   4.800  0.00  0.00    +0.203 C 
ATOM      7  C   UNL     1     -36.210  26.771   2.853  0.00  0.00    +0.044 C 
ENDROOT
BRANCH   5   9
ATOM      8  O   UNL     1     -32.918  27.517   2.958  0.00  0.00    -0.193 OA
ATOM      9  N   UNL     1     -33.641  26.351   4.813  0.00  0.00    -0.178 N 
ATOM     10  N   UNL     1     -32.181  28.269   4.969  0.00  0.00    -0.306 NA
ATOM     11  N   UNL     1     -31.430  29.035   7.032  0.00  0.00    -0.332 N 
ATOM     12  C   UNL     1     -33.607  26.245   6.197  0.00  0.00    +0.083 C 
ATOM     13  C   UNL     1     -32.909  27.392   4.184  0.00  0.00    +0.276 C 
ATOM     14  C   UNL     1     -32.912  27.078   6.969  0.00  0.00    +0.065 C 
ATOM     15  C   UNL     1     -32.160  28.152   6.271  0.00  0.00    +0.193 C 
ATOM     16  H   UNL     1     -30.921  29.756   6.597  0.00  0.00    +0.145 HD
ATOM     17  H   UNL     1     -31.416  28.945   8.012  0.00  0.00    +0.145 HD
ENDBRANCH   5   9
BRANCH   4  18
ATOM     18  O   UNL     1     -37.902  24.404   4.113  0.00  0.00    -0.447 OA
BRANCH  18  20
ATOM     19  O   UNL     1     -39.760  25.131   2.955  0.00  0.00    -0.250 OA
ATOM     20  C   UNL     1     -38.770  24.417   3.047  0.00  0.00    +0.316 C 
BRANCH  20  21
ATOM     21  C   UNL     1     -38.329  23.406   2.003  0.00  0.00    +0.099 C 
ATOM     22  C   UNL     1     -39.200  22.159   2.094  0.00  0.00    +0.012 C 
ATOM     23  C   UNL     1     -38.389  24.013   0.603  0.00  0.00    +0.012 C 
ENDBRANCH  20  21
ENDBRANCH  18  20
ENDBRANCH   4  18
BRANCH   6  24
ATOM     24  C   UNL     1     -35.702  22.117   4.503  0.00  0.00    +0.242 C 
BRANCH  24  25
ATOM     25  O   UNL     1     -34.924  21.889   3.339  0.00  0.00    -0.446 OA
BRANCH  25  27
ATOM     26  O   UNL     1     -36.255  20.145   2.629  0.00  0.00    -0.250 OA
ATOM     27  C   UNL     1     -35.481  21.063   2.396  0.00  0.00    +0.316 C 
BRANCH  27  28
ATOM     28  C   UNL     1     -34.983  21.448   1.013  0.00  0.00    +0.099 C 
ATOM     29  C   UNL     1     -34.709  22.945   0.963  0.00  0.00    +0.012 C 
ATOM     30  C   UNL     1     -33.734  20.650   0.647  0.00  0.00    +0.012 C 
ENDBRANCH  27  28
ENDBRANCH  25  27
ENDBRANCH  24  25
ENDBRANCH   6  24
TORSDOF 8
ENDMDL
MODEL 3
REMARK VINA RESULT:      -5.8      3.882      7.363
REMARK  Name = 58421399
REMARK  8 active torsions:
REMARK  status: ('A' for Active; 'I' for Inactive)
REMARK    1  A    between atoms: C_4  and  O_18
REMARK    2  A    between atoms: C_5  and  N_9
REMARK    3  A    between atoms: C_6  and  C_24
REMARK    4  A    between atoms: O_18  and  C_20
REMARK    5  A    between atoms: C_20  and  C_21
REMARK    6  A    between atoms: C_24  and  O_25
REMARK    7  A    between atoms: O_25  and  C_27
REMARK    8  A    between atoms: C_27  and  C_28
REMARK                            x       y       z     vdW  Elec       q    Type
REMARK                         _______ _______ _______ _____ _____    ______ ____
ROOT
ATOM      1  F   UNL     1     -39.826  24.272   3.828  0.00  0.00    -0.232 F 
ATOM      2  O   UNL     1     -38.996  26.563   2.175  0.00  0.00    -0.329 OA
ATOM      3  C   UNL     1     -39.384  24.250   2.536  0.00  0.00    +0.216 C 
ATOM      4  C   UNL     1     -37.892  24.509   2.536  0.00  0.00    +0.233 C 
ATOM      5  C   UNL     1     -39.895  25.494   1.821  0.00  0.00    +0.241 C 
ATOM      6  C   UNL     1     -37.858  25.997   2.850  0.00  0.00    +0.203 C 
ATOM      7  C   UNL     1     -39.814  22.938   1.914  0.00  0.00    +0.044 C 
ENDROOT
BRANCH   5   9
ATOM      8  O   UNL     1     -42.219  24.832   0.373  0.00  0.00    -0.193 OA
ATOM      9  N   UNL     1     -41.232  25.859   2.188  0.00  0.00    -0.178 N 
ATOM     10  N   UNL     1     -43.619  25.876   1.823  0.00  0.00    -0.306 NA
ATOM     11  N   UNL     1     -45.048  26.947   3.312  0.00  0.00    -0.332 N 
ATOM     12  C   UNL     1     -41.429  26.598   3.346  0.00  0.00    +0.083 C 
ATOM     13  C   UNL     1     -42.357  25.489   1.407  0.00  0.00    +0.276 C 
ATOM     14  C   UNL     1     -42.635  26.981   3.763  0.00  0.00    +0.065 C 
ATOM     15  C   UNL     1     -43.786  26.572   2.917  0.00  0.00    +0.193 C 
ATOM     16  H   UNL     1     -45.830  26.691   2.771  0.00  0.00    +0.145 HD
ATOM     17  H   UNL     1     -45.171  27.471   4.136  0.00  0.00    +0.145 HD
ENDBRANCH   5   9
BRANCH   4  18
ATOM     18  O   UNL     1     -37.199  23.756   3.510  0.00  0.00    -0.447 OA
BRANCH  18  20
ATOM     19  O   UNL     1     -35.365  23.387   2.161  0.00  0.00    -0.250 OA
ATOM     20  C   UNL     1     -36.113  23.040   3.065  0.00  0.00    +0.316 C 
BRANCH  20  21
ATOM     21  C   UNL     1     -35.983  21.746   3.850  0.00  0.00    +0.099 C 
ATOM     22  C   UNL     1     -35.289  20.693   2.996  0.00  0.00    +0.012 C 
ATOM     23  C   UNL     1     -35.225  21.978   5.154  0.00  0.00    +0.012 C 
ENDBRANCH  20  21
ENDBRANCH  18  20
ENDBRANCH   4  18
BRANCH   6  24
ATOM     24  C   UNL     1     -36.588  26.684   2.378  0.00  0.00    +0.242 C 
BRANCH  24  25
ATOM     25  O   UNL     1     -35.811  27.037   3.511  0.00  0.00    -0.446 OA
BRANCH  25  27
ATOM     26  O   UNL     1     -33.771  26.269   2.760  0.00  0.00    -0.250 OA
ATOM     27  C   UNL     1     -34.610  26.388   3.642  0.00  0.00    +0.316 C 
BRANCH  27  28
ATOM     28  C   UNL     1     -34.477  25.823   5.047  0.00  0.00    +0.099 C 
ATOM     29  C   UNL     1     -33.442  26.623   5.827  0.00  0.00    +0.012 C 
ATOM     30  C   UNL     1     -35.826  25.829   5.761  0.00  0.00    +0.012 C 
ENDBRANCH  27  28
ENDBRANCH  25  27
ENDBRANCH  24  25
ENDBRANCH   6  24
TORSDOF 8
ENDMDL
MODEL 4
REMARK VINA RESULT:      -5.8      1.424      1.899
REMARK  Name = 58421399
REMARK  8 active torsions:
REMARK  status: ('A' for Active; 'I' for Inactive)
REMARK    1  A    between atoms: C_4  and  O_18
REMARK    2  A    between atoms: C_5  and  N_9
REMARK    3  A    between atoms: C_6  and  C_24
REMARK    4  A    between atoms: O_18  and  C_20
REMARK    5  A    between atoms: C_20  and  C_21
REMARK    6  A    between atoms: C_24  and  O_25
REMARK    7  A    between atoms: O_25  and  C_27
REMARK    8  A    between atoms: C_27  and  C_28
REMARK                            x       y       z     vdW  Elec       q    Type
REMARK                         _______ _______ _______ _____ _____    ______ ____
ROOT
ATOM      1  F   UNL     1     -37.583  25.668   4.165  0.00  0.00    -0.232 F 
ATOM      2  O   UNL     1     -35.756  23.624   3.092  0.00  0.00    -0.329 OA
ATOM      3  C   UNL     1     -37.271  25.435   2.857  0.00  0.00    +0.216 C 
ATOM      4  C   UNL     1     -37.955  24.157   2.422  0.00  0.00    +0.233 C 
ATOM      5  C   UNL     1     -35.806  25.027   2.767  0.00  0.00    +0.241 C 
ATOM      6  C   UNL     1     -37.103  23.117   3.133  0.00  0.00    +0.203 C 
ATOM      7  C   UNL     1     -37.637  26.670   2.060  0.00  0.00    +0.044 C 
ENDROOT
BRANCH   5   9
ATOM      8  O   UNL     1     -34.314  27.319   2.095  0.00  0.00    -0.193 OA
ATOM      9  N   UNL     1     -34.952  25.750   3.662  0.00  0.00    -0.178 N 
ATOM     10  N   UNL     1     -33.423  27.550   4.169  0.00  0.00    -0.306 NA
ATOM     11  N   UNL     1     -32.513  27.781   6.296  0.00  0.00    -0.332 N 
ATOM     12  C   UNL     1     -34.830  25.311   4.972  0.00  0.00    +0.083 C 
ATOM     13  C   UNL     1     -34.229  26.901   3.251  0.00  0.00    +0.276 C 
ATOM     14  C   UNL     1     -34.059  25.921   5.871  0.00  0.00    +0.065 C 
ATOM     15  C   UNL     1     -33.320  27.121   5.400  0.00  0.00    +0.193 C 
ATOM     16  H   UNL     1     -32.011  28.578   6.013  0.00  0.00    +0.145 HD
ATOM     17  H   UNL     1     -32.438  27.456   7.223  0.00  0.00    +0.145 HD
ENDBRANCH   5   9
BRANCH   4  18
ATOM     18  O   UNL     1     -39.307  24.086   2.827  0.00  0.00    -0.447 OA
BRANCH  18  20
ATOM     19  O   UNL     1     -40.285  22.745   1.225  0.00  0.00    -0.250 OA
ATOM     20  C   UNL     1     -40.222  23.801   1.842  0.00  0.00    +0.316 C 
BRANCH  20  21
ATOM     21  C   UNL     1     -41.139  24.991   1.618  0.00  0.00    +0.099 C 
ATOM     22  C   UNL     1     -41.060  25.934   2.812  0.00  0.00    +0.012 C 
ATOM     23  C   UNL     1     -40.777  25.716   0.325  0.00  0.00    +0.012 C 
ENDBRANCH  20  21
ENDBRANCH  18  20
ENDBRANCH   4  18
BRANCH   6  24
ATOM     24  C   UNL     1     -37.155  21.746   2.482  0.00  0.00    +0.242 C 
BRANCH  24  25
ATOM     25  O   UNL     1     -35.975  21.558   1.718  0.00  0.00    -0.446 OA
BRANCH  25  27
ATOM     26  O   UNL     1     -35.022  20.199   3.319  0.00  0.00    -0.250 OA
ATOM     27  C   UNL     1     -35.123  20.577   2.160  0.00  0.00    +0.316 C 
BRANCH  27  28
ATOM     28  C   UNL     1     -34.310  20.035   0.996  0.00  0.00    +0.099 C 
ATOM     29  C   UNL     1     -33.496  21.159   0.370  0.00  0.00    +0.012 C 
ATOM     30  C   UNL     1     -33.406  18.894   1.454  0.00  0.00    +0.012 C 
ENDBRANCH  27  28
ENDBRANCH  25  27
ENDBRANCH  24  25
ENDBRANCH   6  24
TORSDOF 8
ENDMDL
MODEL 5
REMARK VINA RESULT:      -5.7      2.967      7.580
REMARK  Name = 58421399
REMARK  8 active torsions:
REMARK  status: ('A' for Active; 'I' for Inactive)
REMARK    1  A    between atoms: C_4  and  O_18
REMARK    2  A    between atoms: C_5  and  N_9
REMARK    3  A    between atoms: C_6  and  C_24
REMARK    4  A    between atoms: O_18  and  C_20
REMARK    5  A    between atoms: C_20  and  C_21
REMARK    6  A    between atoms: C_24  and  O_25
REMARK    7  A    between atoms: O_25  and  C_27
REMARK    8  A    between atoms: C_27  and  C_28
REMARK                            x       y       z     vdW  Elec       q    Type
REMARK                         _______ _______ _______ _____ _____    ______ ____
ROOT
ATOM      1  F   UNL     1     -34.526  25.795   2.144  0.00  0.00    -0.232 F 
ATOM      2  O   UNL     1     -34.698  25.434   5.061  0.00  0.00    -0.329 OA
ATOM      3  C   UNL     1     -35.290  26.502   3.026  0.00  0.00    +0.216 C 
ATOM      4  C   UNL     1     -34.383  27.417   3.821  0.00  0.00    +0.233 C 
ATOM      5  C   UNL     1     -35.780  25.559   4.118  0.00  0.00    +0.241 C 
ATOM      6  C   UNL     1     -33.697  26.416   4.738  0.00  0.00    +0.203 C 
ATOM      7  C   UNL     1     -36.387  27.196   2.246  0.00  0.00    +0.044 C 
ENDROOT
BRANCH   5   9
ATOM      8  O   UNL     1     -38.410  24.661   3.656  0.00  0.00    -0.193 OA
ATOM      9  N   UNL     1     -36.139  24.258   3.634  0.00  0.00    -0.178 N 
ATOM     10  N   UNL     1     -37.761  22.602   2.955  0.00  0.00    -0.306 NA
ATOM     11  N   UNL     1     -37.090  20.495   2.238  0.00  0.00    -0.332 N 
ATOM     12  C   UNL     1     -35.130  23.345   3.361  0.00  0.00    +0.083 C 
ATOM     13  C   UNL     1     -37.490  23.876   3.424  0.00  0.00    +0.276 C 
ATOM     14  C   UNL     1     -35.371  22.115   2.909  0.00  0.00    +0.065 C 
ATOM     15  C   UNL     1     -36.798  21.755   2.704  0.00  0.00    +0.193 C 
ATOM     16  H   UNL     1     -38.026  20.228   2.093  0.00  0.00    +0.145 HD
ATOM     17  H   UNL     1     -36.362  19.859   2.049  0.00  0.00    +0.145 HD
ENDBRANCH   5   9
BRANCH   4  18
ATOM     18  O   UNL     1     -33.450  28.108   3.016  0.00  0.00    -0.447 OA
BRANCH  18  20
ATOM     19  O   UNL     1     -34.550  30.100   3.392  0.00  0.00    -0.250 OA
ATOM     20  C   UNL     1     -33.594  29.473   2.955  0.00  0.00    +0.316 C 
BRANCH  20  21
ATOM     21  C   UNL     1     -32.399  30.095   2.251  0.00  0.00    +0.099 C 
ATOM     22  C   UNL     1     -31.937  31.329   3.014  0.00  0.00    +0.012 C 
ATOM     23  C   UNL     1     -31.267  29.081   2.111  0.00  0.00    +0.012 C 
ENDBRANCH  20  21
ENDBRANCH  18  20
ENDBRANCH   4  18
BRANCH   6  24
ATOM     24  C   UNL     1     -33.159  27.038   6.015  0.00  0.00    +0.242 C 
BRANCH  24  25
ATOM     25  O   UNL     1     -31.788  27.351   5.829  0.00  0.00    -0.446 OA
BRANCH  25  27
ATOM     26  O   UNL     1     -32.240  29.589   6.155  0.00  0.00    -0.250 OA
ATOM     27  C   UNL     1     -31.462  28.682   5.894  0.00  0.00    +0.316 C 
BRANCH  27  28
ATOM     28  C   UNL     1     -29.987  28.869   5.579  0.00  0.00    +0.099 C 
ATOM     29  C   UNL     1     -29.625  30.346   5.668  0.00  0.00    +0.012 C 
ATOM     30  C   UNL     1     -29.123  28.036   6.524  0.00  0.00    +0.012 C 
ENDBRANCH  27  28
ENDBRANCH  25  27
ENDBRANCH  24  25
ENDBRANCH   6  24
TORSDOF 8
ENDMDL
MODEL 6
REMARK VINA RESULT:      -5.7      3.000      7.124
REMARK  Name = 58421399
REMARK  8 active torsions:
REMARK  status: ('A' for Active; 'I' for Inactive)
REMARK    1  A    between atoms: C_4  and  O_18
REMARK    2  A    between atoms: C_5  and  N_9
REMARK    3  A    between atoms: C_6  and  C_24
REMARK    4  A    between atoms: O_18  and  C_20
REMARK    5  A    between atoms: C_20  and  C_21
REMARK    6  A    between atoms: C_24  and  O_25
REMARK    7  A    between atoms: O_25  and  C_27
REMARK    8  A    between atoms: C_27  and  C_28
REMARK                            x       y       z     vdW  Elec       q    Type
REMARK                         _______ _______ _______ _____ _____    ______ ____
ROOT
ATOM      1  F   UNL     1     -35.189  25.236   1.653  0.00  0.00    -0.232 F 
ATOM      2  O   UNL     1     -35.100  24.666   4.540  0.00  0.00    -0.329 OA
ATOM      3  C   UNL     1     -35.996  25.748   2.627  0.00  0.00    +0.216 C 
ATOM      4  C   UNL     1     -35.197  26.749   3.435  0.00  0.00    +0.233 C 
ATOM      5  C   UNL     1     -36.250  24.668   3.672  0.00  0.00    +0.241 C 
ATOM      6  C   UNL     1     -34.297  25.820   4.235  0.00  0.00    +0.203 C 
ATOM      7  C   UNL     1     -37.243  26.296   1.965  0.00  0.00    +0.044 C 
ENDROOT
BRANCH   5   9
ATOM      8  O   UNL     1     -38.725  23.495   3.012  0.00  0.00    -0.193 OA
ATOM      9  N   UNL     1     -36.424  23.359   3.114  0.00  0.00    -0.178 N 
ATOM     10  N   UNL     1     -37.798  21.561   2.270  0.00  0.00    -0.306 NA
ATOM     11  N   UNL     1     -36.842  19.582   1.510  0.00  0.00    -0.332 N 
ATOM     12  C   UNL     1     -35.300  22.583   2.867  0.00  0.00    +0.083 C 
ATOM     13  C   UNL     1     -37.706  22.833   2.806  0.00  0.00    +0.276 C 
ATOM     14  C   UNL     1     -35.368  21.356   2.352  0.00  0.00    +0.065 C 
ATOM     15  C   UNL     1     -36.728  20.844   2.044  0.00  0.00    +0.193 C 
ATOM     16  H   UNL     1     -37.731  19.216   1.297  0.00  0.00    +0.145 HD
ATOM     17  H   UNL     1     -36.035  19.044   1.341  0.00  0.00    +0.145 HD
ENDBRANCH   5   9
BRANCH   4  18
ATOM     18  O   UNL     1     -34.447  27.636   2.631  0.00  0.00    -0.447 OA
BRANCH  18  20
ATOM     19  O   UNL     1     -34.077  29.643   3.706  0.00  0.00    -0.250 OA
ATOM     20  C   UNL     1     -34.650  28.977   2.854  0.00  0.00    +0.316 C 
BRANCH  20  21
ATOM     21  C   UNL     1     -35.701  29.513   1.897  0.00  0.00    +0.099 C 
ATOM     22  C   UNL     1     -35.951  30.989   2.180  0.00  0.00    +0.012 C 
ATOM     23  C   UNL     1     -35.273  29.299   0.448  0.00  0.00    +0.012 C 
ENDBRANCH  20  21
ENDBRANCH  18  20
ENDBRANCH   4  18
BRANCH   6  24
ATOM     24  C   UNL     1     -33.781  26.441   5.521  0.00  0.00    +0.242 C 
BRANCH  24  25
ATOM     25  O   UNL     1     -32.533  27.062   5.261  0.00  0.00    -0.446 OA
BRANCH  25  27
ATOM     26  O   UNL     1     -32.546  28.111   7.315  0.00  0.00    -0.250 OA
ATOM     27  C   UNL     1     -32.134  28.012   6.167  0.00  0.00    +0.316 C 
BRANCH  27  28
ATOM     28  C   UNL     1     -31.109  28.936   5.530  0.00  0.00    +0.099 C 
ATOM     29  C   UNL     1     -29.917  29.104   6.464  0.00  0.00    +0.012 C 
ATOM     30  C   UNL     1     -30.669  28.400   4.171  0.00  0.00    +0.012 C 
ENDBRANCH  27  28
ENDBRANCH  25  27
ENDBRANCH  24  25
ENDBRANCH   6  24
TORSDOF 8
ENDMDL
MODEL 7
REMARK VINA RESULT:      -5.7      3.777      6.155
REMARK  Name = 58421399
REMARK  8 active torsions:
REMARK  status: ('A' for Active; 'I' for Inactive)
REMARK    1  A    between atoms: C_4  and  O_18
REMARK    2  A    between atoms: C_5  and  N_9
REMARK    3  A    between atoms: C_6  and  C_24
REMARK    4  A    between atoms: O_18  and  C_20
REMARK    5  A    between atoms: C_20  and  C_21
REMARK    6  A    between atoms: C_24  and  O_25
REMARK    7  A    between atoms: O_25  and  C_27
REMARK    8  A    between atoms: C_27  and  C_28
REMARK                            x       y       z     vdW  Elec       q    Type
REMARK                         _______ _______ _______ _____ _____    ______ ____
ROOT
ATOM      1  F   UNL     1     -34.906  22.076   3.259  0.00  0.00    -0.232 F 
ATOM      2  O   UNL     1     -36.696  21.089   1.139  0.00  0.00    -0.329 OA
ATOM      3  C   UNL     1     -35.419  22.781   2.208  0.00  0.00    +0.216 C 
ATOM      4  C   UNL     1     -36.890  23.029   2.470  0.00  0.00    +0.233 C 
ATOM      5  C   UNL     1     -35.491  21.866   0.992  0.00  0.00    +0.241 C 
ATOM      6  C   UNL     1     -37.464  21.642   2.224  0.00  0.00    +0.203 C 
ATOM      7  C   UNL     1     -34.576  24.024   2.019  0.00  0.00    +0.044 C 
ENDROOT
BRANCH   5   9
ATOM      8  O   UNL     1     -33.182  22.362  -0.544  0.00  0.00    -0.193 OA
ATOM      9  N   UNL     1     -34.370  20.980   0.872  0.00  0.00    -0.178 N 
ATOM     10  N   UNL     1     -32.191  20.396   0.009  0.00  0.00    -0.306 NA
ATOM     11  N   UNL     1     -31.181  18.381   0.579  0.00  0.00    -0.332 N 
ATOM     12  C   UNL     1     -34.394  19.774   1.558  0.00  0.00    +0.083 C 
ATOM     13  C   UNL     1     -33.237  21.299   0.078  0.00  0.00    +0.276 C 
ATOM     14  C   UNL     1     -33.397  18.892   1.504  0.00  0.00    +0.065 C 
ATOM     15  C   UNL     1     -32.232  19.264   0.661  0.00  0.00    +0.193 C 
ATOM     16  H   UNL     1     -30.395  18.600   0.028  0.00  0.00    +0.145 HD
ATOM     17  H   UNL     1     -31.214  17.529   1.071  0.00  0.00    +0.145 HD
ENDBRANCH   5   9
BRANCH   4  18
ATOM     18  O   UNL     1     -37.151  23.473   3.786  0.00  0.00    -0.447 OA
BRANCH  18  20
ATOM     19  O   UNL     1     -37.884  25.600   3.276  0.00  0.00    -0.250 OA
ATOM     20  C   UNL     1     -37.222  24.834   3.964  0.00  0.00    +0.316 C 
BRANCH  20  21
ATOM     21  C   UNL     1     -36.347  25.255   5.132  0.00  0.00    +0.099 C 
ATOM     22  C   UNL     1     -35.575  24.052   5.658  0.00  0.00    +0.012 C 
ATOM     23  C   UNL     1     -35.397  26.376   4.719  0.00  0.00    +0.012 C 
ENDBRANCH  20  21
ENDBRANCH  18  20
ENDBRANCH   4  18
BRANCH   6  24
ATOM     24  C   UNL     1     -38.937  21.657   1.853  0.00  0.00    +0.242 C 
BRANCH  24  25
ATOM     25  O   UNL     1     -39.053  21.699   0.440  0.00  0.00    -0.446 OA
BRANCH  25  27
ATOM     26  O   UNL     1     -41.188  20.835   0.333  0.00  0.00    -0.250 OA
ATOM     27  C   UNL     1     -40.049  20.930  -0.104  0.00  0.00    +0.316 C 
BRANCH  27  28
ATOM     28  C   UNL     1     -39.528  20.199  -1.330  0.00  0.00    +0.099 C 
ATOM     29  C   UNL     1     -38.710  21.154  -2.190  0.00  0.00    +0.012 C 
ATOM     30  C   UNL     1     -38.698  18.984  -0.922  0.00  0.00    +0.012 C 
ENDBRANCH  27  28
ENDBRANCH  25  27
ENDBRANCH  24  25
ENDBRANCH   6  24
TORSDOF 8
ENDMDL
MODEL 8
REMARK VINA RESULT:      -5.7      3.500      6.551
REMARK  Name = 58421399
REMARK  8 active torsions:
REMARK  status: ('A' for Active; 'I' for Inactive)
REMARK    1  A    between atoms: C_4  and  O_18
REMARK    2  A    between atoms: C_5  and  N_9
REMARK    3  A    between atoms: C_6  and  C_24
REMARK    4  A    between atoms: O_18  and  C_20
REMARK    5  A    between atoms: C_20  and  C_21
REMARK    6  A    between atoms: C_24  and  O_25
REMARK    7  A    between atoms: O_25  and  C_27
REMARK    8  A    between atoms: C_27  and  C_28
REMARK                            x       y       z     vdW  Elec       q    Type
REMARK                         _______ _______ _______ _____ _____    ______ ____
ROOT
ATOM      1  F   UNL     1     -34.887  22.185   3.344  0.00  0.00    -0.232 F 
ATOM      2  O   UNL     1     -36.722  21.378   1.187  0.00  0.00    -0.329 OA
ATOM      3  C   UNL     1     -35.361  22.957   2.322  0.00  0.00    +0.216 C 
ATOM      4  C   UNL     1     -36.818  23.270   2.594  0.00  0.00    +0.233 C 
ATOM      5  C   UNL     1     -35.478  22.096   1.071  0.00  0.00    +0.241 C 
ATOM      6  C   UNL     1     -37.462  21.926   2.293  0.00  0.00    +0.203 C 
ATOM      7  C   UNL     1     -34.455  24.161   2.183  0.00  0.00    +0.044 C 
ENDROOT
BRANCH   5   9
ATOM      8  O   UNL     1     -33.163  22.518  -0.477  0.00  0.00    -0.193 OA
ATOM      9  N   UNL     1     -34.404  21.160   0.915  0.00  0.00    -0.178 N 
ATOM     10  N   UNL     1     -32.266  20.491   0.012  0.00  0.00    -0.306 NA
ATOM     11  N   UNL     1     -31.353  18.413   0.518  0.00  0.00    -0.332 N 
ATOM     12  C   UNL     1     -34.482  19.938   1.568  0.00  0.00    +0.083 C 
ATOM     13  C   UNL     1     -33.265  21.443   0.117  0.00  0.00    +0.276 C 
ATOM     14  C   UNL     1     -33.532  19.009   1.481  0.00  0.00    +0.065 C 
ATOM     15  C   UNL     1     -32.357  19.345   0.635  0.00  0.00    +0.193 C 
ATOM     16  H   UNL     1     -30.563  18.608  -0.036  0.00  0.00    +0.145 HD
ATOM     17  H   UNL     1     -31.424  17.551   0.988  0.00  0.00    +0.145 HD
ENDBRANCH   5   9
BRANCH   4  18
ATOM     18  O   UNL     1     -37.057  23.675   3.927  0.00  0.00    -0.447 OA
BRANCH  18  20
ATOM     19  O   UNL     1     -37.041  25.949   3.541  0.00  0.00    -0.250 OA
ATOM     20  C   UNL     1     -36.751  24.980   4.230  0.00  0.00    +0.316 C 
BRANCH  20  21
ATOM     21  C   UNL     1     -35.984  25.046   5.540  0.00  0.00    +0.099 C 
ATOM     22  C   UNL     1     -35.490  23.656   5.919  0.00  0.00    +0.012 C 
ATOM     23  C   UNL     1     -34.821  26.030   5.436  0.00  0.00    +0.012 C 
ENDBRANCH  20  21
ENDBRANCH  18  20
ENDBRANCH   4  18
BRANCH   6  24
ATOM     24  C   UNL     1     -38.932  22.031   1.924  0.00  0.00    +0.242 C 
BRANCH  24  25
ATOM     25  O   UNL     1     -39.100  23.112   1.021  0.00  0.00    -0.446 OA
BRANCH  25  27
ATOM     26  O   UNL     1     -41.379  23.454   0.936  0.00  0.00    -0.250 OA
ATOM     27  C   UNL     1     -40.246  23.850   1.175  0.00  0.00    +0.316 C 
BRANCH  27  28
ATOM     28  C   UNL     1     -39.902  25.243   1.674  0.00  0.00    +0.099 C 
ATOM     29  C   UNL     1     -40.486  26.287   0.730  0.00  0.00    +0.012 C 
ATOM     30  C   UNL     1     -40.410  25.448   3.098  0.00  0.00    +0.012 C 
ENDBRANCH  27  28
ENDBRANCH  25  27
ENDBRANCH  24  25
ENDBRANCH   6  24
TORSDOF 8
ENDMDL
MODEL 9
REMARK VINA RESULT:      -5.6      4.054      7.807
REMARK  Name = 58421399
REMARK  8 active torsions:
REMARK  status: ('A' for Active; 'I' for Inactive)
REMARK    1  A    between atoms: C_4  and  O_18
REMARK    2  A    between atoms: C_5  and  N_9
REMARK    3  A    between atoms: C_6  and  C_24
REMARK    4  A    between atoms: O_18  and  C_20
REMARK    5  A    between atoms: C_20  and  C_21
REMARK    6  A    between atoms: C_24  and  O_25
REMARK    7  A    between atoms: O_25  and  C_27
REMARK    8  A    between atoms: C_27  and  C_28
REMARK                            x       y       z     vdW  Elec       q    Type
REMARK                         _______ _______ _______ _____ _____    ______ ____
ROOT
ATOM      1  F   UNL     1     -39.796  24.483   3.947  0.00  0.00    -0.232 F 
ATOM      2  O   UNL     1     -38.599  26.444   2.105  0.00  0.00    -0.329 OA
ATOM      3  C   UNL     1     -39.167  24.235   2.761  0.00  0.00    +0.216 C 
ATOM      4  C   UNL     1     -37.680  24.444   2.954  0.00  0.00    +0.233 C 
ATOM      5  C   UNL     1     -39.494  25.360   1.787  0.00  0.00    +0.241 C 
ATOM      6  C   UNL     1     -37.609  25.961   3.031  0.00  0.00    +0.203 C 
ATOM      7  C   UNL     1     -39.572  22.853   2.294  0.00  0.00    +0.044 C 
ENDROOT
BRANCH   5   9
ATOM      8  O   UNL     1     -41.563  24.699  -0.007  0.00  0.00    -0.193 OA
ATOM      9  N   UNL     1     -40.848  25.823   1.878  0.00  0.00    -0.178 N 
ATOM     10  N   UNL     1     -43.127  25.931   1.084  0.00  0.00    -0.306 NA
ATOM     11  N   UNL     1     -44.724  27.194   2.206  0.00  0.00    -0.332 N 
ATOM     12  C   UNL     1     -41.199  26.664   2.923  0.00  0.00    +0.083 C 
ATOM     13  C   UNL     1     -41.840  25.446   0.934  0.00  0.00    +0.276 C 
ATOM     14  C   UNL     1     -42.432  27.142   3.085  0.00  0.00    +0.065 C 
ATOM     15  C   UNL     1     -43.439  26.723   2.076  0.00  0.00    +0.193 C 
ATOM     16  H   UNL     1     -45.412  26.934   1.552  0.00  0.00    +0.145 HD
ATOM     17  H   UNL     1     -44.956  27.791   2.954  0.00  0.00    +0.145 HD
ENDBRANCH   5   9
BRANCH   4  18
ATOM     18  O   UNL     1     -37.184  23.839   4.131  0.00  0.00    -0.447 OA
BRANCH  18  20
ATOM     19  O   UNL     1     -36.160  22.071   3.061  0.00  0.00    -0.250 OA
ATOM     20  C   UNL     1     -36.196  22.900   3.962  0.00  0.00    +0.316 C 
BRANCH  20  21
ATOM     21  C   UNL     1     -35.158  23.027   5.064  0.00  0.00    +0.099 C 
ATOM     22  C   UNL     1     -35.047  24.483   5.501  0.00  0.00    +0.012 C 
ATOM     23  C   UNL     1     -35.511  22.127   6.245  0.00  0.00    +0.012 C 
ENDBRANCH  20  21
ENDBRANCH  18  20
ENDBRANCH   4  18
BRANCH   6  24
ATOM     24  C   UNL     1     -36.247  26.521   2.662  0.00  0.00    +0.242 C 
BRANCH  24  25
ATOM     25  O   UNL     1     -36.426  27.759   1.995  0.00  0.00    -0.446 OA
BRANCH  25  27
ATOM     26  O   UNL     1     -34.777  28.719   3.289  0.00  0.00    -0.250 OA
ATOM     27  C   UNL     1     -35.573  28.768   2.361  0.00  0.00    +0.316 C 
BRANCH  27  28
ATOM     28  C   UNL     1     -35.771  29.969   1.450  0.00  0.00    +0.099 C 
ATOM     29  C   UNL     1     -36.927  29.705   0.495  0.00  0.00    +0.012 C 
ATOM     30  C   UNL     1     -36.015  31.234   2.269  0.00  0.00    +0.012 C 
ENDBRANCH  27  28
ENDBRANCH  25  27
ENDBRANCH  24  25
ENDBRANCH   6  24
TORSDOF 8
ENDMDL
