MODEL 1
REMARK VINA RESULT:      -7.9      0.000      0.000
REMARK  Name = 5491526
REMARK  4 active torsions:
REMARK  status: ('A' for Active; 'I' for Inactive)
REMARK    1  A    between atoms: C_5  and  O_16
REMARK    2  A    between atoms: C_9  and  O_12
REMARK    3  A    between atoms: C_10  and  O_14
REMARK    4  A    between atoms: O_16  and  C_20
REMARK                            x       y       z     vdW  Elec       q    Type
REMARK                         _______ _______ _______ _____ _____    ______ ____
ROOT
ATOM      1  O   UNL     1     -37.605  22.924   2.814  0.00  0.00    -0.419 OA
ATOM      2  O   UNL     1     -38.036  21.112   1.487  0.00  0.00    -0.241 OA
ATOM      3  C   UNL     1     -35.430  23.140   3.876  0.00  0.00    +0.041 C 
ATOM      4  C   UNL     1     -36.710  23.629   3.641  0.00  0.00    +0.152 C 
ATOM      5  C   UNL     1     -35.886  21.216   2.469  0.00  0.00    +0.221 C 
ATOM      6  C   UNL     1     -35.034  21.886   3.254  0.00  0.00    +0.047 C 
ATOM      7  C   UNL     1     -34.569  23.868   4.701  0.00  0.00    +0.043 C 
ATOM      8  C   UNL     1     -37.154  24.824   4.206  0.00  0.00    +0.077 C 
ATOM      9  C   UNL     1     -35.000  25.068   5.274  0.00  0.00    +0.168 C 
ATOM     10  C   UNL     1     -36.290  25.545   5.026  0.00  0.00    +0.171 C 
ATOM     11  C   UNL     1     -37.252  21.721   2.207  0.00  0.00    +0.381 C 
ENDROOT
BRANCH   9  12
ATOM     12  O   UNL     1     -34.149  25.766   6.078  0.00  0.00    -0.503 OA
ATOM     13  H   UNL     1     -33.939  26.656   5.877  0.00  0.00    +0.292 HD
ENDBRANCH   9  12
BRANCH  10  14
ATOM     14  O   UNL     1     -36.714  26.712   5.585  0.00  0.00    -0.503 OA
ATOM     15  H   UNL     1     -36.855  27.466   5.045  0.00  0.00    +0.292 HD
ENDBRANCH  10  14
BRANCH   5  16
ATOM     16  O   UNL     1     -35.545  20.025   1.862  0.00  0.00    -0.447 OA
BRANCH  16  20
ATOM     17  O   UNL     1     -31.371  17.741   1.355  0.00  0.00    -0.421 OA
ATOM     18  O   UNL     1     -29.368  16.661   1.099  0.00  0.00    -0.244 OA
ATOM     19  C   UNL     1     -31.760  19.816   0.142  0.00  0.00    +0.035 C 
ATOM     20  C   UNL     1     -34.302  19.952   1.300  0.00  0.00    +0.149 C 
ATOM     21  C   UNL     1     -32.200  18.833   1.024  0.00  0.00    +0.152 C 
ATOM     22  C   UNL     1     -33.463  18.886   1.610  0.00  0.00    +0.075 C 
ATOM     23  C   UNL     1     -32.611  20.881  -0.161  0.00  0.00    +0.006 C 
ATOM     24  C   UNL     1     -33.880  20.948   0.419  0.00  0.00    +0.038 C 
ATOM     25  C   UNL     1     -30.431  19.698  -0.432  0.00  0.00    +0.010 C 
ATOM     26  C   UNL     1     -29.651  18.661  -0.114  0.00  0.00    +0.082 C 
ATOM     27  C   UNL     1     -30.094  17.607   0.817  0.00  0.00    +0.346 C 
ENDBRANCH  16  20
ENDBRANCH   5  16
TORSDOF 4
ENDMDL
MODEL 2
REMARK VINA RESULT:      -7.6      4.583      8.326
REMARK  Name = 5491526
REMARK  4 active torsions:
REMARK  status: ('A' for Active; 'I' for Inactive)
REMARK    1  A    between atoms: C_5  and  O_16
REMARK    2  A    between atoms: C_9  and  O_12
REMARK    3  A    between atoms: C_10  and  O_14
REMARK    4  A    between atoms: O_16  and  C_20
REMARK                            x       y       z     vdW  Elec       q    Type
REMARK                         _______ _______ _______ _____ _____    ______ ____
ROOT
ATOM      1  O   UNL     1     -35.012  25.185   2.390  0.00  0.00    -0.419 OA
ATOM      2  O   UNL     1     -34.535  27.375   1.935  0.00  0.00    -0.241 OA
ATOM      3  C   UNL     1     -34.713  24.338   4.648  0.00  0.00    +0.041 C 
ATOM      4  C   UNL     1     -35.076  24.131   3.321  0.00  0.00    +0.152 C 
ATOM      5  C   UNL     1     -34.204  26.661   4.167  0.00  0.00    +0.221 C 
ATOM      6  C   UNL     1     -34.264  25.660   5.054  0.00  0.00    +0.047 C 
ATOM      7  C   UNL     1     -34.789  23.269   5.543  0.00  0.00    +0.043 C 
ATOM      8  C   UNL     1     -35.513  22.889   2.865  0.00  0.00    +0.077 C 
ATOM      9  C   UNL     1     -35.227  22.016   5.101  0.00  0.00    +0.168 C 
ATOM     10  C   UNL     1     -35.588  21.828   3.765  0.00  0.00    +0.171 C 
ATOM     11  C   UNL     1     -34.587  26.461   2.752  0.00  0.00    +0.381 C 
ENDROOT
BRANCH   9  12
ATOM     12  O   UNL     1     -35.295  20.983   5.986  0.00  0.00    -0.503 OA
ATOM     13  H   UNL     1     -35.325  21.156   6.907  0.00  0.00    +0.292 HD
ENDBRANCH   9  12
BRANCH  10  14
ATOM     14  O   UNL     1     -36.013  20.609   3.329  0.00  0.00    -0.503 OA
ATOM     15  H   UNL     1     -35.641  19.827   3.690  0.00  0.00    +0.292 HD
ENDBRANCH  10  14
BRANCH   5  16
ATOM     16  O   UNL     1     -33.785  27.929   4.517  0.00  0.00    -0.447 OA
BRANCH  16  20
ATOM     17  O   UNL     1     -30.051  29.127   7.257  0.00  0.00    -0.421 OA
ATOM     18  O   UNL     1     -28.251  29.696   8.555  0.00  0.00    -0.244 OA
ATOM     19  C   UNL     1     -29.682  28.496   4.935  0.00  0.00    +0.035 C 
ATOM     20  C   UNL     1     -32.440  28.117   4.658  0.00  0.00    +0.149 C 
ATOM     21  C   UNL     1     -30.548  28.711   6.004  0.00  0.00    +0.152 C 
ATOM     22  C   UNL     1     -31.923  28.527   5.883  0.00  0.00    +0.075 C 
ATOM     23  C   UNL     1     -30.213  28.085   3.710  0.00  0.00    +0.006 C 
ATOM     24  C   UNL     1     -31.591  27.896   3.574  0.00  0.00    +0.038 C 
ATOM     25  C   UNL     1     -28.259  28.708   5.131  0.00  0.00    +0.010 C 
ATOM     26  C   UNL     1     -27.796  29.102   6.320  0.00  0.00    +0.082 C 
ATOM     27  C   UNL     1     -28.691  29.336   7.468  0.00  0.00    +0.346 C 
ENDBRANCH  16  20
ENDBRANCH   5  16
TORSDOF 4
ENDMDL
MODEL 3
REMARK VINA RESULT:      -7.3      1.614      2.162
REMARK  Name = 5491526
REMARK  4 active torsions:
REMARK  status: ('A' for Active; 'I' for Inactive)
REMARK    1  A    between atoms: C_5  and  O_16
REMARK    2  A    between atoms: C_9  and  O_12
REMARK    3  A    between atoms: C_10  and  O_14
REMARK    4  A    between atoms: O_16  and  C_20
REMARK                            x       y       z     vdW  Elec       q    Type
REMARK                         _______ _______ _______ _____ _____    ______ ____
ROOT
ATOM      1  O   UNL     1     -37.681  22.961   2.671  0.00  0.00    -0.419 OA
ATOM      2  O   UNL     1     -38.136  21.185   1.305  0.00  0.00    -0.241 OA
ATOM      3  C   UNL     1     -35.493  23.139   3.716  0.00  0.00    +0.041 C 
ATOM      4  C   UNL     1     -36.773  23.641   3.505  0.00  0.00    +0.152 C 
ATOM      5  C   UNL     1     -35.975  21.252   2.268  0.00  0.00    +0.221 C 
ATOM      6  C   UNL     1     -35.111  21.898   3.060  0.00  0.00    +0.047 C 
ATOM      7  C   UNL     1     -34.620  23.841   4.549  0.00  0.00    +0.043 C 
ATOM      8  C   UNL     1     -37.204  24.824   4.103  0.00  0.00    +0.077 C 
ATOM      9  C   UNL     1     -35.038  25.030   5.156  0.00  0.00    +0.168 C 
ATOM     10  C   UNL     1     -36.327  25.520   4.932  0.00  0.00    +0.171 C 
ATOM     11  C   UNL     1     -37.341  21.772   2.032  0.00  0.00    +0.381 C 
ENDROOT
BRANCH   9  12
ATOM     12  O   UNL     1     -34.175  25.704   5.967  0.00  0.00    -0.503 OA
ATOM     13  H   UNL     1     -34.041  26.623   5.849  0.00  0.00    +0.292 HD
ENDBRANCH   9  12
BRANCH  10  14
ATOM     14  O   UNL     1     -36.738  26.677   5.523  0.00  0.00    -0.503 OA
ATOM     15  H   UNL     1     -36.194  27.096   6.161  0.00  0.00    +0.292 HD
ENDBRANCH  10  14
BRANCH   5  16
ATOM     16  O   UNL     1     -35.647  20.073   1.629  0.00  0.00    -0.447 OA
BRANCH  16  20
ATOM     17  O   UNL     1     -31.906  21.824  -0.785  0.00  0.00    -0.421 OA
ATOM     18  O   UNL     1     -30.104  22.647  -1.934  0.00  0.00    -0.244 OA
ATOM     19  C   UNL     1     -31.715  19.666   0.324  0.00  0.00    +0.035 C 
ATOM     20  C   UNL     1     -34.358  19.943   1.198  0.00  0.00    +0.149 C 
ATOM     21  C   UNL     1     -32.465  20.792  -0.002  0.00  0.00    +0.152 C 
ATOM     22  C   UNL     1     -33.782  20.947   0.424  0.00  0.00    +0.075 C 
ATOM     23  C   UNL     1     -32.305  18.665   1.102  0.00  0.00    +0.006 C 
ATOM     24  C   UNL     1     -33.625  18.806   1.537  0.00  0.00    +0.038 C 
ATOM     25  C   UNL     1     -30.348  19.570  -0.155  0.00  0.00    +0.010 C 
ATOM     26  C   UNL     1     -29.825  20.550  -0.896  0.00  0.00    +0.082 C 
ATOM     27  C   UNL     1     -30.597  21.754  -1.255  0.00  0.00    +0.346 C 
ENDBRANCH  16  20
ENDBRANCH   5  16
TORSDOF 4
ENDMDL
MODEL 4
REMARK VINA RESULT:      -7.1      4.663      7.853
REMARK  Name = 5491526
REMARK  4 active torsions:
REMARK  status: ('A' for Active; 'I' for Inactive)
REMARK    1  A    between atoms: C_5  and  O_16
REMARK    2  A    between atoms: C_9  and  O_12
REMARK    3  A    between atoms: C_10  and  O_14
REMARK    4  A    between atoms: O_16  and  C_20
REMARK                            x       y       z     vdW  Elec       q    Type
REMARK                         _______ _______ _______ _____ _____    ______ ____
ROOT
ATOM      1  O   UNL     1     -34.924  25.111   2.348  0.00  0.00    -0.419 OA
ATOM      2  O   UNL     1     -34.430  27.297   1.890  0.00  0.00    -0.241 OA
ATOM      3  C   UNL     1     -34.739  24.294   4.629  0.00  0.00    +0.041 C 
ATOM      4  C   UNL     1     -35.033  24.070   3.289  0.00  0.00    +0.152 C 
ATOM      5  C   UNL     1     -34.212  26.613   4.145  0.00  0.00    +0.221 C 
ATOM      6  C   UNL     1     -34.316  25.623   5.041  0.00  0.00    +0.047 C 
ATOM      7  C   UNL     1     -34.859  23.237   5.534  0.00  0.00    +0.043 C 
ATOM      8  C   UNL     1     -35.442  22.820   2.827  0.00  0.00    +0.077 C 
ATOM      9  C   UNL     1     -35.269  21.977   5.085  0.00  0.00    +0.168 C 
ATOM     10  C   UNL     1     -35.561  21.770   3.735  0.00  0.00    +0.171 C 
ATOM     11  C   UNL     1     -34.521  26.393   2.715  0.00  0.00    +0.381 C 
ENDROOT
BRANCH   9  12
ATOM     12  O   UNL     1     -35.380  20.955   5.980  0.00  0.00    -0.503 OA
ATOM     13  H   UNL     1     -34.642  20.705   6.500  0.00  0.00    +0.292 HD
ENDBRANCH   9  12
BRANCH  10  14
ATOM     14  O   UNL     1     -35.959  20.545   3.294  0.00  0.00    -0.503 OA
ATOM     15  H   UNL     1     -36.786  20.448   2.863  0.00  0.00    +0.292 HD
ENDBRANCH  10  14
BRANCH   5  16
ATOM     16  O   UNL     1     -33.816  27.887   4.499  0.00  0.00    -0.447 OA
BRANCH  16  20
ATOM     17  O   UNL     1     -29.286  28.287   3.013  0.00  0.00    -0.421 OA
ATOM     18  O   UNL     1     -27.112  28.482   2.319  0.00  0.00    -0.244 OA
ATOM     19  C   UNL     1     -29.786  28.427   5.391  0.00  0.00    +0.035 C 
ATOM     20  C   UNL     1     -32.492  28.063   4.787  0.00  0.00    +0.149 C 
ATOM     21  C   UNL     1     -30.213  28.268   4.075  0.00  0.00    +0.152 C 
ATOM     22  C   UNL     1     -31.557  28.086   3.757  0.00  0.00    +0.075 C 
ATOM     23  C   UNL     1     -30.734  28.403   6.416  0.00  0.00    +0.006 C 
ATOM     24  C   UNL     1     -32.086  28.221   6.112  0.00  0.00    +0.038 C 
ATOM     25  C   UNL     1     -28.369  28.613   5.650  0.00  0.00    +0.010 C 
ATOM     26  C   UNL     1     -27.497  28.629   4.639  0.00  0.00    +0.082 C 
ATOM     27  C   UNL     1     -27.924  28.463   3.237  0.00  0.00    +0.346 C 
ENDBRANCH  16  20
ENDBRANCH   5  16
TORSDOF 4
ENDMDL
MODEL 5
REMARK VINA RESULT:      -7.1      1.801      7.744
REMARK  Name = 5491526
REMARK  4 active torsions:
REMARK  status: ('A' for Active; 'I' for Inactive)
REMARK    1  A    between atoms: C_5  and  O_16
REMARK    2  A    between atoms: C_9  and  O_12
REMARK    3  A    between atoms: C_10  and  O_14
REMARK    4  A    between atoms: O_16  and  C_20
REMARK                            x       y       z     vdW  Elec       q    Type
REMARK                         _______ _______ _______ _____ _____    ______ ____
ROOT
ATOM      1  O   UNL     1     -35.464  18.359   0.005  0.00  0.00    -0.419 OA
ATOM      2  O   UNL     1     -37.105  19.950  -0.078  0.00  0.00    -0.241 OA
ATOM      3  C   UNL     1     -33.197  19.008   0.592  0.00  0.00    +0.041 C 
ATOM      4  C   UNL     1     -34.116  18.027   0.235  0.00  0.00    +0.152 C 
ATOM      5  C   UNL     1     -34.936  20.697   0.503  0.00  0.00    +0.221 C 
ATOM      6  C   UNL     1     -33.654  20.382   0.722  0.00  0.00    +0.047 C 
ATOM      7  C   UNL     1     -31.868  18.640   0.813  0.00  0.00    +0.043 C 
ATOM      8  C   UNL     1     -33.745  16.691   0.092  0.00  0.00    +0.077 C 
ATOM      9  C   UNL     1     -31.480  17.303   0.674  0.00  0.00    +0.168 C 
ATOM     10  C   UNL     1     -32.418  16.332   0.315  0.00  0.00    +0.171 C 
ATOM     11  C   UNL     1     -35.929  19.667   0.122  0.00  0.00    +0.381 C 
ENDROOT
BRANCH   9  12
ATOM     12  O   UNL     1     -30.180  16.960   0.892  0.00  0.00    -0.503 OA
ATOM     13  H   UNL     1     -29.748  16.366   0.310  0.00  0.00    +0.292 HD
ENDBRANCH   9  12
BRANCH  10  14
ATOM     14  O   UNL     1     -32.044  15.029   0.177  0.00  0.00    -0.503 OA
ATOM     15  H   UNL     1     -31.134  14.805   0.130  0.00  0.00    +0.292 HD
ENDBRANCH  10  14
BRANCH   5  16
ATOM     16  O   UNL     1     -35.406  21.990   0.618  0.00  0.00    -0.447 OA
BRANCH  16  20
ATOM     17  O   UNL     1     -34.127  25.709   3.341  0.00  0.00    -0.421 OA
ATOM     18  O   UNL     1     -33.522  27.482   4.660  0.00  0.00    -0.244 OA
ATOM     19  C   UNL     1     -35.136  23.753   4.379  0.00  0.00    +0.035 C 
ATOM     20  C   UNL     1     -35.315  22.572   1.850  0.00  0.00    +0.149 C 
ATOM     21  C   UNL     1     -34.686  24.418   3.243  0.00  0.00    +0.152 C 
ATOM     22  C   UNL     1     -34.767  23.845   1.976  0.00  0.00    +0.075 C 
ATOM     23  C   UNL     1     -35.684  22.475   4.240  0.00  0.00    +0.006 C 
ATOM     24  C   UNL     1     -35.772  21.887   2.976  0.00  0.00    +0.038 C 
ATOM     25  C   UNL     1     -35.020  24.410   5.669  0.00  0.00    +0.010 C 
ATOM     26  C   UNL     1     -34.489  25.632   5.755  0.00  0.00    +0.082 C 
ATOM     27  C   UNL     1     -34.006  26.359   4.566  0.00  0.00    +0.346 C 
ENDBRANCH  16  20
ENDBRANCH   5  16
TORSDOF 4
ENDMDL
MODEL 6
REMARK VINA RESULT:      -6.9      1.774      7.668
REMARK  Name = 5491526
REMARK  4 active torsions:
REMARK  status: ('A' for Active; 'I' for Inactive)
REMARK    1  A    between atoms: C_5  and  O_16
REMARK    2  A    between atoms: C_9  and  O_12
REMARK    3  A    between atoms: C_10  and  O_14
REMARK    4  A    between atoms: O_16  and  C_20
REMARK                            x       y       z     vdW  Elec       q    Type
REMARK                         _______ _______ _______ _____ _____    ______ ____
ROOT
ATOM      1  O   UNL     1     -34.867  20.463  -0.620  0.00  0.00    -0.419 OA
ATOM      2  O   UNL     1     -36.621  21.822  -0.068  0.00  0.00    -0.241 OA
ATOM      3  C   UNL     1     -33.678  19.271   1.133  0.00  0.00    +0.041 C 
ATOM      4  C   UNL     1     -33.848  19.581  -0.212  0.00  0.00    +0.152 C 
ATOM      5  C   UNL     1     -35.538  20.714   1.721  0.00  0.00    +0.221 C 
ATOM      6  C   UNL     1     -34.571  19.875   2.109  0.00  0.00    +0.047 C 
ATOM      7  C   UNL     1     -32.657  18.392   1.500  0.00  0.00    +0.043 C 
ATOM      8  C   UNL     1     -33.028  19.038  -1.199  0.00  0.00    +0.077 C 
ATOM      9  C   UNL     1     -31.826  17.838   0.521  0.00  0.00    +0.168 C 
ATOM     10  C   UNL     1     -32.012  18.161  -0.826  0.00  0.00    +0.171 C 
ATOM     11  C   UNL     1     -35.735  21.055   0.294  0.00  0.00    +0.381 C 
ENDROOT
BRANCH   9  12
ATOM     12  O   UNL     1     -30.833  16.983   0.895  0.00  0.00    -0.503 OA
ATOM     13  H   UNL     1     -29.997  17.023   0.475  0.00  0.00    +0.292 HD
ENDBRANCH   9  12
BRANCH  10  14
ATOM     14  O   UNL     1     -31.203  17.626  -1.782  0.00  0.00    -0.503 OA
ATOM     15  H   UNL     1     -30.273  17.730  -1.721  0.00  0.00    +0.292 HD
ENDBRANCH  10  14
BRANCH   5  16
ATOM     16  O   UNL     1     -36.405  21.305   2.618  0.00  0.00    -0.447 OA
BRANCH  16  20
ATOM     17  O   UNL     1     -34.928  25.799   3.329  0.00  0.00    -0.421 OA
ATOM     18  O   UNL     1     -34.218  27.947   3.688  0.00  0.00    -0.244 OA
ATOM     19  C   UNL     1     -34.808  24.194   5.155  0.00  0.00    +0.035 C 
ATOM     20  C   UNL     1     -35.881  22.255   3.447  0.00  0.00    +0.149 C 
ATOM     21  C   UNL     1     -35.133  24.499   3.836  0.00  0.00    +0.152 C 
ATOM     22  C   UNL     1     -35.668  23.546   2.972  0.00  0.00    +0.075 C 
ATOM     23  C   UNL     1     -35.027  22.895   5.619  0.00  0.00    +0.006 C 
ATOM     24  C   UNL     1     -35.562  21.928   4.765  0.00  0.00    +0.038 C 
ATOM     25  C   UNL     1     -34.254  25.236   6.000  0.00  0.00    +0.010 C 
ATOM     26  C   UNL     1     -34.062  26.465   5.513  0.00  0.00    +0.082 C 
ATOM     27  C   UNL     1     -34.398  26.814   4.120  0.00  0.00    +0.346 C 
ENDBRANCH  16  20
ENDBRANCH   5  16
TORSDOF 4
ENDMDL
MODEL 7
REMARK VINA RESULT:      -6.9      2.755      7.484
REMARK  Name = 5491526
REMARK  4 active torsions:
REMARK  status: ('A' for Active; 'I' for Inactive)
REMARK    1  A    between atoms: C_5  and  O_16
REMARK    2  A    between atoms: C_9  and  O_12
REMARK    3  A    between atoms: C_10  and  O_14
REMARK    4  A    between atoms: O_16  and  C_20
REMARK                            x       y       z     vdW  Elec       q    Type
REMARK                         _______ _______ _______ _____ _____    ______ ____
ROOT
ATOM      1  O   UNL     1     -37.985  22.282   2.094  0.00  0.00    -0.419 OA
ATOM      2  O   UNL     1     -38.659  24.083   3.331  0.00  0.00    -0.241 OA
ATOM      3  C   UNL     1     -35.815  21.277   2.527  0.00  0.00    +0.041 C 
ATOM      4  C   UNL     1     -37.007  21.310   1.810  0.00  0.00    +0.152 C 
ATOM      5  C   UNL     1     -36.528  23.189   3.839  0.00  0.00    +0.221 C 
ATOM      6  C   UNL     1     -35.598  22.265   3.571  0.00  0.00    +0.047 C 
ATOM      7  C   UNL     1     -34.868  20.298   2.218  0.00  0.00    +0.043 C 
ATOM      8  C   UNL     1     -37.279  20.394   0.796  0.00  0.00    +0.077 C 
ATOM      9  C   UNL     1     -35.127  19.371   1.203  0.00  0.00    +0.168 C 
ATOM     10  C   UNL     1     -36.330  19.419   0.494  0.00  0.00    +0.171 C 
ATOM     11  C   UNL     1     -37.803  23.239   3.089  0.00  0.00    +0.381 C 
ENDROOT
BRANCH   9  12
ATOM     12  O   UNL     1     -34.193  18.422   0.912  0.00  0.00    -0.503 OA
ATOM     13  H   UNL     1     -34.364  17.522   1.105  0.00  0.00    +0.292 HD
ENDBRANCH   9  12
BRANCH  10  14
ATOM     14  O   UNL     1     -36.585  18.520  -0.496  0.00  0.00    -0.503 OA
ATOM     15  H   UNL     1     -36.076  18.533  -1.283  0.00  0.00    +0.292 HD
ENDBRANCH  10  14
BRANCH   5  16
ATOM     16  O   UNL     1     -36.357  24.141   4.824  0.00  0.00    -0.447 OA
BRANCH  16  20
ATOM     17  O   UNL     1     -32.733  27.029   6.013  0.00  0.00    -0.421 OA
ATOM     18  O   UNL     1     -30.999  28.420   6.565  0.00  0.00    -0.244 OA
ATOM     19  C   UNL     1     -33.893  27.366   3.900  0.00  0.00    +0.035 C 
ATOM     20  C   UNL     1     -35.547  25.199   4.525  0.00  0.00    +0.149 C 
ATOM     21  C   UNL     1     -33.735  26.663   5.091  0.00  0.00    +0.152 C 
ATOM     22  C   UNL     1     -34.550  25.581   5.418  0.00  0.00    +0.075 C 
ATOM     23  C   UNL     1     -34.897  26.972   3.012  0.00  0.00    +0.006 C 
ATOM     24  C   UNL     1     -35.722  25.889   3.326  0.00  0.00    +0.038 C 
ATOM     25  C   UNL     1     -33.008  28.484   3.623  0.00  0.00    +0.010 C 
ATOM     26  C   UNL     1     -32.062  28.825   4.501  0.00  0.00    +0.082 C 
ATOM     27  C   UNL     1     -31.873  28.096   5.769  0.00  0.00    +0.346 C 
ENDBRANCH  16  20
ENDBRANCH   5  16
TORSDOF 4
ENDMDL
MODEL 8
REMARK VINA RESULT:      -6.9      1.518      2.078
REMARK  Name = 5491526
REMARK  4 active torsions:
REMARK  status: ('A' for Active; 'I' for Inactive)
REMARK    1  A    between atoms: C_5  and  O_16
REMARK    2  A    between atoms: C_9  and  O_12
REMARK    3  A    between atoms: C_10  and  O_14
REMARK    4  A    between atoms: O_16  and  C_20
REMARK                            x       y       z     vdW  Elec       q    Type
REMARK                         _______ _______ _______ _____ _____    ______ ____
ROOT
ATOM      1  O   UNL     1     -36.819  21.551   0.778  0.00  0.00    -0.419 OA
ATOM      2  O   UNL     1     -36.334  19.999  -0.831  0.00  0.00    -0.241 OA
ATOM      3  C   UNL     1     -35.630  21.491   2.897  0.00  0.00    +0.041 C 
ATOM      4  C   UNL     1     -36.582  22.071   2.064  0.00  0.00    +0.152 C 
ATOM      5  C   UNL     1     -35.115  19.843   1.192  0.00  0.00    +0.221 C 
ATOM      6  C   UNL     1     -34.888  20.337   2.415  0.00  0.00    +0.047 C 
ATOM      7  C   UNL     1     -35.422  22.035   4.166  0.00  0.00    +0.043 C 
ATOM      8  C   UNL     1     -37.329  23.177   2.464  0.00  0.00    +0.077 C 
ATOM      9  C   UNL     1     -36.164  23.146   4.581  0.00  0.00    +0.168 C 
ATOM     10  C   UNL     1     -37.114  23.715   3.731  0.00  0.00    +0.171 C 
ATOM     11  C   UNL     1     -36.123  20.447   0.292  0.00  0.00    +0.381 C 
ENDROOT
BRANCH   9  12
ATOM     12  O   UNL     1     -35.949  23.664   5.823  0.00  0.00    -0.503 OA
ATOM     13  H   UNL     1     -35.078  23.860   6.105  0.00  0.00    +0.292 HD
ENDBRANCH   9  12
BRANCH  10  14
ATOM     14  O   UNL     1     -37.840  24.796   4.132  0.00  0.00    -0.503 OA
ATOM     15  H   UNL     1     -38.688  24.675   4.515  0.00  0.00    +0.292 HD
ENDBRANCH  10  14
BRANCH   5  16
ATOM     16  O   UNL     1     -34.429  18.751   0.700  0.00  0.00    -0.447 OA
BRANCH  16  20
ATOM     17  O   UNL     1     -29.928  17.260   1.341  0.00  0.00    -0.421 OA
ATOM     18  O   UNL     1     -27.767  16.559   1.637  0.00  0.00    -0.244 OA
ATOM     19  C   UNL     1     -30.354  19.253   0.012  0.00  0.00    +0.035 C 
ATOM     20  C   UNL     1     -33.091  18.912   0.478  0.00  0.00    +0.149 C 
ATOM     21  C   UNL     1     -30.825  18.192   0.779  0.00  0.00    +0.152 C 
ATOM     22  C   UNL     1     -32.185  18.007   1.021  0.00  0.00    +0.075 C 
ATOM     23  C   UNL     1     -31.274  20.155  -0.529  0.00  0.00    +0.006 C 
ATOM     24  C   UNL     1     -32.641  19.983  -0.295  0.00  0.00    +0.038 C 
ATOM     25  C   UNL     1     -28.924  19.385  -0.200  0.00  0.00    +0.010 C 
ATOM     26  C   UNL     1     -28.080  18.500   0.336  0.00  0.00    +0.082 C 
ATOM     27  C   UNL     1     -28.553  17.366   1.152  0.00  0.00    +0.346 C 
ENDBRANCH  16  20
ENDBRANCH   5  16
TORSDOF 4
ENDMDL
MODEL 9
REMARK VINA RESULT:      -6.8      4.492      9.401
REMARK  Name = 5491526
REMARK  4 active torsions:
REMARK  status: ('A' for Active; 'I' for Inactive)
REMARK    1  A    between atoms: C_5  and  O_16
REMARK    2  A    between atoms: C_9  and  O_12
REMARK    3  A    between atoms: C_10  and  O_14
REMARK    4  A    between atoms: O_16  and  C_20
REMARK                            x       y       z     vdW  Elec       q    Type
REMARK                         _______ _______ _______ _____ _____    ______ ____
ROOT
ATOM      1  O   UNL     1     -33.934  25.825   5.724  0.00  0.00    -0.419 OA
ATOM      2  O   UNL     1     -32.928  27.871   5.546  0.00  0.00    -0.241 OA
ATOM      3  C   UNL     1     -34.699  24.688   3.717  0.00  0.00    +0.041 C 
ATOM      4  C   UNL     1     -34.547  24.723   5.099  0.00  0.00    +0.152 C 
ATOM      5  C   UNL     1     -33.633  26.860   3.526  0.00  0.00    +0.221 C 
ATOM      6  C   UNL     1     -34.215  25.812   2.931  0.00  0.00    +0.047 C 
ATOM      7  C   UNL     1     -35.311  23.578   3.132  0.00  0.00    +0.043 C 
ATOM      8  C   UNL     1     -34.989  23.680   5.912  0.00  0.00    +0.077 C 
ATOM      9  C   UNL     1     -35.759  22.523   3.934  0.00  0.00    +0.168 C 
ATOM     10  C   UNL     1     -35.598  22.575   5.321  0.00  0.00    +0.171 C 
ATOM     11  C   UNL     1     -33.462  26.914   4.996  0.00  0.00    +0.381 C 
ENDROOT
BRANCH   9  12
ATOM     12  O   UNL     1     -36.356  21.447   3.348  0.00  0.00    -0.503 OA
ATOM     13  H   UNL     1     -35.837  20.719   3.068  0.00  0.00    +0.292 HD
ENDBRANCH   9  12
BRANCH  10  14
ATOM     14  O   UNL     1     -36.035  21.551   6.105  0.00  0.00    -0.503 OA
ATOM     15  H   UNL     1     -36.055  21.651   7.038  0.00  0.00    +0.292 HD
ENDBRANCH  10  14
BRANCH   5  16
ATOM     16  O   UNL     1     -33.161  27.943   2.813  0.00  0.00    -0.447 OA
BRANCH  16  20
ATOM     17  O   UNL     1     -37.176  29.584   0.795  0.00  0.00    -0.421 OA
ATOM     18  O   UNL     1     -39.096  30.386  -0.162  0.00  0.00    -0.244 OA
ATOM     19  C   UNL     1     -35.823  31.076   2.162  0.00  0.00    +0.035 C 
ATOM     20  C   UNL     1     -34.036  28.968   2.596  0.00  0.00    +0.149 C 
ATOM     21  C   UNL     1     -36.043  29.821   1.600  0.00  0.00    +0.152 C 
ATOM     22  C   UNL     1     -35.163  28.761   1.806  0.00  0.00    +0.075 C 
ATOM     23  C   UNL     1     -34.689  31.271   2.954  0.00  0.00    +0.006 C 
ATOM     24  C   UNL     1     -33.798  30.217   3.169  0.00  0.00    +0.038 C 
ATOM     25  C   UNL     1     -36.782  32.137   1.906  0.00  0.00    +0.010 C 
ATOM     26  C   UNL     1     -37.853  31.905   1.142  0.00  0.00    +0.082 C 
ATOM     27  C   UNL     1     -38.108  30.585   0.536  0.00  0.00    +0.346 C 
ENDBRANCH  16  20
ENDBRANCH   5  16
TORSDOF 4
ENDMDL
