MODEL 1
REMARK VINA RESULT:      -7.0      0.000      0.000
REMARK  Name = 21574191
REMARK  5 active torsions:
REMARK  status: ('A' for Active; 'I' for Inactive)
REMARK    1  A    between atoms: C_7  and  C_32
REMARK    2  A    between atoms: C_10  and  O_28
REMARK    3  A    between atoms: C_26  and  O_30
REMARK    4  A    between atoms: C_32  and  C_33
REMARK    5  A    between atoms: C_34  and  O_39
REMARK                            x       y       z     vdW  Elec       q    Type
REMARK                         _______ _______ _______ _____ _____    ______ ____
ROOT
ATOM      1  O   UNL     1     -33.639  28.106   4.008  0.00  0.00    -0.443 OA
ATOM      2  O   UNL     1     -35.193  30.508   3.317  0.00  0.00    -0.271 OA
ATOM      3  O   UNL     1     -32.193  26.438   3.297  0.00  0.00    -0.245 OA
ATOM      4  N   UNL     1     -33.184  31.161   4.274  0.00  0.00    -0.303 N 
ATOM      5  C   UNL     1     -31.702  29.560   3.388  0.00  0.00    +0.068 C 
ATOM      6  C   UNL     1     -33.174  29.122   3.088  0.00  0.00    +0.211 C 
ATOM      7  C   UNL     1     -31.851  30.658   4.460  0.00  0.00    +0.080 C 
ATOM      8  C   UNL     1     -30.948  29.989   2.091  0.00  0.00    +0.026 C 
ATOM      9  C   UNL     1     -33.412  28.748   1.600  0.00  0.00    +0.098 C 
ATOM     10  C   UNL     1     -33.063  29.935   0.662  0.00  0.00    +0.137 C 
ATOM     11  C   UNL     1     -34.004  30.325   3.536  0.00  0.00    +0.259 C 
ATOM     12  C   UNL     1     -31.875  30.743   1.155  0.00  0.00    -0.018 C 
ATOM     13  C   UNL     1     -29.588  30.639   2.376  0.00  0.00    +0.005 C 
ATOM     14  C   UNL     1     -34.809  28.229   1.306  0.00  0.00    -0.024 C 
ATOM     15  C   UNL     1     -31.733  32.028   0.796  0.00  0.00    -0.007 C 
ATOM     16  C   UNL     1     -35.067  26.953   0.979  0.00  0.00    -0.030 C 
ATOM     17  C   UNL     1     -33.129  26.849   3.963  0.00  0.00    +0.341 C 
ATOM     18  C   UNL     1     -36.434  26.411   0.666  0.00  0.00    +0.026 C 
ATOM     19  C   UNL     1     -36.849  25.247   1.597  0.00  0.00    +0.004 C 
ATOM     20  C   UNL     1     -33.993  26.016   4.820  0.00  0.00    +0.080 C 
ATOM     21  C   UNL     1     -37.154  25.756   3.023  0.00  0.00    +0.000 C 
ATOM     22  C   UNL     1     -37.521  24.684   4.060  0.00  0.00    +0.003 C 
ATOM     23  C   UNL     1     -38.059  24.525   0.994  0.00  0.00    +0.000 C 
ATOM     24  C   UNL     1     -34.298  24.779   4.408  0.00  0.00    +0.009 C 
ATOM     25  C   UNL     1     -36.520  23.543   4.281  0.00  0.00    +0.034 C 
ATOM     26  C   UNL     1     -35.280  23.897   5.120  0.00  0.00    +0.133 C 
ATOM     27  H   UNL     1     -33.487  32.023   4.640  0.00  0.00    +0.149 HD
ENDROOT
BRANCH  10  28
ATOM     28  O   UNL     1     -32.766  29.423  -0.639  0.00  0.00    -0.380 OA
ATOM     29  H   UNL     1     -33.427  29.745  -1.273  0.00  0.00    +0.211 HD
ENDBRANCH  10  28
BRANCH  26  30
ATOM     30  O   UNL     1     -34.608  22.682   5.464  0.00  0.00    -0.380 OA
ATOM     31  H   UNL     1     -34.716  22.511   6.413  0.00  0.00    +0.211 HD
ENDBRANCH  26  30
BRANCH   7  32
ATOM     32  C   UNL     1     -31.680  30.113   5.877  0.00  0.00    +0.049 C 
BRANCH  32  33
ATOM     33  C   UNL     1     -30.282  29.613   6.114  0.00  0.00    +0.013 C 
ATOM     34  C   UNL     1     -30.053  28.288   6.483  0.00  0.00    +0.130 C 
ATOM     35  C   UNL     1     -29.209  30.491   5.962  0.00  0.00    -0.001 C 
ATOM     36  C   UNL     1     -28.748  27.840   6.700  0.00  0.00    +0.036 C 
ATOM     37  C   UNL     1     -27.906  30.043   6.180  0.00  0.00    -0.000 C 
ATOM     38  C   UNL     1     -27.676  28.718   6.548  0.00  0.00    +0.003 C 
BRANCH  34  39
ATOM     39  O   UNL     1     -31.089  27.417   6.633  0.00  0.00    -0.506 OA
ATOM     40  H   UNL     1     -31.017  26.542   6.308  0.00  0.00    +0.292 HD
ENDBRANCH  34  39
ENDBRANCH  32  33
ENDBRANCH   7  32
TORSDOF 5
ENDMDL
MODEL 2
REMARK VINA RESULT:      -7.0      7.315     10.336
REMARK  Name = 21574191
REMARK  5 active torsions:
REMARK  status: ('A' for Active; 'I' for Inactive)
REMARK    1  A    between atoms: C_7  and  C_32
REMARK    2  A    between atoms: C_10  and  O_28
REMARK    3  A    between atoms: C_26  and  O_30
REMARK    4  A    between atoms: C_32  and  C_33
REMARK    5  A    between atoms: C_34  and  O_39
REMARK                            x       y       z     vdW  Elec       q    Type
REMARK                         _______ _______ _______ _____ _____    ______ ____
ROOT
ATOM      1  O   UNL     1     -33.734  19.007   0.535  0.00  0.00    -0.443 OA
ATOM      2  O   UNL     1     -36.329  17.777  -0.110  0.00  0.00    -0.271 OA
ATOM      3  O   UNL     1     -32.050  20.470  -0.098  0.00  0.00    -0.245 OA
ATOM      4  N   UNL     1     -36.681  19.573   1.314  0.00  0.00    -0.303 N 
ATOM      5  C   UNL     1     -35.082  21.113   0.528  0.00  0.00    +0.068 C 
ATOM      6  C   UNL     1     -34.813  19.714  -0.120  0.00  0.00    +0.211 C 
ATOM      7  C   UNL     1     -36.045  20.805   1.692  0.00  0.00    +0.080 C 
ATOM      8  C   UNL     1     -35.603  22.147  -0.517  0.00  0.00    +0.026 C 
ATOM      9  C   UNL     1     -34.650  19.774  -1.663  0.00  0.00    +0.098 C 
ATOM     10  C   UNL     1     -35.911  20.382  -2.336  0.00  0.00    +0.137 C 
ATOM     11  C   UNL     1     -36.018  18.880   0.316  0.00  0.00    +0.259 C 
ATOM     12  C   UNL     1     -36.546  21.484  -1.505  0.00  0.00    -0.018 C 
ATOM     13  C   UNL     1     -36.093  23.452   0.124  0.00  0.00    +0.005 C 
ATOM     14  C   UNL     1     -34.295  18.442  -2.302  0.00  0.00    -0.024 C 
ATOM     15  C   UNL     1     -37.849  21.774  -1.645  0.00  0.00    -0.007 C 
ATOM     16  C   UNL     1     -33.098  18.184  -2.850  0.00  0.00    -0.030 C 
ATOM     17  C   UNL     1     -32.453  19.440   0.417  0.00  0.00    +0.341 C 
ATOM     18  C   UNL     1     -32.719  16.885  -3.505  0.00  0.00    +0.026 C 
ATOM     19  C   UNL     1     -31.488  16.216  -2.849  0.00  0.00    +0.004 C 
ATOM     20  C   UNL     1     -31.598  18.367   0.958  0.00  0.00    +0.080 C 
ATOM     21  C   UNL     1     -31.839  15.647  -1.457  0.00  0.00    +0.000 C 
ATOM     22  C   UNL     1     -30.682  15.007  -0.676  0.00  0.00    +0.003 C 
ATOM     23  C   UNL     1     -30.955  15.120  -3.779  0.00  0.00    +0.000 C 
ATOM     24  C   UNL     1     -30.453  18.085   0.323  0.00  0.00    +0.009 C 
ATOM     25  C   UNL     1     -29.439  15.870  -0.421  0.00  0.00    +0.034 C 
ATOM     26  C   UNL     1     -29.577  16.924   0.691  0.00  0.00    +0.133 C 
ATOM     27  H   UNL     1     -37.514  19.251   1.728  0.00  0.00    +0.149 HD
ENDROOT
BRANCH  10  28
ATOM     28  O   UNL     1     -35.542  20.916  -3.610  0.00  0.00    -0.380 OA
ATOM     29  H   UNL     1     -35.048  20.248  -4.110  0.00  0.00    +0.211 HD
ENDBRANCH  10  28
BRANCH  26  30
ATOM     30  O   UNL     1     -28.275  17.436   0.990  0.00  0.00    -0.380 OA
ATOM     31  H   UNL     1     -28.299  17.902   1.841  0.00  0.00    +0.211 HD
ENDBRANCH  26  30
BRANCH   7  32
ATOM     32  C   UNL     1     -35.315  20.641   3.023  0.00  0.00    +0.049 C 
BRANCH  32  33
ATOM     33  C   UNL     1     -35.438  21.871   3.878  0.00  0.00    +0.013 C 
ATOM     34  C   UNL     1     -35.372  21.782   5.268  0.00  0.00    +0.130 C 
ATOM     35  C   UNL     1     -35.620  23.111   3.266  0.00  0.00    -0.001 C 
ATOM     36  C   UNL     1     -35.488  22.934   6.048  0.00  0.00    +0.036 C 
ATOM     37  C   UNL     1     -35.738  24.263   4.046  0.00  0.00    -0.000 C 
ATOM     38  C   UNL     1     -35.671  24.173   5.436  0.00  0.00    +0.003 C 
BRANCH  34  39
ATOM     39  O   UNL     1     -35.192  20.579   5.881  0.00  0.00    -0.506 OA
ATOM     40  H   UNL     1     -34.999  19.817   5.371  0.00  0.00    +0.292 HD
ENDBRANCH  34  39
ENDBRANCH  32  33
ENDBRANCH   7  32
TORSDOF 5
ENDMDL
MODEL 3
REMARK VINA RESULT:      -6.9      3.805      7.427
REMARK  Name = 21574191
REMARK  5 active torsions:
REMARK  status: ('A' for Active; 'I' for Inactive)
REMARK    1  A    between atoms: C_7  and  C_32
REMARK    2  A    between atoms: C_10  and  O_28
REMARK    3  A    between atoms: C_26  and  O_30
REMARK    4  A    between atoms: C_32  and  C_33
REMARK    5  A    between atoms: C_34  and  O_39
REMARK                            x       y       z     vdW  Elec       q    Type
REMARK                         _______ _______ _______ _____ _____    ______ ____
ROOT
ATOM      1  O   UNL     1     -38.161  25.124   1.976  0.00  0.00    -0.443 OA
ATOM      2  O   UNL     1     -36.400  24.171  -0.182  0.00  0.00    -0.271 OA
ATOM      3  O   UNL     1     -39.564  24.582   3.741  0.00  0.00    -0.245 OA
ATOM      4  N   UNL     1     -35.103  24.720   1.661  0.00  0.00    -0.303 N 
ATOM      5  C   UNL     1     -36.473  23.990   3.431  0.00  0.00    +0.068 C 
ATOM      6  C   UNL     1     -37.297  23.970   2.100  0.00  0.00    +0.211 C 
ATOM      7  C   UNL     1     -35.230  24.833   3.087  0.00  0.00    +0.080 C 
ATOM      8  C   UNL     1     -36.182  22.550   3.955  0.00  0.00    +0.026 C 
ATOM      9  C   UNL     1     -38.038  22.627   1.857  0.00  0.00    +0.098 C 
ATOM     10  C   UNL     1     -37.042  21.436   1.824  0.00  0.00    +0.137 C 
ATOM     11  C   UNL     1     -36.249  24.271   1.027  0.00  0.00    +0.259 C 
ATOM     12  C   UNL     1     -35.891  21.606   2.802  0.00  0.00    -0.018 C 
ATOM     13  C   UNL     1     -35.188  22.527   5.124  0.00  0.00    +0.005 C 
ATOM     14  C   UNL     1     -38.918  22.619   0.619  0.00  0.00    -0.024 C 
ATOM     15  C   UNL     1     -34.721  20.984   2.588  0.00  0.00    -0.007 C 
ATOM     16  C   UNL     1     -40.259  22.587   0.669  0.00  0.00    -0.030 C 
ATOM     17  C   UNL     1     -39.243  25.265   2.783  0.00  0.00    +0.341 C 
ATOM     18  C   UNL     1     -41.158  22.561  -0.535  0.00  0.00    +0.026 C 
ATOM     19  C   UNL     1     -42.149  23.749  -0.573  0.00  0.00    +0.004 C 
ATOM     20  C   UNL     1     -40.041  26.372   2.222  0.00  0.00    +0.080 C 
ATOM     21  C   UNL     1     -41.420  25.072  -0.893  0.00  0.00    +0.000 C 
ATOM     22  C   UNL     1     -42.289  26.339  -0.900  0.00  0.00    +0.003 C 
ATOM     23  C   UNL     1     -43.247  23.457  -1.602  0.00  0.00    +0.000 C 
ATOM     24  C   UNL     1     -41.375  26.254   2.211  0.00  0.00    +0.009 C 
ATOM     25  C   UNL     1     -43.089  26.655   0.371  0.00  0.00    +0.034 C 
ATOM     26  C   UNL     1     -42.279  27.244   1.538  0.00  0.00    +0.133 C 
ATOM     27  H   UNL     1     -34.276  24.942   1.176  0.00  0.00    +0.149 HD
ENDROOT
BRANCH  10  28
ATOM     28  O   UNL     1     -37.748  20.235   2.146  0.00  0.00    -0.380 OA
ATOM     29  H   UNL     1     -38.555  20.456   2.638  0.00  0.00    +0.211 HD
ENDBRANCH  10  28
BRANCH  26  30
ATOM     30  O   UNL     1     -43.196  27.736   2.519  0.00  0.00    -0.380 OA
ATOM     31  H   UNL     1     -43.644  26.988   2.947  0.00  0.00    +0.211 HD
ENDBRANCH  26  30
BRANCH   7  32
ATOM     32  C   UNL     1     -35.390  26.297   3.493  0.00  0.00    +0.049 C 
BRANCH  32  33
ATOM     33  C   UNL     1     -34.317  26.727   4.454  0.00  0.00    +0.013 C 
ATOM     34  C   UNL     1     -33.342  27.647   4.068  0.00  0.00    +0.130 C 
ATOM     35  C   UNL     1     -34.303  26.194   5.743  0.00  0.00    -0.001 C 
ATOM     36  C   UNL     1     -32.353  28.035   4.973  0.00  0.00    +0.036 C 
ATOM     37  C   UNL     1     -33.312  26.581   6.647  0.00  0.00    -0.000 C 
ATOM     38  C   UNL     1     -32.338  27.502   6.261  0.00  0.00    +0.003 C 
BRANCH  34  39
ATOM     39  O   UNL     1     -33.343  28.178   2.814  0.00  0.00    -0.506 OA
ATOM     40  H   UNL     1     -33.206  29.097   2.694  0.00  0.00    +0.292 HD
ENDBRANCH  34  39
ENDBRANCH  32  33
ENDBRANCH   7  32
TORSDOF 5
ENDMDL
MODEL 4
REMARK VINA RESULT:      -6.9      6.387      9.921
REMARK  Name = 21574191
REMARK  5 active torsions:
REMARK  status: ('A' for Active; 'I' for Inactive)
REMARK    1  A    between atoms: C_7  and  C_32
REMARK    2  A    between atoms: C_10  and  O_28
REMARK    3  A    between atoms: C_26  and  O_30
REMARK    4  A    between atoms: C_32  and  C_33
REMARK    5  A    between atoms: C_34  and  O_39
REMARK                            x       y       z     vdW  Elec       q    Type
REMARK                         _______ _______ _______ _____ _____    ______ ____
ROOT
ATOM      1  O   UNL     1     -35.189  21.327   0.981  0.00  0.00    -0.443 OA
ATOM      2  O   UNL     1     -35.714  21.618  -1.900  0.00  0.00    -0.271 OA
ATOM      3  O   UNL     1     -35.727  20.268   2.973  0.00  0.00    -0.245 OA
ATOM      4  N   UNL     1     -33.912  20.188  -1.603  0.00  0.00    -0.303 N 
ATOM      5  C   UNL     1     -34.571  18.997   0.318  0.00  0.00    +0.068 C 
ATOM      6  C   UNL     1     -35.528  20.219   0.115  0.00  0.00    +0.211 C 
ATOM      7  C   UNL     1     -33.376  19.302  -0.608  0.00  0.00    +0.080 C 
ATOM      8  C   UNL     1     -35.295  17.642   0.051  0.00  0.00    +0.026 C 
ATOM      9  C   UNL     1     -37.031  19.838   0.178  0.00  0.00    +0.098 C 
ATOM     10  C   UNL     1     -37.383  18.769  -0.893  0.00  0.00    +0.137 C 
ATOM     11  C   UNL     1     -35.114  20.775  -1.248  0.00  0.00    +0.259 C 
ATOM     12  C   UNL     1     -36.261  17.768  -1.113  0.00  0.00    -0.018 C 
ATOM     13  C   UNL     1     -34.335  16.446   0.016  0.00  0.00    +0.005 C 
ATOM     14  C   UNL     1     -37.977  21.022   0.077  0.00  0.00    -0.024 C 
ATOM     15  C   UNL     1     -36.157  17.112  -2.279  0.00  0.00    -0.007 C 
ATOM     16  C   UNL     1     -38.726  21.456   1.103  0.00  0.00    -0.030 C 
ATOM     17  C   UNL     1     -35.388  21.242   2.321  0.00  0.00    +0.341 C 
ATOM     18  C   UNL     1     -39.683  22.613   1.034  0.00  0.00    +0.026 C 
ATOM     19  C   UNL     1     -39.358  23.727   2.057  0.00  0.00    +0.004 C 
ATOM     20  C   UNL     1     -35.207  22.603   2.859  0.00  0.00    +0.080 C 
ATOM     21  C   UNL     1     -38.080  24.496   1.654  0.00  0.00    +0.000 C 
ATOM     22  C   UNL     1     -37.616  25.593   2.624  0.00  0.00    +0.003 C 
ATOM     23  C   UNL     1     -40.560  24.670   2.175  0.00  0.00    +0.000 C 
ATOM     24  C   UNL     1     -36.038  23.024   3.821  0.00  0.00    +0.009 C 
ATOM     25  C   UNL     1     -37.359  25.185   4.081  0.00  0.00    +0.034 C 
ATOM     26  C   UNL     1     -36.044  24.432   4.340  0.00  0.00    +0.133 C 
ATOM     27  H   UNL     1     -33.464  20.363  -2.463  0.00  0.00    +0.149 HD
ENDROOT
BRANCH  10  28
ATOM     28  O   UNL     1     -38.555  18.065  -0.475  0.00  0.00    -0.380 OA
ATOM     29  H   UNL     1     -39.344  18.565  -0.738  0.00  0.00    +0.211 HD
ENDBRANCH  10  28
BRANCH  26  30
ATOM     30  O   UNL     1     -35.826  24.378   5.752  0.00  0.00    -0.380 OA
ATOM     31  H   UNL     1     -35.063  23.809   5.941  0.00  0.00    +0.211 HD
ENDBRANCH  26  30
BRANCH   7  32
ATOM     32  C   UNL     1     -32.222  19.972   0.135  0.00  0.00    +0.049 C 
BRANCH  32  33
ATOM     33  C   UNL     1     -30.959  19.162   0.043  0.00  0.00    +0.013 C 
ATOM     34  C   UNL     1     -30.752  18.067   0.881  0.00  0.00    +0.130 C 
ATOM     35  C   UNL     1     -29.988  19.518  -0.893  0.00  0.00    -0.001 C 
ATOM     36  C   UNL     1     -29.574  17.326   0.783  0.00  0.00    +0.036 C 
ATOM     37  C   UNL     1     -28.809  18.777  -0.990  0.00  0.00    -0.000 C 
ATOM     38  C   UNL     1     -28.603  17.681  -0.153  0.00  0.00    +0.003 C 
BRANCH  34  39
ATOM     39  O   UNL     1     -31.691  17.705   1.799  0.00  0.00    -0.506 OA
ATOM     40  H   UNL     1     -31.668  18.069   2.662  0.00  0.00    +0.292 HD
ENDBRANCH  34  39
ENDBRANCH  32  33
ENDBRANCH   7  32
TORSDOF 5
ENDMDL
MODEL 5
REMARK VINA RESULT:      -6.9      5.633      8.675
REMARK  Name = 21574191
REMARK  5 active torsions:
REMARK  status: ('A' for Active; 'I' for Inactive)
REMARK    1  A    between atoms: C_7  and  C_32
REMARK    2  A    between atoms: C_10  and  O_28
REMARK    3  A    between atoms: C_26  and  O_30
REMARK    4  A    between atoms: C_32  and  C_33
REMARK    5  A    between atoms: C_34  and  O_39
REMARK                            x       y       z     vdW  Elec       q    Type
REMARK                         _______ _______ _______ _____ _____    ______ ____
ROOT
ATOM      1  O   UNL     1     -35.711  20.768   0.953  0.00  0.00    -0.443 OA
ATOM      2  O   UNL     1     -38.526  20.372   0.190  0.00  0.00    -0.271 OA
ATOM      3  O   UNL     1     -33.647  21.681   0.418  0.00  0.00    -0.245 OA
ATOM      4  N   UNL     1     -38.388  22.163   1.657  0.00  0.00    -0.303 N 
ATOM      5  C   UNL     1     -36.378  23.177   0.969  0.00  0.00    +0.068 C 
ATOM      6  C   UNL     1     -36.508  21.775   0.286  0.00  0.00    +0.211 C 
ATOM      7  C   UNL     1     -37.433  23.144   2.093  0.00  0.00    +0.080 C 
ATOM      8  C   UNL     1     -36.531  24.340  -0.059  0.00  0.00    +0.026 C 
ATOM      9  C   UNL     1     -36.275  21.816  -1.248  0.00  0.00    +0.098 C 
ATOM     10  C   UNL     1     -37.274  22.783  -1.941  0.00  0.00    +0.137 C 
ATOM     11  C   UNL     1     -37.921  21.325   0.659  0.00  0.00    +0.259 C 
ATOM     12  C   UNL     1     -37.588  24.006  -1.096  0.00  0.00    -0.018 C 
ATOM     13  C   UNL     1     -36.639  25.719   0.607  0.00  0.00    +0.005 C 
ATOM     14  C   UNL     1     -36.303  20.453  -1.917  0.00  0.00    -0.024 C 
ATOM     15  C   UNL     1     -38.741  24.671  -1.266  0.00  0.00    -0.007 C 
ATOM     16  C   UNL     1     -35.214  19.864  -2.435  0.00  0.00    -0.030 C 
ATOM     17  C   UNL     1     -34.356  20.806   0.888  0.00  0.00    +0.341 C 
ATOM     18  C   UNL     1     -35.210  18.524  -3.118  0.00  0.00    +0.026 C 
ATOM     19  C   UNL     1     -34.256  17.508  -2.446  0.00  0.00    +0.004 C 
ATOM     20  C   UNL     1     -33.875  19.517   1.421  0.00  0.00    +0.080 C 
ATOM     21  C   UNL     1     -34.813  17.040  -1.083  0.00  0.00    +0.000 C 
ATOM     22  C   UNL     1     -33.926  16.071  -0.287  0.00  0.00    +0.003 C 
ATOM     23  C   UNL     1     -34.034  16.323  -3.392  0.00  0.00    +0.000 C 
ATOM     24  C   UNL     1     -32.840  18.922   0.813  0.00  0.00    +0.009 C 
ATOM     25  C   UNL     1     -32.495  16.523   0.033  0.00  0.00    +0.034 C 
ATOM     26  C   UNL     1     -32.360  17.547   1.173  0.00  0.00    +0.133 C 
ATOM     27  H   UNL     1     -39.295  22.092   2.035  0.00  0.00    +0.149 HD
ENDROOT
BRANCH  10  28
ATOM     28  O   UNL     1     -36.715  23.210  -3.185  0.00  0.00    -0.380 OA
ATOM     29  H   UNL     1     -37.328  23.824  -3.621  0.00  0.00    +0.211 HD
ENDBRANCH  10  28
BRANCH  26  30
ATOM     30  O   UNL     1     -30.978  17.646   1.527  0.00  0.00    -0.380 OA
ATOM     31  H   UNL     1     -30.806  17.105   2.314  0.00  0.00    +0.211 HD
ENDBRANCH  26  30
BRANCH   7  32
ATOM     32  C   UNL     1     -36.835  22.744   3.440  0.00  0.00    +0.049 C 
BRANCH  32  33
ATOM     33  C   UNL     1     -36.099  23.887   4.081  0.00  0.00    +0.013 C 
ATOM     34  C   UNL     1     -36.785  25.016   4.528  0.00  0.00    +0.130 C 
ATOM     35  C   UNL     1     -34.714  23.810   4.226  0.00  0.00    -0.001 C 
ATOM     36  C   UNL     1     -36.086  26.068   5.120  0.00  0.00    +0.036 C 
ATOM     37  C   UNL     1     -34.015  24.863   4.818  0.00  0.00    -0.000 C 
ATOM     38  C   UNL     1     -34.702  25.991   5.265  0.00  0.00    +0.003 C 
BRANCH  34  39
ATOM     39  O   UNL     1     -38.138  25.106   4.396  0.00  0.00    -0.506 OA
ATOM     40  H   UNL     1     -38.668  24.336   4.462  0.00  0.00    +0.292 HD
ENDBRANCH  34  39
ENDBRANCH  32  33
ENDBRANCH   7  32
TORSDOF 5
ENDMDL
MODEL 6
REMARK VINA RESULT:      -6.6      5.761      9.334
REMARK  Name = 21574191
REMARK  5 active torsions:
REMARK  status: ('A' for Active; 'I' for Inactive)
REMARK    1  A    between atoms: C_7  and  C_32
REMARK    2  A    between atoms: C_10  and  O_28
REMARK    3  A    between atoms: C_26  and  O_30
REMARK    4  A    between atoms: C_32  and  C_33
REMARK    5  A    between atoms: C_34  and  O_39
REMARK                            x       y       z     vdW  Elec       q    Type
REMARK                         _______ _______ _______ _____ _____    ______ ____
ROOT
ATOM      1  O   UNL     1     -34.630  21.375   0.756  0.00  0.00    -0.443 OA
ATOM      2  O   UNL     1     -36.291  20.274   2.921  0.00  0.00    -0.271 OA
ATOM      3  O   UNL     1     -34.290  21.605  -1.527  0.00  0.00    -0.245 OA
ATOM      4  N   UNL     1     -36.897  22.483   2.557  0.00  0.00    -0.303 N 
ATOM      5  C   UNL     1     -36.721  22.636   0.214  0.00  0.00    +0.068 C 
ATOM      6  C   UNL     1     -36.074  21.293   0.694  0.00  0.00    +0.211 C 
ATOM      7  C   UNL     1     -36.863  23.463   1.507  0.00  0.00    +0.080 C 
ATOM      8  C   UNL     1     -38.044  22.393  -0.575  0.00  0.00    +0.026 C 
ATOM      9  C   UNL     1     -36.578  20.054  -0.093  0.00  0.00    +0.098 C 
ATOM     10  C   UNL     1     -38.121  19.910   0.017  0.00  0.00    +0.137 C 
ATOM     11  C   UNL     1     -36.428  21.236   2.180  0.00  0.00    +0.259 C 
ATOM     12  C   UNL     1     -38.835  21.252   0.038  0.00  0.00    -0.018 C 
ATOM     13  C   UNL     1     -38.819  23.687  -0.858  0.00  0.00    +0.005 C 
ATOM     14  C   UNL     1     -35.894  18.754   0.292  0.00  0.00    -0.024 C 
ATOM     15  C   UNL     1     -40.045  21.367   0.607  0.00  0.00    -0.007 C 
ATOM     16  C   UNL     1     -35.050  18.097  -0.519  0.00  0.00    -0.030 C 
ATOM     17  C   UNL     1     -33.895  21.462  -0.382  0.00  0.00    +0.341 C 
ATOM     18  C   UNL     1     -34.369  16.801  -0.177  0.00  0.00    +0.026 C 
ATOM     19  C   UNL     1     -32.826  16.897  -0.235  0.00  0.00    +0.004 C 
ATOM     20  C   UNL     1     -32.489  21.251   0.012  0.00  0.00    +0.080 C 
ATOM     21  C   UNL     1     -32.275  17.732   0.941  0.00  0.00    +0.000 C 
ATOM     22  C   UNL     1     -30.755  17.951   0.962  0.00  0.00    +0.003 C 
ATOM     23  C   UNL     1     -32.233  15.483  -0.239  0.00  0.00    +0.000 C 
ATOM     24  C   UNL     1     -31.707  20.512  -0.786  0.00  0.00    +0.009 C 
ATOM     25  C   UNL     1     -30.116  18.591  -0.278  0.00  0.00    +0.034 C 
ATOM     26  C   UNL     1     -30.310  20.110  -0.419  0.00  0.00    +0.133 C 
ATOM     27  H   UNL     1     -37.223  22.680   3.465  0.00  0.00    +0.149 HD
ENDROOT
BRANCH  10  28
ATOM     28  O   UNL     1     -38.595  19.152  -1.098  0.00  0.00    -0.380 OA
ATOM     29  H   UNL     1     -39.140  18.415  -0.780  0.00  0.00    +0.211 HD
ENDBRANCH  10  28
BRANCH  26  30
ATOM     30  O   UNL     1     -29.435  20.582  -1.447  0.00  0.00    -0.380 OA
ATOM     31  H   UNL     1     -28.962  19.831  -1.840  0.00  0.00    +0.211 HD
ENDBRANCH  26  30
BRANCH   7  32
ATOM     32  C   UNL     1     -35.695  24.425   1.714  0.00  0.00    +0.049 C 
BRANCH  32  33
ATOM     33  C   UNL     1     -35.533  24.798   3.161  0.00  0.00    +0.013 C 
ATOM     34  C   UNL     1     -36.265  25.849   3.712  0.00  0.00    +0.130 C 
ATOM     35  C   UNL     1     -34.638  24.079   3.954  0.00  0.00    -0.001 C 
ATOM     36  C   UNL     1     -36.102  26.182   5.058  0.00  0.00    +0.036 C 
ATOM     37  C   UNL     1     -34.474  24.414   5.299  0.00  0.00    -0.000 C 
ATOM     38  C   UNL     1     -35.207  25.464   5.850  0.00  0.00    +0.003 C 
BRANCH  34  39
ATOM     39  O   UNL     1     -37.145  26.559   2.953  0.00  0.00    -0.506 OA
ATOM     40  H   UNL     1     -37.880  26.129   2.563  0.00  0.00    +0.292 HD
ENDBRANCH  34  39
ENDBRANCH  32  33
ENDBRANCH   7  32
TORSDOF 5
ENDMDL
MODEL 7
REMARK VINA RESULT:      -6.6      4.988      9.023
REMARK  Name = 21574191
REMARK  5 active torsions:
REMARK  status: ('A' for Active; 'I' for Inactive)
REMARK    1  A    between atoms: C_7  and  C_32
REMARK    2  A    between atoms: C_10  and  O_28
REMARK    3  A    between atoms: C_26  and  O_30
REMARK    4  A    between atoms: C_32  and  C_33
REMARK    5  A    between atoms: C_34  and  O_39
REMARK                            x       y       z     vdW  Elec       q    Type
REMARK                         _______ _______ _______ _____ _____    ______ ____
ROOT
ATOM      1  O   UNL     1     -38.315  22.981   0.279  0.00  0.00    -0.443 OA
ATOM      2  O   UNL     1     -36.185  22.269  -1.623  0.00  0.00    -0.271 OA
ATOM      3  O   UNL     1     -39.780  22.274   1.933  0.00  0.00    -0.245 OA
ATOM      4  N   UNL     1     -35.220  23.149   0.294  0.00  0.00    -0.303 N 
ATOM      5  C   UNL     1     -36.617  22.265   1.969  0.00  0.00    +0.068 C 
ATOM      6  C   UNL     1     -37.273  22.020   0.569  0.00  0.00    +0.211 C 
ATOM      7  C   UNL     1     -35.520  23.310   1.689  0.00  0.00    +0.080 C 
ATOM      8  C   UNL     1     -36.125  20.935   2.621  0.00  0.00    +0.026 C 
ATOM      9  C   UNL     1     -37.724  20.551   0.351  0.00  0.00    +0.098 C 
ATOM     10  C   UNL     1     -36.529  19.570   0.501  0.00  0.00    +0.137 C 
ATOM     11  C   UNL     1     -36.188  22.459  -0.415  0.00  0.00    +0.259 C 
ATOM     12  C   UNL     1     -35.542  20.006   1.572  0.00  0.00    -0.018 C 
ATOM     13  C   UNL     1     -35.278  21.162   3.879  0.00  0.00    +0.005 C 
ATOM     14  C   UNL     1     -38.447  20.312  -0.963  0.00  0.00    -0.024 C 
ATOM     15  C   UNL     1     -34.262  19.607   1.517  0.00  0.00    -0.007 C 
ATOM     16  C   UNL     1     -39.757  20.028  -1.042  0.00  0.00    -0.030 C 
ATOM     17  C   UNL     1     -39.487  22.955   0.965  0.00  0.00    +0.341 C 
ATOM     18  C   UNL     1     -40.499  19.769  -2.323  0.00  0.00    +0.026 C 
ATOM     19  C   UNL     1     -41.681  20.744  -2.542  0.00  0.00    +0.004 C 
ATOM     20  C   UNL     1     -40.408  23.860   0.252  0.00  0.00    +0.080 C 
ATOM     21  C   UNL     1     -41.176  22.163  -2.882  0.00  0.00    +0.000 C 
ATOM     22  C   UNL     1     -42.257  23.240  -3.064  0.00  0.00    +0.003 C 
ATOM     23  C   UNL     1     -42.588  20.196  -3.649  0.00  0.00    +0.000 C 
ATOM     24  C   UNL     1     -41.688  23.491   0.119  0.00  0.00    +0.009 C 
ATOM     25  C   UNL     1     -43.235  23.463  -1.903  0.00  0.00    +0.034 C 
ATOM     26  C   UNL     1     -42.680  24.255  -0.708  0.00  0.00    +0.133 C 
ATOM     27  H   UNL     1     -34.399  23.500  -0.123  0.00  0.00    +0.149 HD
ENDROOT
BRANCH  10  28
ATOM     28  O   UNL     1     -37.033  18.275   0.837  0.00  0.00    -0.380 OA
ATOM     29  H   UNL     1     -36.882  18.103   1.780  0.00  0.00    +0.211 HD
ENDBRANCH  10  28
BRANCH  26  30
ATOM     30  O   UNL     1     -43.773  24.613   0.142  0.00  0.00    -0.380 OA
ATOM     31  H   UNL     1     -43.991  23.866   0.722  0.00  0.00    +0.211 HD
ENDBRANCH  26  30
BRANCH   7  32
ATOM     32  C   UNL     1     -35.989  24.736   1.972  0.00  0.00    +0.049 C 
BRANCH  32  33
ATOM     33  C   UNL     1     -35.538  25.210   3.326  0.00  0.00    +0.013 C 
ATOM     34  C   UNL     1     -36.433  25.274   4.393  0.00  0.00    +0.130 C 
ATOM     35  C   UNL     1     -34.208  25.590   3.506  0.00  0.00    -0.001 C 
ATOM     36  C   UNL     1     -35.997  25.717   5.643  0.00  0.00    +0.036 C 
ATOM     37  C   UNL     1     -33.773  26.034   4.756  0.00  0.00    -0.000 C 
ATOM     38  C   UNL     1     -34.668  26.097   5.823  0.00  0.00    +0.003 C 
BRANCH  34  39
ATOM     39  O   UNL     1     -37.734  24.905   4.234  0.00  0.00    -0.506 OA
ATOM     40  H   UNL     1     -38.067  24.718   3.379  0.00  0.00    +0.292 HD
ENDBRANCH  34  39
ENDBRANCH  32  33
ENDBRANCH   7  32
TORSDOF 5
ENDMDL
MODEL 8
REMARK VINA RESULT:      -6.6      4.735      8.016
REMARK  Name = 21574191
REMARK  5 active torsions:
REMARK  status: ('A' for Active; 'I' for Inactive)
REMARK    1  A    between atoms: C_7  and  C_32
REMARK    2  A    between atoms: C_10  and  O_28
REMARK    3  A    between atoms: C_26  and  O_30
REMARK    4  A    between atoms: C_32  and  C_33
REMARK    5  A    between atoms: C_34  and  O_39
REMARK                            x       y       z     vdW  Elec       q    Type
REMARK                         _______ _______ _______ _____ _____    ______ ____
ROOT
ATOM      1  O   UNL     1     -37.474  24.262   0.952  0.00  0.00    -0.443 OA
ATOM      2  O   UNL     1     -37.693  22.411   3.230  0.00  0.00    -0.271 OA
ATOM      3  O   UNL     1     -37.175  26.443   0.224  0.00  0.00    -0.245 OA
ATOM      4  N   UNL     1     -35.517  22.365   2.429  0.00  0.00    -0.303 N 
ATOM      5  C   UNL     1     -35.177  24.626   1.869  0.00  0.00    +0.068 C 
ATOM      6  C   UNL     1     -36.696  24.391   2.165  0.00  0.00    +0.211 C 
ATOM      7  C   UNL     1     -34.606  23.204   1.702  0.00  0.00    +0.080 C 
ATOM      8  C   UNL     1     -34.498  25.495   2.972  0.00  0.00    +0.026 C 
ATOM      9  C   UNL     1     -37.293  25.420   3.163  0.00  0.00    +0.098 C 
ATOM     10  C   UNL     1     -36.530  25.396   4.516  0.00  0.00    +0.137 C 
ATOM     11  C   UNL     1     -36.739  22.958   2.696  0.00  0.00    +0.259 C 
ATOM     12  C   UNL     1     -35.041  25.143   4.345  0.00  0.00    -0.018 C 
ATOM     13  C   UNL     1     -32.971  25.552   2.836  0.00  0.00    +0.005 C 
ATOM     14  C   UNL     1     -38.787  25.268   3.391  0.00  0.00    -0.024 C 
ATOM     15  C   UNL     1     -34.326  24.608   5.346  0.00  0.00    -0.007 C 
ATOM     16  C   UNL     1     -39.693  26.158   2.958  0.00  0.00    -0.030 C 
ATOM     17  C   UNL     1     -37.675  25.334   0.144  0.00  0.00    +0.341 C 
ATOM     18  C   UNL     1     -41.175  26.047   3.182  0.00  0.00    +0.026 C 
ATOM     19  C   UNL     1     -41.984  26.030   1.863  0.00  0.00    +0.004 C 
ATOM     20  C   UNL     1     -38.712  24.936  -0.827  0.00  0.00    +0.080 C 
ATOM     21  C   UNL     1     -41.791  24.695   1.109  0.00  0.00    +0.000 C 
ATOM     22  C   UNL     1     -42.499  24.577  -0.249  0.00  0.00    +0.003 C 
ATOM     23  C   UNL     1     -43.463  26.283   2.174  0.00  0.00    +0.000 C 
ATOM     24  C   UNL     1     -39.650  25.832  -1.161  0.00  0.00    +0.009 C 
ATOM     25  C   UNL     1     -42.185  25.646  -1.304  0.00  0.00    +0.034 C 
ATOM     26  C   UNL     1     -40.833  25.498  -2.021  0.00  0.00    +0.133 C 
ATOM     27  H   UNL     1     -35.293  21.448   2.712  0.00  0.00    +0.149 HD
ENDROOT
BRANCH  10  28
ATOM     28  O   UNL     1     -36.714  26.653   5.171  0.00  0.00    -0.380 OA
ATOM     29  H   UNL     1     -37.663  26.834   5.264  0.00  0.00    +0.211 HD
ENDBRANCH  10  28
BRANCH  26  30
ATOM     30  O   UNL     1     -40.819  26.384  -3.145  0.00  0.00    -0.380 OA
ATOM     31  H   UNL     1     -41.564  27.002  -3.078  0.00  0.00    +0.211 HD
ENDBRANCH  26  30
BRANCH   7  32
ATOM     32  C   UNL     1     -34.536  22.774   0.239  0.00  0.00    +0.049 C 
BRANCH  32  33
ATOM     33  C   UNL     1     -33.288  21.986  -0.049  0.00  0.00    +0.013 C 
ATOM     34  C   UNL     1     -33.174  20.658   0.358  0.00  0.00    +0.130 C 
ATOM     35  C   UNL     1     -32.237  22.600  -0.732  0.00  0.00    -0.001 C 
ATOM     36  C   UNL     1     -32.009  19.941   0.083  0.00  0.00    +0.036 C 
ATOM     37  C   UNL     1     -31.071  21.883  -1.005  0.00  0.00    -0.000 C 
ATOM     38  C   UNL     1     -30.958  20.554  -0.598  0.00  0.00    +0.003 C 
BRANCH  34  39
ATOM     39  O   UNL     1     -34.192  20.043   1.023  0.00  0.00    -0.506 OA
ATOM     40  H   UNL     1     -34.546  19.239   0.699  0.00  0.00    +0.292 HD
ENDBRANCH  34  39
ENDBRANCH  32  33
ENDBRANCH   7  32
TORSDOF 5
ENDMDL
MODEL 9
REMARK VINA RESULT:      -6.6      3.862      8.129
REMARK  Name = 21574191
REMARK  5 active torsions:
REMARK  status: ('A' for Active; 'I' for Inactive)
REMARK    1  A    between atoms: C_7  and  C_32
REMARK    2  A    between atoms: C_10  and  O_28
REMARK    3  A    between atoms: C_26  and  O_30
REMARK    4  A    between atoms: C_32  and  C_33
REMARK    5  A    between atoms: C_34  and  O_39
REMARK                            x       y       z     vdW  Elec       q    Type
REMARK                         _______ _______ _______ _____ _____    ______ ____
ROOT
ATOM      1  O   UNL     1     -33.605  25.707   1.114  0.00  0.00    -0.443 OA
ATOM      2  O   UNL     1     -36.160  25.967  -0.322  0.00  0.00    -0.271 OA
ATOM      3  O   UNL     1     -32.503  25.642   3.154  0.00  0.00    -0.245 OA
ATOM      4  N   UNL     1     -35.635  23.717  -0.121  0.00  0.00    -0.303 N 
ATOM      5  C   UNL     1     -34.687  23.649   2.033  0.00  0.00    +0.068 C 
ATOM      6  C   UNL     1     -34.850  25.141   1.588  0.00  0.00    +0.211 C 
ATOM      7  C   UNL     1     -34.867  22.849   0.728  0.00  0.00    +0.080 C 
ATOM      8  C   UNL     1     -35.669  23.277   3.187  0.00  0.00    +0.026 C 
ATOM      9  C   UNL     1     -35.553  26.025   2.652  0.00  0.00    +0.098 C 
ATOM     10  C   UNL     1     -36.962  25.471   2.999  0.00  0.00    +0.137 C 
ATOM     11  C   UNL     1     -35.641  25.041   0.284  0.00  0.00    +0.259 C 
ATOM     12  C   UNL     1     -37.014  23.952   2.988  0.00  0.00    -0.018 C 
ATOM     13  C   UNL     1     -35.698  21.773   3.488  0.00  0.00    +0.005 C 
ATOM     14  C   UNL     1     -35.636  27.496   2.280  0.00  0.00    -0.024 C 
ATOM     15  C   UNL     1     -38.174  23.315   2.769  0.00  0.00    -0.007 C 
ATOM     16  C   UNL     1     -34.938  28.455   2.907  0.00  0.00    -0.030 C 
ATOM     17  C   UNL     1     -32.585  25.951   1.977  0.00  0.00    +0.341 C 
ATOM     18  C   UNL     1     -35.009  29.920   2.576  0.00  0.00    +0.026 C 
ATOM     19  C   UNL     1     -33.636  30.517   2.187  0.00  0.00    +0.004 C 
ATOM     20  C   UNL     1     -31.600  26.763   1.240  0.00  0.00    +0.080 C 
ATOM     21  C   UNL     1     -33.185  30.016   0.798  0.00  0.00    +0.000 C 
ATOM     22  C   UNL     1     -31.804  30.494   0.322  0.00  0.00    +0.003 C 
ATOM     23  C   UNL     1     -33.723  32.047   2.225  0.00  0.00    +0.000 C 
ATOM     24  C   UNL     1     -30.994  27.769   1.884  0.00  0.00    +0.009 C 
ATOM     25  C   UNL     1     -30.603  30.199   1.230  0.00  0.00    +0.034 C 
ATOM     26  C   UNL     1     -30.087  28.750   1.202  0.00  0.00    +0.133 C 
ATOM     27  H   UNL     1     -36.115  23.399  -0.920  0.00  0.00    +0.149 HD
ENDROOT
BRANCH  10  28
ATOM     28  O   UNL     1     -37.334  25.937   4.298  0.00  0.00    -0.380 OA
ATOM     29  H   UNL     1     -37.091  25.273   4.962  0.00  0.00    +0.211 HD
ENDBRANCH  10  28
BRANCH  26  30
ATOM     30  O   UNL     1     -28.821  28.711   1.867  0.00  0.00    -0.380 OA
ATOM     31  H   UNL     1     -28.651  29.567   2.291  0.00  0.00    +0.211 HD
ENDBRANCH  26  30
BRANCH   7  32
ATOM     32  C   UNL     1     -33.533  22.504   0.069  0.00  0.00    +0.049 C 
BRANCH  32  33
ATOM     33  C   UNL     1     -33.114  21.092   0.371  0.00  0.00    +0.013 C 
ATOM     34  C   UNL     1     -31.865  20.619  -0.029  0.00  0.00    +0.130 C 
ATOM     35  C   UNL     1     -33.991  20.253   1.059  0.00  0.00    -0.001 C 
ATOM     36  C   UNL     1     -31.491  19.305   0.259  0.00  0.00    +0.036 C 
ATOM     37  C   UNL     1     -33.617  18.939   1.346  0.00  0.00    -0.000 C 
ATOM     38  C   UNL     1     -32.368  18.467   0.946  0.00  0.00    +0.003 C 
BRANCH  34  39
ATOM     39  O   UNL     1     -30.996  21.426  -0.700  0.00  0.00    -0.506 OA
ATOM     40  H   UNL     1     -30.293  21.841  -0.241  0.00  0.00    +0.292 HD
ENDBRANCH  34  39
ENDBRANCH  32  33
ENDBRANCH   7  32
TORSDOF 5
ENDMDL
