MODEL 1
REMARK VINA RESULT:      -6.3      0.000      0.000
REMARK  Name = 50899162
REMARK  5 active torsions:
REMARK  status: ('A' for Active; 'I' for Inactive)
REMARK    1  A    between atoms: C_11  and  O_22
REMARK    2  A    between atoms: C_15  and  O_24
REMARK    3  A    between atoms: C_17  and  O_26
REMARK    4  A    between atoms: C_21  and  C_28
REMARK    5  A    between atoms: C_28  and  O_29
REMARK                            x       y       z     vdW  Elec       q    Type
REMARK                         _______ _______ _______ _____ _____    ______ ____
ROOT
ATOM      1  O   UNL     1     -32.773  27.603   2.654  0.00  0.00    -0.473 OA
ATOM      2  O   UNL     1     -35.988  22.879   5.205  0.00  0.00    -0.283 OA
ATOM      3  C   UNL     1     -34.845  23.265   1.238  0.00  0.00    +0.040 C 
ATOM      4  C   UNL     1     -35.254  20.661   0.906  0.00  0.00    +0.018 C 
ATOM      5  C   UNL     1     -35.261  21.904   1.847  0.00  0.00    -0.005 C 
ATOM      6  C   UNL     1     -33.660  23.005   0.270  0.00  0.00    +0.008 C 
ATOM      7  C   UNL     1     -35.057  21.036  -0.583  0.00  0.00    +0.004 C 
ATOM      8  C   UNL     1     -33.922  22.007  -0.852  0.00  0.00    +0.001 C 
ATOM      9  C   UNL     1     -34.411  24.301   2.297  0.00  0.00    +0.024 A 
ATOM     10  C   UNL     1     -36.053  23.908   0.515  0.00  0.00    +0.009 C 
ATOM     11  C   UNL     1     -35.563  21.789   3.160  0.00  0.00    +0.165 C 
ATOM     12  C   UNL     1     -34.100  19.711   1.311  0.00  0.00    +0.004 C 
ATOM     13  C   UNL     1     -36.587  19.874   0.963  0.00  0.00    +0.004 C 
ATOM     14  C   UNL     1     -34.754  24.138   3.654  0.00  0.00    +0.075 A 
ATOM     15  C   UNL     1     -33.745  25.490   1.926  0.00  0.00    +0.164 A 
ATOM     16  C   UNL     1     -35.488  22.942   4.086  0.00  0.00    +0.231 C 
ATOM     17  C   UNL     1     -34.424  25.100   4.626  0.00  0.00    +0.136 A 
ATOM     18  C   UNL     1     -33.743  26.230   4.226  0.00  0.00    +0.052 A 
ATOM     19  C   UNL     1     -33.414  26.417   2.899  0.00  0.00    +0.171 A 
ATOM     20  C   UNL     1     -33.329  27.413   5.011  0.00  0.00    +0.079 C 
ATOM     21  C   UNL     1     -32.417  28.087   3.976  0.00  0.00    +0.200 C 
ENDROOT
BRANCH  11  22
ATOM     22  O   UNL     1     -35.935  20.591   3.734  0.00  0.00    -0.503 OA
ATOM     23  H   UNL     1     -36.191  19.870   3.192  0.00  0.00    +0.292 HD
ENDBRANCH  11  22
BRANCH  15  24
ATOM     24  O   UNL     1     -33.458  25.855   0.649  0.00  0.00    -0.503 OA
ATOM     25  H   UNL     1     -33.283  25.201   0.002  0.00  0.00    +0.292 HD
ENDBRANCH  15  24
BRANCH  17  26
ATOM     26  O   UNL     1     -34.734  24.963   5.943  0.00  0.00    -0.506 OA
ATOM     27  H   UNL     1     -35.608  24.740   6.199  0.00  0.00    +0.292 HD
ENDBRANCH  17  26
BRANCH  21  28
ATOM     28  C   UNL     1     -32.535  29.603   3.994  0.00  0.00    +0.181 C 
BRANCH  28  29
ATOM     29  O   UNL     1     -32.590  30.041   5.341  0.00  0.00    -0.379 OA
ATOM     30  H   UNL     1     -33.202  29.477   5.839  0.00  0.00    +0.211 HD
ENDBRANCH  28  29
ENDBRANCH  21  28
TORSDOF 5
ENDMDL
MODEL 2
REMARK VINA RESULT:      -6.2      2.622      6.807
REMARK  Name = 50899162
REMARK  5 active torsions:
REMARK  status: ('A' for Active; 'I' for Inactive)
REMARK    1  A    between atoms: C_11  and  O_22
REMARK    2  A    between atoms: C_15  and  O_24
REMARK    3  A    between atoms: C_17  and  O_26
REMARK    4  A    between atoms: C_21  and  C_28
REMARK    5  A    between atoms: C_28  and  O_29
REMARK                            x       y       z     vdW  Elec       q    Type
REMARK                         _______ _______ _______ _____ _____    ______ ____
ROOT
ATOM      1  O   UNL     1     -37.815  21.813  -1.271  0.00  0.00    -0.473 OA
ATOM      2  O   UNL     1     -35.293  20.888   4.380  0.00  0.00    -0.283 OA
ATOM      3  C   UNL     1     -35.508  24.467   2.300  0.00  0.00    +0.040 C 
ATOM      4  C   UNL     1     -35.053  25.771   4.569  0.00  0.00    +0.018 C 
ATOM      5  C   UNL     1     -35.250  24.415   3.825  0.00  0.00    -0.005 C 
ATOM      6  C   UNL     1     -36.446  25.672   2.022  0.00  0.00    +0.008 C 
ATOM      7  C   UNL     1     -34.906  26.971   3.602  0.00  0.00    +0.004 C 
ATOM      8  C   UNL     1     -35.944  27.031   2.497  0.00  0.00    +0.001 C 
ATOM      9  C   UNL     1     -36.162  23.183   1.747  0.00  0.00    +0.024 A 
ATOM     10  C   UNL     1     -34.163  24.593   1.544  0.00  0.00    +0.009 C 
ATOM     11  C   UNL     1     -35.253  23.241   4.495  0.00  0.00    +0.165 C 
ATOM     12  C   UNL     1     -36.275  26.044   5.480  0.00  0.00    +0.004 C 
ATOM     13  C   UNL     1     -33.773  25.781   5.441  0.00  0.00    +0.004 C 
ATOM     14  C   UNL     1     -36.136  21.981   2.482  0.00  0.00    +0.075 A 
ATOM     15  C   UNL     1     -36.719  23.147   0.449  0.00  0.00    +0.164 A 
ATOM     16  C   UNL     1     -35.527  21.953   3.817  0.00  0.00    +0.231 C 
ATOM     17  C   UNL     1     -36.670  20.784   1.972  0.00  0.00    +0.136 A 
ATOM     18  C   UNL     1     -37.236  20.802   0.713  0.00  0.00    +0.052 A 
ATOM     19  C   UNL     1     -37.255  21.965  -0.029  0.00  0.00    +0.171 A 
ATOM     20  C   UNL     1     -37.807  19.694  -0.082  0.00  0.00    +0.079 C 
ATOM     21  C   UNL     1     -38.457  20.512  -1.208  0.00  0.00    +0.200 C 
ENDROOT
BRANCH  11  22
ATOM     22  O   UNL     1     -35.028  23.160   5.854  0.00  0.00    -0.503 OA
ATOM     23  H   UNL     1     -34.751  22.349   6.236  0.00  0.00    +0.292 HD
ENDBRANCH  11  22
BRANCH  15  24
ATOM     24  O   UNL     1     -36.708  24.182  -0.432  0.00  0.00    -0.503 OA
ATOM     25  H   UNL     1     -37.186  24.120  -1.235  0.00  0.00    +0.292 HD
ENDBRANCH  15  24
BRANCH  17  26
ATOM     26  O   UNL     1     -36.667  19.614   2.663  0.00  0.00    -0.506 OA
ATOM     27  H   UNL     1     -36.626  19.622   3.600  0.00  0.00    +0.292 HD
ENDBRANCH  17  26
BRANCH  21  28
ATOM     28  C   UNL     1     -38.336  19.836  -2.565  0.00  0.00    +0.181 C 
BRANCH  28  29
ATOM     29  O   UNL     1     -37.067  19.211  -2.651  0.00  0.00    -0.379 OA
ATOM     30  H   UNL     1     -36.757  18.985  -1.760  0.00  0.00    +0.211 HD
ENDBRANCH  28  29
ENDBRANCH  21  28
TORSDOF 5
ENDMDL
MODEL 3
REMARK VINA RESULT:      -6.1      3.678      6.387
REMARK  Name = 50899162
REMARK  5 active torsions:
REMARK  status: ('A' for Active; 'I' for Inactive)
REMARK    1  A    between atoms: C_11  and  O_22
REMARK    2  A    between atoms: C_15  and  O_24
REMARK    3  A    between atoms: C_17  and  O_26
REMARK    4  A    between atoms: C_21  and  C_28
REMARK    5  A    between atoms: C_28  and  O_29
REMARK                            x       y       z     vdW  Elec       q    Type
REMARK                         _______ _______ _______ _____ _____    ______ ____
ROOT
ATOM      1  O   UNL     1     -36.527  22.556   4.767  0.00  0.00    -0.473 OA
ATOM      2  O   UNL     1     -36.099  27.921   1.574  0.00  0.00    -0.283 OA
ATOM      3  C   UNL     1     -38.940  24.942   1.078  0.00  0.00    +0.040 C 
ATOM      4  C   UNL     1     -40.484  26.680  -0.207  0.00  0.00    +0.018 C 
ATOM      5  C   UNL     1     -39.153  26.381   0.548  0.00  0.00    -0.005 C 
ATOM      6  C   UNL     1     -40.299  24.437   1.630  0.00  0.00    +0.008 C 
ATOM      7  C   UNL     1     -41.296  25.401  -0.523  0.00  0.00    +0.004 C 
ATOM      8  C   UNL     1     -41.464  24.446   0.645  0.00  0.00    +0.001 C 
ATOM      9  C   UNL     1     -37.880  24.855   2.197  0.00  0.00    +0.024 A 
ATOM     10  C   UNL     1     -38.403  24.038  -0.057  0.00  0.00    +0.009 C 
ATOM     11  C   UNL     1     -38.244  27.354   0.781  0.00  0.00    +0.165 C 
ATOM     12  C   UNL     1     -41.374  27.604   0.659  0.00  0.00    +0.004 C 
ATOM     13  C   UNL     1     -40.241  27.366  -1.575  0.00  0.00    +0.004 C 
ATOM     14  C   UNL     1     -36.951  25.895   2.399  0.00  0.00    +0.075 A 
ATOM     15  C   UNL     1     -37.745  23.691   2.987  0.00  0.00    +0.164 A 
ATOM     16  C   UNL     1     -37.017  27.107   1.573  0.00  0.00    +0.231 C 
ATOM     17  C   UNL     1     -35.937  25.810   3.370  0.00  0.00    +0.136 A 
ATOM     18  C   UNL     1     -35.863  24.669   4.143  0.00  0.00    +0.052 A 
ATOM     19  C   UNL     1     -36.753  23.633   3.949  0.00  0.00    +0.171 A 
ATOM     20  C   UNL     1     -34.878  24.292   5.180  0.00  0.00    +0.079 C 
ATOM     21  C   UNL     1     -35.590  23.059   5.756  0.00  0.00    +0.200 C 
ENDROOT
BRANCH  11  22
ATOM     22  O   UNL     1     -38.404  28.646   0.324  0.00  0.00    -0.503 OA
ATOM     23  H   UNL     1     -37.743  29.039  -0.212  0.00  0.00    +0.292 HD
ENDBRANCH  11  22
BRANCH  15  24
ATOM     24  O   UNL     1     -38.476  22.556   2.831  0.00  0.00    -0.503 OA
ATOM     25  H   UNL     1     -39.397  22.610   2.665  0.00  0.00    +0.292 HD
ENDBRANCH  15  24
BRANCH  17  26
ATOM     26  O   UNL     1     -35.034  26.802   3.592  0.00  0.00    -0.506 OA
ATOM     27  H   UNL     1     -34.395  26.711   4.272  0.00  0.00    +0.292 HD
ENDBRANCH  17  26
BRANCH  21  28
ATOM     28  C   UNL     1     -34.622  21.946   6.126  0.00  0.00    +0.181 C 
BRANCH  28  29
ATOM     29  O   UNL     1     -35.211  20.700   5.797  0.00  0.00    -0.379 OA
ATOM     30  H   UNL     1     -34.769  20.330   5.016  0.00  0.00    +0.211 HD
ENDBRANCH  28  29
ENDBRANCH  21  28
TORSDOF 5
ENDMDL
MODEL 4
REMARK VINA RESULT:      -6.1      4.999      6.389
REMARK  Name = 50899162
REMARK  5 active torsions:
REMARK  status: ('A' for Active; 'I' for Inactive)
REMARK    1  A    between atoms: C_11  and  O_22
REMARK    2  A    between atoms: C_15  and  O_24
REMARK    3  A    between atoms: C_17  and  O_26
REMARK    4  A    between atoms: C_21  and  C_28
REMARK    5  A    between atoms: C_28  and  O_29
REMARK                            x       y       z     vdW  Elec       q    Type
REMARK                         _______ _______ _______ _____ _____    ______ ____
ROOT
ATOM      1  O   UNL     1     -40.943  27.093   3.797  0.00  0.00    -0.473 OA
ATOM      2  O   UNL     1     -40.595  22.703  -0.649  0.00  0.00    -0.283 OA
ATOM      3  C   UNL     1     -37.520  24.025   1.797  0.00  0.00    +0.040 C 
ATOM      4  C   UNL     1     -36.153  21.827   1.203  0.00  0.00    +0.018 C 
ATOM      5  C   UNL     1     -37.447  22.680   1.035  0.00  0.00    -0.005 C 
ATOM      6  C   UNL     1     -36.885  23.810   3.196  0.00  0.00    +0.008 C 
ATOM      7  C   UNL     1     -35.021  22.591   1.933  0.00  0.00    +0.004 C 
ATOM      8  C   UNL     1     -35.447  23.302   3.205  0.00  0.00    +0.001 C 
ATOM      9  C   UNL     1     -38.962  24.548   1.976  0.00  0.00    +0.024 A 
ATOM     10  C   UNL     1     -36.789  25.127   0.992  0.00  0.00    +0.009 C 
ATOM     11  C   UNL     1     -38.489  22.236   0.298  0.00  0.00    +0.165 C 
ATOM     12  C   UNL     1     -36.473  20.556   2.027  0.00  0.00    +0.004 C 
ATOM     13  C   UNL     1     -35.552  21.398  -0.159  0.00  0.00    +0.004 C 
ATOM     14  C   UNL     1     -40.015  24.056   1.180  0.00  0.00    +0.075 A 
ATOM     15  C   UNL     1     -39.252  25.602   2.870  0.00  0.00    +0.164 A 
ATOM     16  C   UNL     1     -39.759  22.992   0.201  0.00  0.00    +0.231 C 
ATOM     17  C   UNL     1     -41.324  24.561   1.281  0.00  0.00    +0.136 A 
ATOM     18  C   UNL     1     -41.571  25.567   2.193  0.00  0.00    +0.052 A 
ATOM     19  C   UNL     1     -40.549  26.075   2.968  0.00  0.00    +0.171 A 
ATOM     20  C   UNL     1     -42.818  26.315   2.462  0.00  0.00    +0.079 C 
ATOM     21  C   UNL     1     -42.394  27.044   3.745  0.00  0.00    +0.200 C 
ENDROOT
BRANCH  11  22
ATOM     22  O   UNL     1     -38.456  21.042  -0.391  0.00  0.00    -0.503 OA
ATOM     23  H   UNL     1     -38.422  21.042  -1.328  0.00  0.00    +0.292 HD
ENDBRANCH  11  22
BRANCH  15  24
ATOM     24  O   UNL     1     -38.329  26.269   3.613  0.00  0.00    -0.503 OA
ATOM     25  H   UNL     1     -38.179  27.182   3.465  0.00  0.00    +0.292 HD
ENDBRANCH  15  24
BRANCH  17  26
ATOM     26  O   UNL     1     -42.361  24.098   0.533  0.00  0.00    -0.506 OA
ATOM     27  H   UNL     1     -43.061  23.627   0.941  0.00  0.00    +0.292 HD
ENDBRANCH  17  26
BRANCH  21  28
ATOM     28  C   UNL     1     -42.938  28.461   3.818  0.00  0.00    +0.181 C 
BRANCH  28  29
ATOM     29  O   UNL     1     -42.227  29.172   4.817  0.00  0.00    -0.379 OA
ATOM     30  H   UNL     1     -42.741  29.949   5.089  0.00  0.00    +0.211 HD
ENDBRANCH  28  29
ENDBRANCH  21  28
TORSDOF 5
ENDMDL
MODEL 5
REMARK VINA RESULT:      -5.9      3.790      8.651
REMARK  Name = 50899162
REMARK  5 active torsions:
REMARK  status: ('A' for Active; 'I' for Inactive)
REMARK    1  A    between atoms: C_11  and  O_22
REMARK    2  A    between atoms: C_15  and  O_24
REMARK    3  A    between atoms: C_17  and  O_26
REMARK    4  A    between atoms: C_21  and  C_28
REMARK    5  A    between atoms: C_28  and  O_29
REMARK                            x       y       z     vdW  Elec       q    Type
REMARK                         _______ _______ _______ _____ _____    ______ ____
ROOT
ATOM      1  O   UNL     1     -34.319  25.787   5.491  0.00  0.00    -0.473 OA
ATOM      2  O   UNL     1     -32.197  30.654   2.181  0.00  0.00    -0.283 OA
ATOM      3  C   UNL     1     -30.707  29.249   5.786  0.00  0.00    +0.040 C 
ATOM      4  C   UNL     1     -28.453  30.579   5.331  0.00  0.00    +0.018 C 
ATOM      5  C   UNL     1     -29.882  30.171   4.857  0.00  0.00    -0.005 C 
ATOM      6  C   UNL     1     -29.738  28.197   6.388  0.00  0.00    +0.008 C 
ATOM      7  C   UNL     1     -28.172  30.181   6.800  0.00  0.00    +0.004 C 
ATOM      8  C   UNL     1     -28.545  28.754   7.158  0.00  0.00    +0.001 C 
ATOM      9  C   UNL     1     -31.853  28.515   5.056  0.00  0.00    +0.024 A 
ATOM     10  C   UNL     1     -31.401  30.092   6.882  0.00  0.00    +0.009 C 
ATOM     11  C   UNL     1     -30.360  30.562   3.654  0.00  0.00    +0.165 C 
ATOM     12  C   UNL     1     -27.394  29.884   4.441  0.00  0.00    +0.004 C 
ATOM     13  C   UNL     1     -28.228  32.111   5.266  0.00  0.00    +0.004 C 
ATOM     14  C   UNL     1     -32.320  28.963   3.805  0.00  0.00    +0.075 A 
ATOM     15  C   UNL     1     -32.534  27.437   5.663  0.00  0.00    +0.164 A 
ATOM     16  C   UNL     1     -31.678  30.111   3.151  0.00  0.00    +0.231 C 
ATOM     17  C   UNL     1     -33.404  28.349   3.151  0.00  0.00    +0.136 A 
ATOM     18  C   UNL     1     -34.017  27.276   3.764  0.00  0.00    +0.052 A 
ATOM     19  C   UNL     1     -33.586  26.835   4.998  0.00  0.00    +0.171 A 
ATOM     20  C   UNL     1     -35.198  26.494   3.339  0.00  0.00    +0.079 C 
ATOM     21  C   UNL     1     -35.106  25.344   4.353  0.00  0.00    +0.200 C 
ENDROOT
BRANCH  11  22
ATOM     22  O   UNL     1     -29.649  31.382   2.802  0.00  0.00    -0.503 OA
ATOM     23  H   UNL     1     -29.186  31.013   2.075  0.00  0.00    +0.292 HD
ENDBRANCH  11  22
BRANCH  15  24
ATOM     24  O   UNL     1     -32.291  26.969   6.917  0.00  0.00    -0.503 OA
ATOM     25  H   UNL     1     -31.508  26.485   7.093  0.00  0.00    +0.292 HD
ENDBRANCH  15  24
BRANCH  17  26
ATOM     26  O   UNL     1     -33.867  28.755   1.939  0.00  0.00    -0.506 OA
ATOM     27  H   UNL     1     -34.197  28.125   1.328  0.00  0.00    +0.292 HD
ENDBRANCH  17  26
BRANCH  21  28
ATOM     28  C   UNL     1     -36.471  24.890   4.846  0.00  0.00    +0.181 C 
BRANCH  28  29
ATOM     29  O   UNL     1     -37.433  25.870   4.493  0.00  0.00    -0.379 OA
ATOM     30  H   UNL     1     -36.982  26.651   4.135  0.00  0.00    +0.211 HD
ENDBRANCH  28  29
ENDBRANCH  21  28
TORSDOF 5
ENDMDL
MODEL 6
REMARK VINA RESULT:      -5.9      2.159      7.327
REMARK  Name = 50899162
REMARK  5 active torsions:
REMARK  status: ('A' for Active; 'I' for Inactive)
REMARK    1  A    between atoms: C_11  and  O_22
REMARK    2  A    between atoms: C_15  and  O_24
REMARK    3  A    between atoms: C_17  and  O_26
REMARK    4  A    between atoms: C_21  and  C_28
REMARK    5  A    between atoms: C_28  and  O_29
REMARK                            x       y       z     vdW  Elec       q    Type
REMARK                         _______ _______ _______ _____ _____    ______ ____
ROOT
ATOM      1  O   UNL     1     -34.978  18.512   0.934  0.00  0.00    -0.473 OA
ATOM      2  O   UNL     1     -33.848  24.517  -0.414  0.00  0.00    -0.283 OA
ATOM      3  C   UNL     1     -35.602  23.021   3.032  0.00  0.00    +0.040 C 
ATOM      4  C   UNL     1     -35.081  25.323   4.251  0.00  0.00    +0.018 C 
ATOM      5  C   UNL     1     -34.997  24.444   2.966  0.00  0.00    -0.005 C 
ATOM      6  C   UNL     1     -35.262  22.428   4.426  0.00  0.00    +0.008 C 
ATOM      7  C   UNL     1     -35.990  24.706   5.342  0.00  0.00    +0.004 C 
ATOM      8  C   UNL     1     -35.738  23.236   5.628  0.00  0.00    +0.001 C 
ATOM      9  C   UNL     1     -35.059  22.076   1.939  0.00  0.00    +0.024 A 
ATOM     10  C   UNL     1     -37.128  23.087   2.787  0.00  0.00    +0.009 C 
ATOM     11  C   UNL     1     -34.369  24.886   1.854  0.00  0.00    +0.165 C 
ATOM     12  C   UNL     1     -33.666  25.493   4.856  0.00  0.00    +0.004 C 
ATOM     13  C   UNL     1     -35.671  26.726   3.965  0.00  0.00    +0.004 C 
ATOM     14  C   UNL     1     -34.414  22.585   0.795  0.00  0.00    +0.075 A 
ATOM     15  C   UNL     1     -35.279  20.682   2.002  0.00  0.00    +0.164 A 
ATOM     16  C   UNL     1     -34.202  24.032   0.656  0.00  0.00    +0.231 C 
ATOM     17  C   UNL     1     -33.967  21.748  -0.244  0.00  0.00    +0.136 A 
ATOM     18  C   UNL     1     -34.172  20.389  -0.124  0.00  0.00    +0.052 A 
ATOM     19  C   UNL     1     -34.818  19.872   0.980  0.00  0.00    +0.171 A 
ATOM     20  C   UNL     1     -33.866  19.299  -1.077  0.00  0.00    +0.079 C 
ATOM     21  C   UNL     1     -34.117  18.095  -0.158  0.00  0.00    +0.200 C 
ENDROOT
BRANCH  11  22
ATOM     22  O   UNL     1     -33.817  26.148   1.764  0.00  0.00    -0.503 OA
ATOM     23  H   UNL     1     -33.613  26.511   0.923  0.00  0.00    +0.292 HD
ENDBRANCH  11  22
BRANCH  15  24
ATOM     24  O   UNL     1     -35.993  20.050   2.971  0.00  0.00    -0.503 OA
ATOM     25  H   UNL     1     -36.866  19.758   2.796  0.00  0.00    +0.292 HD
ENDBRANCH  15  24
BRANCH  17  26
ATOM     26  O   UNL     1     -33.333  22.212  -1.354  0.00  0.00    -0.506 OA
ATOM     27  H   UNL     1     -33.027  23.098  -1.383  0.00  0.00    +0.292 HD
ENDBRANCH  17  26
BRANCH  21  28
ATOM     28  C   UNL     1     -34.774  16.933  -0.887  0.00  0.00    +0.181 C 
BRANCH  28  29
ATOM     29  O   UNL     1     -35.450  16.124   0.061  0.00  0.00    -0.379 OA
ATOM     30  H   UNL     1     -35.499  15.212  -0.268  0.00  0.00    +0.211 HD
ENDBRANCH  28  29
ENDBRANCH  21  28
TORSDOF 5
ENDMDL
MODEL 7
REMARK VINA RESULT:      -5.9      1.669      6.605
REMARK  Name = 50899162
REMARK  5 active torsions:
REMARK  status: ('A' for Active; 'I' for Inactive)
REMARK    1  A    between atoms: C_11  and  O_22
REMARK    2  A    between atoms: C_15  and  O_24
REMARK    3  A    between atoms: C_17  and  O_26
REMARK    4  A    between atoms: C_21  and  C_28
REMARK    5  A    between atoms: C_28  and  O_29
REMARK                            x       y       z     vdW  Elec       q    Type
REMARK                         _______ _______ _______ _____ _____    ______ ____
ROOT
ATOM      1  O   UNL     1     -35.756  22.929   1.243  0.00  0.00    -0.473 OA
ATOM      2  O   UNL     1     -33.436  26.086   6.123  0.00  0.00    -0.283 OA
ATOM      3  C   UNL     1     -32.918  26.970   2.106  0.00  0.00    +0.040 C 
ATOM      4  C   UNL     1     -32.185  29.432   2.780  0.00  0.00    +0.018 C 
ATOM      5  C   UNL     1     -32.665  28.015   3.219  0.00  0.00    -0.005 C 
ATOM      6  C   UNL     1     -33.587  27.704   0.913  0.00  0.00    +0.008 C 
ATOM      7  C   UNL     1     -31.798  29.499   1.283  0.00  0.00    +0.004 C 
ATOM      8  C   UNL     1     -32.810  28.882   0.334  0.00  0.00    +0.001 C 
ATOM      9  C   UNL     1     -33.830  25.808   2.555  0.00  0.00    +0.024 A 
ATOM     10  C   UNL     1     -31.583  26.301   1.699  0.00  0.00    +0.009 C 
ATOM     11  C   UNL     1     -32.906  27.726   4.517  0.00  0.00    +0.165 C 
ATOM     12  C   UNL     1     -33.316  30.461   3.024  0.00  0.00    +0.004 C 
ATOM     13  C   UNL     1     -30.923  29.890   3.554  0.00  0.00    +0.004 C 
ATOM     14  C   UNL     1     -34.048  25.545   3.922  0.00  0.00    +0.075 A 
ATOM     15  C   UNL     1     -34.392  24.915   1.616  0.00  0.00    +0.164 A 
ATOM     16  C   UNL     1     -33.447  26.415   4.941  0.00  0.00    +0.231 C 
ATOM     17  C   UNL     1     -34.823  24.454   4.356  0.00  0.00    +0.136 A 
ATOM     18  C   UNL     1     -35.383  23.627   3.404  0.00  0.00    +0.052 A 
ATOM     19  C   UNL     1     -35.166  23.858   2.061  0.00  0.00    +0.171 A 
ATOM     20  C   UNL     1     -36.179  22.392   3.574  0.00  0.00    +0.079 C 
ATOM     21  C   UNL     1     -36.654  22.206   2.126  0.00  0.00    +0.200 C 
ENDROOT
BRANCH  11  22
ATOM     22  O   UNL     1     -32.693  28.636   5.533  0.00  0.00    -0.503 OA
ATOM     23  H   UNL     1     -32.346  28.347   6.355  0.00  0.00    +0.292 HD
ENDBRANCH  11  22
BRANCH  15  24
ATOM     24  O   UNL     1     -34.173  24.955   0.275  0.00  0.00    -0.503 OA
ATOM     25  H   UNL     1     -34.206  24.166  -0.229  0.00  0.00    +0.292 HD
ENDBRANCH  15  24
BRANCH  17  26
ATOM     26  O   UNL     1     -35.058  24.183   5.668  0.00  0.00    -0.506 OA
ATOM     27  H   UNL     1     -34.604  24.661   6.334  0.00  0.00    +0.292 HD
ENDBRANCH  17  26
BRANCH  21  28
ATOM     28  C   UNL     1     -36.686  20.745   1.706  0.00  0.00    +0.181 C 
BRANCH  28  29
ATOM     29  O   UNL     1     -36.683  19.935   2.869  0.00  0.00    -0.379 OA
ATOM     30  H   UNL     1     -36.947  19.032   2.634  0.00  0.00    +0.211 HD
ENDBRANCH  28  29
ENDBRANCH  21  28
TORSDOF 5
ENDMDL
MODEL 8
REMARK VINA RESULT:      -5.8      2.456      3.115
REMARK  Name = 50899162
REMARK  5 active torsions:
REMARK  status: ('A' for Active; 'I' for Inactive)
REMARK    1  A    between atoms: C_11  and  O_22
REMARK    2  A    between atoms: C_15  and  O_24
REMARK    3  A    between atoms: C_17  and  O_26
REMARK    4  A    between atoms: C_21  and  C_28
REMARK    5  A    between atoms: C_28  and  O_29
REMARK                            x       y       z     vdW  Elec       q    Type
REMARK                         _______ _______ _______ _____ _____    ______ ____
ROOT
ATOM      1  O   UNL     1     -34.587  28.842   2.899  0.00  0.00    -0.473 OA
ATOM      2  O   UNL     1     -35.266  22.863   4.615  0.00  0.00    -0.283 OA
ATOM      3  C   UNL     1     -37.793  25.059   2.169  0.00  0.00    +0.040 C 
ATOM      4  C   UNL     1     -38.844  22.788   1.279  0.00  0.00    +0.018 C 
ATOM      5  C   UNL     1     -37.814  23.511   2.199  0.00  0.00    -0.005 C 
ATOM      6  C   UNL     1     -37.995  25.504   0.697  0.00  0.00    +0.008 C 
ATOM      7  C   UNL     1     -39.869  23.759   0.644  0.00  0.00    +0.004 C 
ATOM      8  C   UNL     1     -39.265  25.003   0.017  0.00  0.00    +0.001 C 
ATOM      9  C   UNL     1     -36.473  25.661   2.699  0.00  0.00    +0.024 A 
ATOM     10  C   UNL     1     -38.894  25.618   3.101  0.00  0.00    +0.009 C 
ATOM     11  C   UNL     1     -36.935  22.814   2.953  0.00  0.00    +0.165 C 
ATOM     12  C   UNL     1     -38.096  22.070   0.129  0.00  0.00    +0.004 C 
ATOM     13  C   UNL     1     -39.687  21.742   2.051  0.00  0.00    +0.004 C 
ATOM     14  C   UNL     1     -35.590  24.894   3.484  0.00  0.00    +0.075 A 
ATOM     15  C   UNL     1     -36.159  27.023   2.498  0.00  0.00    +0.164 A 
ATOM     16  C   UNL     1     -35.893  23.485   3.763  0.00  0.00    +0.231 C 
ATOM     17  C   UNL     1     -34.413  25.440   4.030  0.00  0.00    +0.136 A 
ATOM     18  C   UNL     1     -34.128  26.766   3.779  0.00  0.00    +0.052 A 
ATOM     19  C   UNL     1     -34.990  27.538   3.028  0.00  0.00    +0.171 A 
ATOM     20  C   UNL     1     -33.010  27.601   4.270  0.00  0.00    +0.079 C 
ATOM     21  C   UNL     1     -33.214  28.832   3.375  0.00  0.00    +0.200 C 
ENDROOT
BRANCH  11  22
ATOM     22  O   UNL     1     -36.926  21.435   3.000  0.00  0.00    -0.503 OA
ATOM     23  H   UNL     1     -37.343  20.988   3.711  0.00  0.00    +0.292 HD
ENDBRANCH  11  22
BRANCH  15  24
ATOM     24  O   UNL     1     -36.965  27.924   1.875  0.00  0.00    -0.503 OA
ATOM     25  H   UNL     1     -37.170  28.737   2.293  0.00  0.00    +0.292 HD
ENDBRANCH  15  24
BRANCH  17  26
ATOM     26  O   UNL     1     -33.539  24.720   4.782  0.00  0.00    -0.506 OA
ATOM     27  H   UNL     1     -32.675  24.547   4.461  0.00  0.00    +0.292 HD
ENDBRANCH  17  26
BRANCH  21  28
ATOM     28  C   UNL     1     -32.937  30.137   4.105  0.00  0.00    +0.181 C 
BRANCH  28  29
ATOM     29  O   UNL     1     -33.238  31.217   3.238  0.00  0.00    -0.379 OA
ATOM     30  H   UNL     1     -34.177  31.186   2.996  0.00  0.00    +0.211 HD
ENDBRANCH  28  29
ENDBRANCH  21  28
TORSDOF 5
ENDMDL
MODEL 9
REMARK VINA RESULT:      -5.8      4.660      6.681
REMARK  Name = 50899162
REMARK  5 active torsions:
REMARK  status: ('A' for Active; 'I' for Inactive)
REMARK    1  A    between atoms: C_11  and  O_22
REMARK    2  A    between atoms: C_15  and  O_24
REMARK    3  A    between atoms: C_17  and  O_26
REMARK    4  A    between atoms: C_21  and  C_28
REMARK    5  A    between atoms: C_28  and  O_29
REMARK                            x       y       z     vdW  Elec       q    Type
REMARK                         _______ _______ _______ _____ _____    ______ ____
ROOT
ATOM      1  O   UNL     1     -36.154  24.789   4.108  0.00  0.00    -0.473 OA
ATOM      2  O   UNL     1     -40.406  21.242   1.194  0.00  0.00    -0.283 OA
ATOM      3  C   UNL     1     -40.459  25.367   1.607  0.00  0.00    +0.040 C 
ATOM      4  C   UNL     1     -42.214  25.506  -0.382  0.00  0.00    +0.018 C 
ATOM      5  C   UNL     1     -41.308  24.634   0.540  0.00  0.00    -0.005 C 
ATOM      6  C   UNL     1     -39.919  26.672   0.964  0.00  0.00    +0.008 C 
ATOM      7  C   UNL     1     -42.305  26.979   0.084  0.00  0.00    +0.004 C 
ATOM      8  C   UNL     1     -40.972  27.628   0.412  0.00  0.00    +0.001 C 
ATOM      9  C   UNL     1     -39.267  24.529   2.118  0.00  0.00    +0.024 A 
ATOM     10  C   UNL     1     -41.320  25.650   2.861  0.00  0.00    +0.009 C 
ATOM     11  C   UNL     1     -41.224  23.295   0.378  0.00  0.00    +0.165 C 
ATOM     12  C   UNL     1     -41.647  25.499  -1.822  0.00  0.00    +0.004 C 
ATOM     13  C   UNL     1     -43.676  24.993  -0.421  0.00  0.00    +0.004 C 
ATOM     14  C   UNL     1     -39.226  23.134   1.927  0.00  0.00    +0.075 A 
ATOM     15  C   UNL     1     -38.232  25.119   2.878  0.00  0.00    +0.164 A 
ATOM     16  C   UNL     1     -40.301  22.464   1.185  0.00  0.00    +0.231 C 
ATOM     17  C   UNL     1     -38.181  22.342   2.439  0.00  0.00    +0.136 A 
ATOM     18  C   UNL     1     -37.173  22.964   3.145  0.00  0.00    +0.052 A 
ATOM     19  C   UNL     1     -37.204  24.327   3.358  0.00  0.00    +0.171 A 
ATOM     20  C   UNL     1     -36.003  22.379   3.837  0.00  0.00    +0.079 C 
ATOM     21  C   UNL     1     -35.228  23.670   4.140  0.00  0.00    +0.200 C 
ENDROOT
BRANCH  11  22
ATOM     22  O   UNL     1     -41.965  22.612  -0.564  0.00  0.00    -0.503 OA
ATOM     23  H   UNL     1     -41.545  22.255  -1.323  0.00  0.00    +0.292 HD
ENDBRANCH  11  22
BRANCH  15  24
ATOM     24  O   UNL     1     -38.191  26.424   3.257  0.00  0.00    -0.503 OA
ATOM     25  H   UNL     1     -37.761  26.667   4.053  0.00  0.00    +0.292 HD
ENDBRANCH  15  24
BRANCH  17  26
ATOM     26  O   UNL     1     -38.112  20.996   2.261  0.00  0.00    -0.506 OA
ATOM     27  H   UNL     1     -38.202  20.631   1.402  0.00  0.00    +0.292 HD
ENDBRANCH  17  26
BRANCH  21  28
ATOM     28  C   UNL     1     -34.545  23.635   5.498  0.00  0.00    +0.181 C 
BRANCH  28  29
ATOM     29  O   UNL     1     -35.186  22.664   6.306  0.00  0.00    -0.379 OA
ATOM     30  H   UNL     1     -36.129  22.878   6.383  0.00  0.00    +0.211 HD
ENDBRANCH  28  29
ENDBRANCH  21  28
TORSDOF 5
ENDMDL
