MODEL 1
REMARK VINA RESULT:      -6.1      0.000      0.000
REMARK  Name = 20839361
REMARK  8 active torsions:
REMARK  status: ('A' for Active; 'I' for Inactive)
REMARK    1  A    between atoms: N_2  and  C_34
REMARK    2  A    between atoms: C_4  and  O_30
REMARK    3  A    between atoms: C_10  and  N_21
REMARK    4  A    between atoms: C_17  and  O_32
REMARK    5  A    between atoms: C_22  and  C_24
REMARK    6  A    between atoms: C_25  and  C_27
REMARK    7  A    between atoms: C_27  and  O_28
REMARK    8  A    between atoms: C_34  and  C_35
REMARK                            x       y       z     vdW  Elec       q    Type
REMARK                         _______ _______ _______ _____ _____    ______ ____
ROOT
ATOM      1  O   UNL     1     -33.210  25.599   2.483  0.00  0.00    -0.474 OA
ATOM      2  N   UNL     1     -37.907  23.478   3.030  0.00  0.00    +0.390 N 
ATOM      3  C   UNL     1     -35.300  24.727   3.334  0.00  0.00    +0.078 C 
ATOM      4  C   UNL     1     -36.369  24.794   4.431  0.00  0.00    +0.078 C 
ATOM      5  C   UNL     1     -37.753  24.796   3.700  0.00  0.00    -0.028 C 
ATOM      6  C   UNL     1     -33.840  25.064   3.703  0.00  0.00    +0.189 C 
ATOM      7  C   UNL     1     -35.438  23.383   2.573  0.00  0.00    -0.013 C 
ATOM      8  C   UNL     1     -35.483  25.828   2.350  0.00  0.00    +0.016 C 
ATOM      9  C   UNL     1     -36.145  25.969   5.394  0.00  0.00    +0.027 C 
ATOM     10  C   UNL     1     -33.648  26.063   4.883  0.00  0.00    +0.112 C 
ATOM     11  C   UNL     1     -37.925  26.034   2.750  0.00  0.00    +0.008 C 
ATOM     12  C   UNL     1     -36.870  23.163   2.042  0.00  0.00    -0.077 C 
ATOM     13  C   UNL     1     -34.722  25.926   5.969  0.00  0.00    +0.026 C 
ATOM     14  C   UNL     1     -36.680  26.419   1.996  0.00  0.00    -0.025 C 
ATOM     15  C   UNL     1     -34.260  26.215   1.836  0.00  0.00    +0.168 C 
ATOM     16  C   UNL     1     -36.623  27.404   1.010  0.00  0.00    -0.001 C 
ATOM     17  C   UNL     1     -34.184  27.171   0.848  0.00  0.00    +0.167 C 
ATOM     18  C   UNL     1     -35.386  27.761   0.430  0.00  0.00    +0.039 C 
ATOM     19  H   UNL     1     -37.770  22.815   3.793  0.00  0.00    -0.080 HD
ENDROOT
BRANCH  10  21
ATOM     20  O   UNL     1     -31.338  27.784   5.069  0.00  0.00    -0.270 OA
ATOM     21  N   UNL     1     -33.556  27.447   4.466  0.00  0.00    -0.299 N 
ATOM     22  C   UNL     1     -32.396  28.188   4.599  0.00  0.00    +0.246 C 
ATOM     23  H   UNL     1     -34.349  27.877   4.073  0.00  0.00    +0.150 HD
BRANCH  22  24
ATOM     24  C   UNL     1     -32.571  29.580   4.098  0.00  0.00    +0.064 C 
ATOM     25  C   UNL     1     -33.437  29.824   3.106  0.00  0.00    +0.087 C 
BRANCH  25  27
ATOM     26  O   UNL     1     -32.923  32.166   2.947  0.00  0.00    -0.245 OA
ATOM     27  C   UNL     1     -33.604  31.209   2.614  0.00  0.00    +0.342 C 
BRANCH  27  28
ATOM     28  O   UNL     1     -34.644  31.211   1.737  0.00  0.00    -0.441 OA
ATOM     29  C   UNL     1     -35.948  31.176   2.327  0.00  0.00    +0.256 C 
ENDBRANCH  27  28
ENDBRANCH  25  27
ENDBRANCH  22  24
ENDBRANCH  10  21
BRANCH   4  30
ATOM     30  O   UNL     1     -36.285  23.608   5.243  0.00  0.00    -0.388 OA
ATOM     31  H   UNL     1     -37.174  23.347   5.528  0.00  0.00    +0.210 HD
ENDBRANCH   4  30
BRANCH  17  32
ATOM     32  O   UNL     1     -32.997  27.562   0.325  0.00  0.00    -0.503 OA
ATOM     33  H   UNL     1     -32.576  27.036  -0.326  0.00  0.00    +0.292 HD
ENDBRANCH  17  32
BRANCH   2  34
ATOM     34  C   UNL     1     -39.244  23.244   2.496  0.00  0.00    -0.077 C 
BRANCH  34  35
ATOM     35  C   UNL     1     -39.223  23.148   1.004  0.00  0.00    -0.021 C 
ATOM     36  C   UNL     1     -40.491  22.819   0.272  0.00  0.00    -0.002 C 
ATOM     37  C   UNL     1     -39.915  24.203   0.191  0.00  0.00    -0.002 C 
ENDBRANCH  34  35
ENDBRANCH   2  34
TORSDOF 8
ENDMDL
MODEL 2
REMARK VINA RESULT:      -6.0      2.986      7.307
REMARK  Name = 20839361
REMARK  8 active torsions:
REMARK  status: ('A' for Active; 'I' for Inactive)
REMARK    1  A    between atoms: N_2  and  C_34
REMARK    2  A    between atoms: C_4  and  O_30
REMARK    3  A    between atoms: C_10  and  N_21
REMARK    4  A    between atoms: C_17  and  O_32
REMARK    5  A    between atoms: C_22  and  C_24
REMARK    6  A    between atoms: C_25  and  C_27
REMARK    7  A    between atoms: C_27  and  O_28
REMARK    8  A    between atoms: C_34  and  C_35
REMARK                            x       y       z     vdW  Elec       q    Type
REMARK                         _______ _______ _______ _____ _____    ______ ____
ROOT
ATOM      1  O   UNL     1     -36.628  24.467   1.268  0.00  0.00    -0.474 OA
ATOM      2  N   UNL     1     -34.047  28.308   3.603  0.00  0.00    +0.390 N 
ATOM      3  C   UNL     1     -35.559  25.937   2.864  0.00  0.00    +0.078 C 
ATOM      4  C   UNL     1     -34.862  26.068   4.224  0.00  0.00    +0.078 C 
ATOM      5  C   UNL     1     -33.588  26.946   3.984  0.00  0.00    -0.028 C 
ATOM      6  C   UNL     1     -36.641  24.851   2.691  0.00  0.00    +0.189 C 
ATOM      7  C   UNL     1     -36.028  27.339   2.396  0.00  0.00    -0.013 C 
ATOM      8  C   UNL     1     -34.621  25.405   1.838  0.00  0.00    +0.016 C 
ATOM      9  C   UNL     1     -34.594  24.706   4.877  0.00  0.00    +0.027 C 
ATOM     10  C   UNL     1     -36.484  23.584   3.585  0.00  0.00    +0.112 C 
ATOM     11  C   UNL     1     -32.591  26.286   2.966  0.00  0.00    +0.008 C 
ATOM     12  C   UNL     1     -34.874  28.363   2.392  0.00  0.00    -0.077 C 
ATOM     13  C   UNL     1     -35.893  23.890   4.965  0.00  0.00    +0.026 C 
ATOM     14  C   UNL     1     -33.253  25.594   1.804  0.00  0.00    -0.025 C 
ATOM     15  C   UNL     1     -35.310  24.652   0.908  0.00  0.00    +0.168 C 
ATOM     16  C   UNL     1     -32.573  25.045   0.717  0.00  0.00    -0.001 C 
ATOM     17  C   UNL     1     -34.662  24.117  -0.182  0.00  0.00    +0.167 C 
ATOM     18  C   UNL     1     -33.278  24.329  -0.275  0.00  0.00    +0.039 C 
ATOM     19  H   UNL     1     -34.667  28.565   4.371  0.00  0.00    -0.080 HD
ENDROOT
BRANCH  10  21
ATOM     20  O   UNL     1     -37.541  21.238   2.276  0.00  0.00    -0.270 OA
ATOM     21  N   UNL     1     -35.727  22.519   2.959  0.00  0.00    -0.299 N 
ATOM     22  C   UNL     1     -36.333  21.432   2.355  0.00  0.00    +0.246 C 
ATOM     23  H   UNL     1     -34.745  22.570   2.964  0.00  0.00    +0.150 HD
BRANCH  22  24
ATOM     24  C   UNL     1     -35.330  20.484   1.795  0.00  0.00    +0.064 C 
ATOM     25  C   UNL     1     -34.229  20.958   1.199  0.00  0.00    +0.087 C 
BRANCH  25  27
ATOM     26  O   UNL     1     -32.408  20.273  -0.212  0.00  0.00    -0.245 OA
ATOM     27  C   UNL     1     -33.238  20.010   0.645  0.00  0.00    +0.342 C 
BRANCH  27  28
ATOM     28  O   UNL     1     -33.425  18.812   1.262  0.00  0.00    -0.441 OA
ATOM     29  C   UNL     1     -32.261  17.985   1.366  0.00  0.00    +0.256 C 
ENDBRANCH  27  28
ENDBRANCH  25  27
ENDBRANCH  22  24
ENDBRANCH  10  21
BRANCH   4  30
ATOM     30  O   UNL     1     -35.732  26.769   5.132  0.00  0.00    -0.388 OA
ATOM     31  H   UNL     1     -35.750  26.307   5.984  0.00  0.00    +0.210 HD
ENDBRANCH   4  30
BRANCH  17  32
ATOM     32  O   UNL     1     -35.317  23.381  -1.111  0.00  0.00    -0.503 OA
ATOM     33  H   UNL     1     -35.240  22.447  -1.109  0.00  0.00    +0.292 HD
ENDBRANCH  17  32
BRANCH   2  34
ATOM     34  C   UNL     1     -32.977  29.299   3.566  0.00  0.00    -0.077 C 
BRANCH  34  35
ATOM     35  C   UNL     1     -32.249  29.359   4.870  0.00  0.00    -0.021 C 
ATOM     36  C   UNL     1     -30.835  29.861   4.898  0.00  0.00    -0.002 C 
ATOM     37  C   UNL     1     -31.940  30.697   5.475  0.00  0.00    -0.002 C 
ENDBRANCH  34  35
ENDBRANCH   2  34
TORSDOF 8
ENDMDL
MODEL 3
REMARK VINA RESULT:      -5.9      4.745      9.179
REMARK  Name = 20839361
REMARK  8 active torsions:
REMARK  status: ('A' for Active; 'I' for Inactive)
REMARK    1  A    between atoms: N_2  and  C_34
REMARK    2  A    between atoms: C_4  and  O_30
REMARK    3  A    between atoms: C_10  and  N_21
REMARK    4  A    between atoms: C_17  and  O_32
REMARK    5  A    between atoms: C_22  and  C_24
REMARK    6  A    between atoms: C_25  and  C_27
REMARK    7  A    between atoms: C_27  and  O_28
REMARK    8  A    between atoms: C_34  and  C_35
REMARK                            x       y       z     vdW  Elec       q    Type
REMARK                         _______ _______ _______ _____ _____    ______ ____
ROOT
ATOM      1  O   UNL     1     -36.235  21.722  -1.300  0.00  0.00    -0.474 OA
ATOM      2  N   UNL     1     -35.361  23.750   3.389  0.00  0.00    +0.390 N 
ATOM      3  C   UNL     1     -36.441  22.646   0.927  0.00  0.00    +0.078 C 
ATOM      4  C   UNL     1     -37.263  22.713   2.220  0.00  0.00    +0.078 C 
ATOM      5  C   UNL     1     -36.245  22.555   3.399  0.00  0.00    -0.028 C 
ATOM      6  C   UNL     1     -37.181  22.417  -0.408  0.00  0.00    +0.189 C 
ATOM      7  C   UNL     1     -35.468  23.853   0.881  0.00  0.00    -0.013 C 
ATOM      8  C   UNL     1     -35.625  21.402   0.883  0.00  0.00    +0.016 C 
ATOM      9  C   UNL     1     -38.422  21.707   2.228  0.00  0.00    +0.027 C 
ATOM     10  C   UNL     1     -38.515  21.617  -0.319  0.00  0.00    +0.112 C 
ATOM     11  C   UNL     1     -35.487  21.182   3.352  0.00  0.00    +0.008 C 
ATOM     12  C   UNL     1     -34.598  23.943   2.152  0.00  0.00    -0.077 C 
ATOM     13  C   UNL     1     -39.293  21.884   0.974  0.00  0.00    +0.026 C 
ATOM     14  C   UNL     1     -35.105  20.725   1.969  0.00  0.00    -0.025 C 
ATOM     15  C   UNL     1     -35.470  20.981  -0.423  0.00  0.00    +0.168 C 
ATOM     16  C   UNL     1     -34.324  19.604   1.692  0.00  0.00    -0.001 C 
ATOM     17  C   UNL     1     -34.688  19.888  -0.720  0.00  0.00    +0.167 C 
ATOM     18  C   UNL     1     -34.104  19.202   0.356  0.00  0.00    +0.039 C 
ATOM     19  H   UNL     1     -36.021  24.526   3.429  0.00  0.00    -0.080 HD
ENDROOT
BRANCH  10  21
ATOM     20  O   UNL     1     -40.260  19.837  -1.776  0.00  0.00    -0.270 OA
ATOM     21  N   UNL     1     -38.351  20.189  -0.499  0.00  0.00    -0.299 N 
ATOM     22  C   UNL     1     -39.249  19.422  -1.220  0.00  0.00    +0.246 C 
ATOM     23  H   UNL     1     -37.571  19.747  -0.094  0.00  0.00    +0.150 HD
BRANCH  22  24
ATOM     24  C   UNL     1     -38.850  17.987  -1.248  0.00  0.00    +0.064 C 
ATOM     25  C   UNL     1     -37.896  17.547  -0.418  0.00  0.00    +0.087 C 
BRANCH  25  27
ATOM     26  O   UNL     1     -38.182  15.191  -0.042  0.00  0.00    -0.245 OA
ATOM     27  C   UNL     1     -37.505  16.121  -0.453  0.00  0.00    +0.342 C 
BRANCH  27  28
ATOM     28  O   UNL     1     -36.271  16.045  -1.020  0.00  0.00    -0.441 OA
ATOM     29  C   UNL     1     -35.275  15.376  -0.239  0.00  0.00    +0.256 C 
ENDBRANCH  27  28
ENDBRANCH  25  27
ENDBRANCH  22  24
ENDBRANCH  10  21
BRANCH   4  30
ATOM     30  O   UNL     1     -37.876  24.012   2.319  0.00  0.00    -0.388 OA
ATOM     31  H   UNL     1     -37.261  24.629   2.744  0.00  0.00    +0.210 HD
ENDBRANCH   4  30
BRANCH  17  32
ATOM     32  O   UNL     1     -34.516  19.459  -1.994  0.00  0.00    -0.503 OA
ATOM     33  H   UNL     1     -34.561  18.544  -2.191  0.00  0.00    +0.292 HD
ENDBRANCH  17  32
BRANCH   2  34
ATOM     34  C   UNL     1     -34.506  23.856   4.567  0.00  0.00    -0.077 C 
BRANCH  34  35
ATOM     35  C   UNL     1     -35.122  24.734   5.608  0.00  0.00    -0.021 C 
ATOM     36  C   UNL     1     -34.597  26.127   5.796  0.00  0.00    -0.002 C 
ATOM     37  C   UNL     1     -35.948  25.911   5.179  0.00  0.00    -0.002 C 
ENDBRANCH  34  35
ENDBRANCH   2  34
TORSDOF 8
ENDMDL
MODEL 4
REMARK VINA RESULT:      -5.6      3.462      6.180
REMARK  Name = 20839361
REMARK  8 active torsions:
REMARK  status: ('A' for Active; 'I' for Inactive)
REMARK    1  A    between atoms: N_2  and  C_34
REMARK    2  A    between atoms: C_4  and  O_30
REMARK    3  A    between atoms: C_10  and  N_21
REMARK    4  A    between atoms: C_17  and  O_32
REMARK    5  A    between atoms: C_22  and  C_24
REMARK    6  A    between atoms: C_25  and  C_27
REMARK    7  A    between atoms: C_27  and  O_28
REMARK    8  A    between atoms: C_34  and  C_35
REMARK                            x       y       z     vdW  Elec       q    Type
REMARK                         _______ _______ _______ _____ _____    ______ ____
ROOT
ATOM      1  O   UNL     1     -36.555  22.969   3.613  0.00  0.00    -0.474 OA
ATOM      2  N   UNL     1     -34.412  19.394   0.532  0.00  0.00    +0.390 N 
ATOM      3  C   UNL     1     -36.139  21.217   1.997  0.00  0.00    +0.078 C 
ATOM      4  C   UNL     1     -36.592  20.525   0.707  0.00  0.00    +0.078 C 
ATOM      5  C   UNL     1     -35.310  20.346  -0.173  0.00  0.00    -0.028 C 
ATOM      6  C   UNL     1     -37.208  21.848   2.912  0.00  0.00    +0.189 C 
ATOM      7  C   UNL     1     -35.164  20.281   2.760  0.00  0.00    -0.013 C 
ATOM      8  C   UNL     1     -35.412  22.480   1.693  0.00  0.00    +0.016 C 
ATOM      9  C   UNL     1     -37.748  21.266   0.021  0.00  0.00    +0.027 C 
ATOM     10  C   UNL     1     -38.503  22.346   2.204  0.00  0.00    +0.112 C 
ATOM     11  C   UNL     1     -34.643  21.719  -0.543  0.00  0.00    +0.008 C 
ATOM     12  C   UNL     1     -33.990  19.821   1.871  0.00  0.00    -0.077 C 
ATOM     13  C   UNL     1     -38.907  21.479   1.006  0.00  0.00    +0.026 C 
ATOM     14  C   UNL     1     -34.653  22.736   0.567  0.00  0.00    -0.025 C 
ATOM     15  C   UNL     1     -35.618  23.403   2.699  0.00  0.00    +0.168 C 
ATOM     16  C   UNL     1     -34.016  23.975   0.512  0.00  0.00    -0.001 C 
ATOM     17  C   UNL     1     -34.984  24.624   2.674  0.00  0.00    +0.167 C 
ATOM     18  C   UNL     1     -34.167  24.902   1.567  0.00  0.00    +0.039 C 
ATOM     19  H   UNL     1     -35.008  18.580   0.678  0.00  0.00    -0.080 HD
ENDROOT
BRANCH  10  21
ATOM     20  O   UNL     1     -39.624  24.611   3.601  0.00  0.00    -0.270 OA
ATOM     21  N   UNL     1     -38.449  23.736   1.798  0.00  0.00    -0.299 N 
ATOM     22  C   UNL     1     -39.021  24.751   2.542  0.00  0.00    +0.246 C 
ATOM     23  H   UNL     1     -37.987  23.966   0.960  0.00  0.00    +0.150 HD
BRANCH  22  24
ATOM     24  C   UNL     1     -38.824  26.081   1.902  0.00  0.00    +0.064 C 
ATOM     25  C   UNL     1     -37.873  26.237   0.972  0.00  0.00    +0.087 C 
BRANCH  25  27
ATOM     26  O   UNL     1     -37.887  27.821  -0.835  0.00  0.00    -0.245 OA
ATOM     27  C   UNL     1     -37.685  27.561   0.341  0.00  0.00    +0.342 C 
BRANCH  27  28
ATOM     28  O   UNL     1     -37.252  28.419   1.305  0.00  0.00    -0.441 OA
ATOM     29  C   UNL     1     -35.849  28.371   1.585  0.00  0.00    +0.256 C 
ENDBRANCH  27  28
ENDBRANCH  25  27
ENDBRANCH  22  24
ENDBRANCH  10  21
BRANCH   4  30
ATOM     30  O   UNL     1     -37.107  19.219   1.030  0.00  0.00    -0.388 OA
ATOM     31  H   UNL     1     -36.926  19.022   1.962  0.00  0.00    +0.210 HD
ENDBRANCH   4  30
BRANCH  17  32
ATOM     32  O   UNL     1     -35.166  25.543   3.652  0.00  0.00    -0.503 OA
ATOM     33  H   UNL     1     -34.875  26.425   3.528  0.00  0.00    +0.292 HD
ENDBRANCH  17  32
BRANCH   2  34
ATOM     34  C   UNL     1     -33.276  18.954  -0.271  0.00  0.00    -0.077 C 
BRANCH  34  35
ATOM     35  C   UNL     1     -31.981  19.394   0.332  0.00  0.00    -0.021 C 
ATOM     36  C   UNL     1     -30.692  18.968  -0.306  0.00  0.00    -0.002 C 
ATOM     37  C   UNL     1     -31.137  20.398  -0.397  0.00  0.00    -0.002 C 
ENDBRANCH  34  35
ENDBRANCH   2  34
TORSDOF 8
ENDMDL
MODEL 5
REMARK VINA RESULT:      -5.6      3.043      5.398
REMARK  Name = 20839361
REMARK  8 active torsions:
REMARK  status: ('A' for Active; 'I' for Inactive)
REMARK    1  A    between atoms: N_2  and  C_34
REMARK    2  A    between atoms: C_4  and  O_30
REMARK    3  A    between atoms: C_10  and  N_21
REMARK    4  A    between atoms: C_17  and  O_32
REMARK    5  A    between atoms: C_22  and  C_24
REMARK    6  A    between atoms: C_25  and  C_27
REMARK    7  A    between atoms: C_27  and  O_28
REMARK    8  A    between atoms: C_34  and  C_35
REMARK                            x       y       z     vdW  Elec       q    Type
REMARK                         _______ _______ _______ _____ _____    ______ ____
ROOT
ATOM      1  O   UNL     1     -35.967  24.223   3.728  0.00  0.00    -0.474 OA
ATOM      2  N   UNL     1     -35.252  19.648   1.399  0.00  0.00    +0.390 N 
ATOM      3  C   UNL     1     -36.230  22.154   2.502  0.00  0.00    +0.078 C 
ATOM      4  C   UNL     1     -36.982  21.400   1.399  0.00  0.00    +0.078 C 
ATOM      5  C   UNL     1     -35.894  20.676   0.538  0.00  0.00    -0.028 C 
ATOM      6  C   UNL     1     -36.980  23.243   3.297  0.00  0.00    +0.189 C 
ATOM      7  C   UNL     1     -35.505  21.129   3.413  0.00  0.00    -0.013 C 
ATOM      8  C   UNL     1     -35.197  23.053   1.918  0.00  0.00    +0.016 C 
ATOM      9  C   UNL     1     -37.929  22.314   0.609  0.00  0.00    +0.027 C 
ATOM     10  C   UNL     1     -38.133  23.967   2.540  0.00  0.00    +0.112 C 
ATOM     11  C   UNL     1     -34.894  21.684  -0.131  0.00  0.00    +0.008 C 
ATOM     12  C   UNL     1     -34.603  20.173   2.606  0.00  0.00    -0.077 C 
ATOM     13  C   UNL     1     -38.880  23.052   1.563  0.00  0.00    +0.026 C 
ATOM     14  C   UNL     1     -34.504  22.848   0.741  0.00  0.00    -0.025 C 
ATOM     15  C   UNL     1     -35.032  24.169   2.715  0.00  0.00    +0.168 C 
ATOM     16  C   UNL     1     -33.541  23.800   0.409  0.00  0.00    -0.001 C 
ATOM     17  C   UNL     1     -34.075  25.111   2.416  0.00  0.00    +0.167 C 
ATOM     18  C   UNL     1     -33.318  24.911   1.251  0.00  0.00    +0.039 C 
ATOM     19  H   UNL     1     -36.044  19.098   1.730  0.00  0.00    -0.080 HD
ENDROOT
BRANCH  10  21
ATOM     20  O   UNL     1     -39.489  26.515   2.508  0.00  0.00    -0.270 OA
ATOM     21  N   UNL     1     -37.713  25.170   1.851  0.00  0.00    -0.299 N 
ATOM     22  C   UNL     1     -38.438  26.347   1.899  0.00  0.00    +0.246 C 
ATOM     23  H   UNL     1     -36.879  25.149   1.328  0.00  0.00    +0.150 HD
BRANCH  22  24
ATOM     24  C   UNL     1     -37.789  27.426   1.104  0.00  0.00    +0.064 C 
ATOM     25  C   UNL     1     -36.531  27.789   1.380  0.00  0.00    +0.087 C 
BRANCH  25  27
ATOM     26  O   UNL     1     -35.558  29.956   1.012  0.00  0.00    -0.245 OA
ATOM     27  C   UNL     1     -35.894  28.862   0.585  0.00  0.00    +0.342 C 
BRANCH  27  28
ATOM     28  O   UNL     1     -35.758  28.405  -0.689  0.00  0.00    -0.441 OA
ATOM     29  C   UNL     1     -34.557  27.673  -0.955  0.00  0.00    +0.256 C 
ENDBRANCH  27  28
ENDBRANCH  25  27
ENDBRANCH  22  24
ENDBRANCH  10  21
BRANCH   4  30
ATOM     30  O   UNL     1     -37.823  20.400   2.004  0.00  0.00    -0.388 OA
ATOM     31  H   UNL     1     -37.926  20.592   2.949  0.00  0.00    +0.210 HD
ENDBRANCH   4  30
BRANCH  17  32
ATOM     32  O   UNL     1     -33.890  26.211   3.186  0.00  0.00    -0.503 OA
ATOM     33  H   UNL     1     -34.619  26.602   3.627  0.00  0.00    +0.292 HD
ENDBRANCH  17  32
BRANCH   2  34
ATOM     34  C   UNL     1     -34.373  18.739   0.671  0.00  0.00    -0.077 C 
BRANCH  34  35
ATOM     35  C   UNL     1     -33.002  18.717   1.267  0.00  0.00    -0.021 C 
ATOM     36  C   UNL     1     -31.982  17.760   0.723  0.00  0.00    -0.002 C 
ATOM     37  C   UNL     1     -31.845  19.232   0.462  0.00  0.00    -0.002 C 
ENDBRANCH  34  35
ENDBRANCH   2  34
TORSDOF 8
ENDMDL
MODEL 6
REMARK VINA RESULT:      -5.5      2.587      4.644
REMARK  Name = 20839361
REMARK  8 active torsions:
REMARK  status: ('A' for Active; 'I' for Inactive)
REMARK    1  A    between atoms: N_2  and  C_34
REMARK    2  A    between atoms: C_4  and  O_30
REMARK    3  A    between atoms: C_10  and  N_21
REMARK    4  A    between atoms: C_17  and  O_32
REMARK    5  A    between atoms: C_22  and  C_24
REMARK    6  A    between atoms: C_25  and  C_27
REMARK    7  A    between atoms: C_27  and  O_28
REMARK    8  A    between atoms: C_34  and  C_35
REMARK                            x       y       z     vdW  Elec       q    Type
REMARK                         _______ _______ _______ _____ _____    ______ ____
ROOT
ATOM      1  O   UNL     1     -36.621  26.149   2.651  0.00  0.00    -0.474 OA
ATOM      2  N   UNL     1     -36.843  21.369   0.660  0.00  0.00    +0.390 N 
ATOM      3  C   UNL     1     -36.283  24.136   1.352  0.00  0.00    +0.078 C 
ATOM      4  C   UNL     1     -35.310  23.291   0.521  0.00  0.00    +0.078 C 
ATOM      5  C   UNL     1     -35.471  21.815   1.018  0.00  0.00    -0.028 C 
ATOM      6  C   UNL     1     -36.114  25.670   1.352  0.00  0.00    +0.189 C 
ATOM      7  C   UNL     1     -37.735  23.686   1.046  0.00  0.00    -0.013 C 
ATOM      8  C   UNL     1     -36.043  23.940   2.808  0.00  0.00    +0.016 C 
ATOM      9  C   UNL     1     -33.876  23.836   0.568  0.00  0.00    +0.027 C 
ATOM     10  C   UNL     1     -34.667  26.197   1.118  0.00  0.00    +0.112 C 
ATOM     11  C   UNL     1     -35.110  21.655   2.538  0.00  0.00    +0.008 C 
ATOM     12  C   UNL     1     -37.924  22.168   1.245  0.00  0.00    -0.077 C 
ATOM     13  C   UNL     1     -33.853  25.317   0.162  0.00  0.00    +0.026 C 
ATOM     14  C   UNL     1     -35.566  22.793   3.412  0.00  0.00    -0.025 C 
ATOM     15  C   UNL     1     -36.343  25.097   3.500  0.00  0.00    +0.168 C 
ATOM     16  C   UNL     1     -35.466  22.814   4.802  0.00  0.00    -0.001 C 
ATOM     17  C   UNL     1     -36.268  25.134   4.874  0.00  0.00    +0.167 C 
ATOM     18  C   UNL     1     -35.833  23.970   5.525  0.00  0.00    +0.039 C 
ATOM     19  H   UNL     1     -36.886  21.542  -0.344  0.00  0.00    -0.080 HD
ENDROOT
BRANCH  10  21
ATOM     20  O   UNL     1     -34.154  28.715   2.434  0.00  0.00    -0.270 OA
ATOM     21  N   UNL     1     -33.918  26.405   2.341  0.00  0.00    -0.299 N 
ATOM     22  C   UNL     1     -33.728  27.659   2.892  0.00  0.00    +0.246 C 
ATOM     23  H   UNL     1     -33.528  25.625   2.796  0.00  0.00    +0.150 HD
BRANCH  22  24
ATOM     24  C   UNL     1     -32.922  27.595   4.142  0.00  0.00    +0.064 C 
ATOM     25  C   UNL     1     -32.304  28.695   4.591  0.00  0.00    +0.087 C 
BRANCH  25  27
ATOM     26  O   UNL     1     -31.799  29.146   6.897  0.00  0.00    -0.245 OA
ATOM     27  C   UNL     1     -31.505  28.622   5.834  0.00  0.00    +0.342 C 
BRANCH  27  28
ATOM     28  O   UNL     1     -30.401  27.872   5.570  0.00  0.00    -0.441 OA
ATOM     29  C   UNL     1     -29.187  28.330   6.175  0.00  0.00    +0.256 C 
ENDBRANCH  27  28
ENDBRANCH  25  27
ENDBRANCH  22  24
ENDBRANCH  10  21
BRANCH   4  30
ATOM     30  O   UNL     1     -35.702  23.349  -0.863  0.00  0.00    -0.388 OA
ATOM     31  H   UNL     1     -36.207  22.553  -1.091  0.00  0.00    +0.210 HD
ENDBRANCH   4  30
BRANCH  17  32
ATOM     32  O   UNL     1     -36.563  26.255   5.574  0.00  0.00    -0.503 OA
ATOM     33  H   UNL     1     -37.222  26.233   6.240  0.00  0.00    +0.292 HD
ENDBRANCH  17  32
BRANCH   2  34
ATOM     34  C   UNL     1     -37.065  19.941   0.857  0.00  0.00    -0.077 C 
BRANCH  34  35
ATOM     35  C   UNL     1     -37.233  19.232  -0.448  0.00  0.00    -0.021 C 
ATOM     36  C   UNL     1     -37.608  17.779  -0.451  0.00  0.00    -0.002 C 
ATOM     37  C   UNL     1     -38.607  18.813  -0.883  0.00  0.00    -0.002 C 
ENDBRANCH  34  35
ENDBRANCH   2  34
TORSDOF 8
ENDMDL
MODEL 7
REMARK VINA RESULT:      -5.3      3.229      8.405
REMARK  Name = 20839361
REMARK  8 active torsions:
REMARK  status: ('A' for Active; 'I' for Inactive)
REMARK    1  A    between atoms: N_2  and  C_34
REMARK    2  A    between atoms: C_4  and  O_30
REMARK    3  A    between atoms: C_10  and  N_21
REMARK    4  A    between atoms: C_17  and  O_32
REMARK    5  A    between atoms: C_22  and  C_24
REMARK    6  A    between atoms: C_25  and  C_27
REMARK    7  A    between atoms: C_27  and  O_28
REMARK    8  A    between atoms: C_34  and  C_35
REMARK                            x       y       z     vdW  Elec       q    Type
REMARK                         _______ _______ _______ _____ _____    ______ ____
ROOT
ATOM      1  O   UNL     1     -33.086  30.677   5.128  0.00  0.00    -0.474 OA
ATOM      2  N   UNL     1     -28.658  31.679   2.626  0.00  0.00    +0.390 N 
ATOM      3  C   UNL     1     -30.794  30.727   4.353  0.00  0.00    +0.078 C 
ATOM      4  C   UNL     1     -29.476  29.962   4.190  0.00  0.00    +0.078 C 
ATOM      5  C   UNL     1     -28.985  30.232   2.728  0.00  0.00    -0.028 C 
ATOM      6  C   UNL     1     -31.704  30.385   5.551  0.00  0.00    +0.189 C 
ATOM      7  C   UNL     1     -30.519  32.248   4.216  0.00  0.00    -0.013 C 
ATOM      8  C   UNL     1     -31.763  30.343   3.290  0.00  0.00    +0.016 C 
ATOM      9  C   UNL     1     -29.611  28.479   4.562  0.00  0.00    +0.027 C 
ATOM     10  C   UNL     1     -31.609  28.924   6.083  0.00  0.00    +0.112 C 
ATOM     11  C   UNL     1     -30.006  29.717   1.652  0.00  0.00    +0.008 C 
ATOM     12  C   UNL     1     -29.777  32.586   2.907  0.00  0.00    -0.077 C 
ATOM     13  C   UNL     1     -30.198  28.333   5.974  0.00  0.00    +0.026 C 
ATOM     14  C   UNL     1     -31.452  29.935   2.008  0.00  0.00    -0.025 C 
ATOM     15  C   UNL     1     -33.055  30.425   3.772  0.00  0.00    +0.168 C 
ATOM     16  C   UNL     1     -32.526  29.671   1.158  0.00  0.00    -0.001 C 
ATOM     17  C   UNL     1     -34.129  30.187   2.945  0.00  0.00    +0.167 C 
ATOM     18  C   UNL     1     -33.852  29.815   1.621  0.00  0.00    +0.039 C 
ATOM     19  H   UNL     1     -27.993  31.819   3.386  0.00  0.00    -0.080 HD
ENDROOT
BRANCH  10  21
ATOM     20  O   UNL     1     -32.971  26.719   7.356  0.00  0.00    -0.270 OA
ATOM     21  N   UNL     1     -32.561  28.018   5.473  0.00  0.00    -0.299 N 
ATOM     22  C   UNL     1     -33.161  26.987   6.174  0.00  0.00    +0.246 C 
ATOM     23  H   UNL     1     -32.790  28.140   4.524  0.00  0.00    +0.150 HD
BRANCH  22  24
ATOM     24  C   UNL     1     -34.093  26.206   5.314  0.00  0.00    +0.064 C 
ATOM     25  C   UNL     1     -35.173  25.630   5.858  0.00  0.00    +0.087 C 
BRANCH  25  27
ATOM     26  O   UNL     1     -36.718  25.303   4.047  0.00  0.00    -0.245 OA
ATOM     27  C   UNL     1     -36.093  24.856   4.996  0.00  0.00    +0.342 C 
BRANCH  27  28
ATOM     28  O   UNL     1     -36.109  23.576   5.456  0.00  0.00    -0.441 OA
ATOM     29  C   UNL     1     -35.756  22.574   4.498  0.00  0.00    +0.256 C 
ENDBRANCH  27  28
ENDBRANCH  25  27
ENDBRANCH  22  24
ENDBRANCH  10  21
BRANCH   4  30
ATOM     30  O   UNL     1     -28.503  30.503   5.103  0.00  0.00    -0.388 OA
ATOM     31  H   UNL     1     -28.850  30.463   6.008  0.00  0.00    +0.210 HD
ENDBRANCH   4  30
BRANCH  17  32
ATOM     32  O   UNL     1     -35.406  30.267   3.394  0.00  0.00    -0.503 OA
ATOM     33  H   UNL     1     -35.595  30.724   4.190  0.00  0.00    +0.292 HD
ENDBRANCH  17  32
BRANCH   2  34
ATOM     34  C   UNL     1     -27.975  32.040   1.388  0.00  0.00    -0.077 C 
BRANCH  34  35
ATOM     35  C   UNL     1     -28.794  32.987   0.572  0.00  0.00    -0.021 C 
ATOM     36  C   UNL     1     -28.233  33.523  -0.712  0.00  0.00    -0.002 C 
ATOM     37  C   UNL     1     -29.355  32.527  -0.741  0.00  0.00    -0.002 C 
ENDBRANCH  34  35
ENDBRANCH   2  34
TORSDOF 8
ENDMDL
MODEL 8
REMARK VINA RESULT:      -5.2      3.286      5.584
REMARK  Name = 20839361
REMARK  8 active torsions:
REMARK  status: ('A' for Active; 'I' for Inactive)
REMARK    1  A    between atoms: N_2  and  C_34
REMARK    2  A    between atoms: C_4  and  O_30
REMARK    3  A    between atoms: C_10  and  N_21
REMARK    4  A    between atoms: C_17  and  O_32
REMARK    5  A    between atoms: C_22  and  C_24
REMARK    6  A    between atoms: C_25  and  C_27
REMARK    7  A    between atoms: C_27  and  O_28
REMARK    8  A    between atoms: C_34  and  C_35
REMARK                            x       y       z     vdW  Elec       q    Type
REMARK                         _______ _______ _______ _____ _____    ______ ____
ROOT
ATOM      1  O   UNL     1     -37.608  24.863   1.572  0.00  0.00    -0.474 OA
ATOM      2  N   UNL     1     -36.153  20.199  -0.157  0.00  0.00    +0.390 N 
ATOM      3  C   UNL     1     -36.569  23.022   0.395  0.00  0.00    +0.078 C 
ATOM      4  C   UNL     1     -35.336  22.513  -0.362  0.00  0.00    +0.078 C 
ATOM      5  C   UNL     1     -35.022  21.090   0.213  0.00  0.00    -0.028 C 
ATOM      6  C   UNL     1     -36.916  24.523   0.315  0.00  0.00    +0.189 C 
ATOM      7  C   UNL     1     -37.776  22.102   0.077  0.00  0.00    -0.013 C 
ATOM      8  C   UNL     1     -36.341  22.981   1.866  0.00  0.00    +0.016 C 
ATOM      9  C   UNL     1     -34.166  23.504  -0.307  0.00  0.00    +0.027 C 
ATOM     10  C   UNL     1     -35.716  25.490   0.090  0.00  0.00    +0.112 C 
ATOM     11  C   UNL     1     -34.694  21.126   1.747  0.00  0.00    +0.008 C 
ATOM     12  C   UNL     1     -37.462  20.618   0.355  0.00  0.00    -0.077 C 
ATOM     13  C   UNL     1     -34.616  24.890  -0.794  0.00  0.00    +0.026 C 
ATOM     14  C   UNL     1     -35.538  22.084   2.545  0.00  0.00    -0.025 C 
ATOM     15  C   UNL     1     -37.035  24.002   2.484  0.00  0.00    +0.168 C 
ATOM     16  C   UNL     1     -35.511  22.198   3.934  0.00  0.00    -0.001 C 
ATOM     17  C   UNL     1     -37.037  24.121   3.855  0.00  0.00    +0.167 C 
ATOM     18  C   UNL     1     -36.270  23.198   4.582  0.00  0.00    +0.039 C 
ATOM     19  H   UNL     1     -36.207  20.303  -1.170  0.00  0.00    -0.080 HD
ENDROOT
BRANCH  10  21
ATOM     20  O   UNL     1     -36.129  28.087   1.283  0.00  0.00    -0.270 OA
ATOM     21  N   UNL     1     -35.131  25.989   1.318  0.00  0.00    -0.299 N 
ATOM     22  C   UNL     1     -35.394  27.256   1.807  0.00  0.00    +0.246 C 
ATOM     23  H   UNL     1     -34.522  25.404   1.824  0.00  0.00    +0.150 HD
BRANCH  22  24
ATOM     24  C   UNL     1     -34.666  27.518   3.079  0.00  0.00    +0.064 C 
ATOM     25  C   UNL     1     -34.283  26.492   3.848  0.00  0.00    +0.087 C 
BRANCH  25  27
ATOM     26  O   UNL     1     -33.956  26.474   6.229  0.00  0.00    -0.245 OA
ATOM     27  C   UNL     1     -33.559  26.761   5.110  0.00  0.00    +0.342 C 
BRANCH  27  28
ATOM     28  O   UNL     1     -32.390  27.378   4.791  0.00  0.00    -0.441 OA
ATOM     29  C   UNL     1     -31.881  28.282   5.777  0.00  0.00    +0.256 C 
ENDBRANCH  27  28
ENDBRANCH  25  27
ENDBRANCH  22  24
ENDBRANCH  10  21
BRANCH   4  30
ATOM     30  O   UNL     1     -35.665  22.377  -1.757  0.00  0.00    -0.388 OA
ATOM     31  H   UNL     1     -36.618  22.510  -1.879  0.00  0.00    +0.210 HD
ENDBRANCH   4  30
BRANCH  17  32
ATOM     32  O   UNL     1     -37.715  25.111   4.484  0.00  0.00    -0.503 OA
ATOM     33  H   UNL     1     -37.287  25.632   5.135  0.00  0.00    +0.292 HD
ENDBRANCH  17  32
BRANCH   2  34
ATOM     34  C   UNL     1     -35.899  18.788   0.114  0.00  0.00    -0.077 C 
BRANCH  34  35
ATOM     35  C   UNL     1     -34.562  18.367  -0.404  0.00  0.00    -0.021 C 
ATOM     36  C   UNL     1     -33.566  17.764   0.542  0.00  0.00    -0.002 C 
ATOM     37  C   UNL     1     -34.236  16.905  -0.490  0.00  0.00    -0.002 C 
ENDBRANCH  34  35
ENDBRANCH   2  34
TORSDOF 8
ENDMDL
MODEL 9
REMARK VINA RESULT:      -5.1      2.178      3.601
REMARK  Name = 20839361
REMARK  8 active torsions:
REMARK  status: ('A' for Active; 'I' for Inactive)
REMARK    1  A    between atoms: N_2  and  C_34
REMARK    2  A    between atoms: C_4  and  O_30
REMARK    3  A    between atoms: C_10  and  N_21
REMARK    4  A    between atoms: C_17  and  O_32
REMARK    5  A    between atoms: C_22  and  C_24
REMARK    6  A    between atoms: C_25  and  C_27
REMARK    7  A    between atoms: C_27  and  O_28
REMARK    8  A    between atoms: C_34  and  C_35
REMARK                            x       y       z     vdW  Elec       q    Type
REMARK                         _______ _______ _______ _____ _____    ______ ____
ROOT
ATOM      1  O   UNL     1     -34.375  27.990   0.730  0.00  0.00    -0.474 OA
ATOM      2  N   UNL     1     -34.925  23.301   2.868  0.00  0.00    +0.390 N 
ATOM      3  C   UNL     1     -34.383  26.082   2.217  0.00  0.00    +0.078 C 
ATOM      4  C   UNL     1     -34.443  25.580   3.665  0.00  0.00    +0.078 C 
ATOM      5  C   UNL     1     -35.483  24.411   3.684  0.00  0.00    -0.028 C 
ATOM      6  C   UNL     1     -33.722  27.447   1.935  0.00  0.00    +0.189 C 
ATOM      7  C   UNL     1     -33.841  24.947   1.309  0.00  0.00    -0.013 C 
ATOM      8  C   UNL     1     -35.740  26.447   1.727  0.00  0.00    +0.016 C 
ATOM      9  C   UNL     1     -34.724  26.712   4.663  0.00  0.00    +0.027 C 
ATOM     10  C   UNL     1     -33.788  28.488   3.091  0.00  0.00    +0.112 C 
ATOM     11  C   UNL     1     -36.917  24.880   3.251  0.00  0.00    +0.008 C 
ATOM     12  C   UNL     1     -34.649  23.642   1.468  0.00  0.00    -0.077 C 
ATOM     13  C   UNL     1     -33.708  27.849   4.483  0.00  0.00    +0.026 C 
ATOM     14  C   UNL     1     -36.934  25.877   2.123  0.00  0.00    -0.025 C 
ATOM     15  C   UNL     1     -35.654  27.480   0.814  0.00  0.00    +0.168 C 
ATOM     16  C   UNL     1     -38.087  26.342   1.492  0.00  0.00    -0.001 C 
ATOM     17  C   UNL     1     -36.778  27.941   0.166  0.00  0.00    +0.167 C 
ATOM     18  C   UNL     1     -38.004  27.352   0.509  0.00  0.00    +0.039 C 
ATOM     19  H   UNL     1     -34.014  23.137   3.296  0.00  0.00    -0.080 HD
ENDROOT
BRANCH  10  21
ATOM     20  O   UNL     1     -33.873  31.183   2.060  0.00  0.00    -0.270 OA
ATOM     21  N   UNL     1     -34.943  29.361   3.025  0.00  0.00    -0.299 N 
ATOM     22  C   UNL     1     -34.878  30.642   2.510  0.00  0.00    +0.246 C 
ATOM     23  H   UNL     1     -35.806  29.029   3.360  0.00  0.00    +0.150 HD
BRANCH  22  24
ATOM     24  C   UNL     1     -36.201  31.324   2.562  0.00  0.00    +0.064 C 
ATOM     25  C   UNL     1     -36.721  31.851   1.447  0.00  0.00    +0.087 C 
BRANCH  25  27
ATOM     26  O   UNL     1     -39.121  31.968   1.475  0.00  0.00    -0.245 OA
ATOM     27  C   UNL     1     -38.035  32.527   1.508  0.00  0.00    +0.342 C 
BRANCH  27  28
ATOM     28  O   UNL     1     -37.807  33.864   1.606  0.00  0.00    -0.441 OA
ATOM     29  C   UNL     1     -38.816  34.612   2.292  0.00  0.00    +0.256 C 
ENDBRANCH  27  28
ENDBRANCH  25  27
ENDBRANCH  22  24
ENDBRANCH  10  21
BRANCH   4  30
ATOM     30  O   UNL     1     -33.156  25.050   4.032  0.00  0.00    -0.388 OA
ATOM     31  H   UNL     1     -32.957  25.291   4.950  0.00  0.00    +0.210 HD
ENDBRANCH   4  30
BRANCH  17  32
ATOM     32  O   UNL     1     -36.717  28.949  -0.737  0.00  0.00    -0.503 OA
ATOM     33  H   UNL     1     -36.626  29.834  -0.445  0.00  0.00    +0.292 HD
ENDBRANCH  17  32
BRANCH   2  34
ATOM     34  C   UNL     1     -35.678  22.056   2.977  0.00  0.00    -0.077 C 
BRANCH  34  35
ATOM     35  C   UNL     1     -35.517  21.216   1.751  0.00  0.00    -0.021 C 
ATOM     36  C   UNL     1     -34.765  19.921   1.843  0.00  0.00    -0.002 C 
ATOM     37  C   UNL     1     -36.254  19.912   1.655  0.00  0.00    -0.002 C 
ENDBRANCH  34  35
ENDBRANCH   2  34
TORSDOF 8
ENDMDL
