MODEL 1
REMARK VINA RESULT:      -5.2      0.000      0.000
REMARK  Name = 21054
REMARK  6 active torsions:
REMARK  status: ('A' for Active; 'I' for Inactive)
REMARK    1  A    between atoms: N_1  and  C_2
REMARK    2  A    between atoms: N_1  and  N_5
REMARK    3  A    between atoms: C_2  and  C_13
REMARK    4  A    between atoms: C_6  and  C_9
REMARK    5  A    between atoms: C_9  and  S_10
REMARK    6  A    between atoms: C_15  and  N_19
REMARK                            x       y       z     vdW  Elec       q    Type
REMARK                         _______ _______ _______ _____ _____    ______ ____
ROOT
ATOM      1  N   UNL     1     -35.726  26.388   5.294  0.00  0.00    -0.117 NA
ENDROOT
BRANCH   1   4
ATOM      2  O   UNL     1     -32.504  27.067   4.088  0.00  0.00    -0.435 OA
ATOM      3  O   UNL     1     -33.036  26.511   6.245  0.00  0.00    -0.225 OA
ATOM      4  N   UNL     1     -34.647  26.716   4.570  0.00  0.00    -0.169 N 
ATOM      5  C   UNL     1     -33.258  27.451   2.915  0.00  0.00    +0.203 C 
ATOM      6  C   UNL     1     -34.663  26.931   3.163  0.00  0.00    +0.161 C 
ATOM      7  C   UNL     1     -33.381  26.742   5.095  0.00  0.00    +0.420 C 
BRANCH   5   8
ATOM      8  C   UNL     1     -33.199  28.966   2.776  0.00  0.00    +0.103 C 
BRANCH   8   9
ATOM      9  S   UNL     1     -34.577  29.562   1.761  0.00  0.00    -0.135 S 
ATOM     10  C   UNL     1     -35.317  30.698   2.956  0.00  0.00    +0.069 C 
ENDBRANCH   8   9
ENDBRANCH   5   8
ENDBRANCH   1   4
BRANCH   1  11
ATOM     11  C   UNL     1     -36.424  25.429   4.777  0.00  0.00    +0.176 C 
BRANCH  11  13
ATOM     12  O   UNL     1     -36.141  23.319   3.705  0.00  0.00    -0.436 OA
ATOM     13  C   UNL     1     -35.986  24.044   4.827  0.00  0.00    +0.144 C 
ATOM     14  C   UNL     1     -35.432  23.332   5.838  0.00  0.00    +0.040 C 
ATOM     15  C   UNL     1     -35.665  22.081   4.005  0.00  0.00    +0.289 C 
ATOM     16  C   UNL     1     -35.217  22.038   5.305  0.00  0.00    +0.066 C 
BRANCH  15  19
ATOM     17  O   UNL     1     -36.557  21.302   2.026  0.00  0.00    -0.123 OA
ATOM     18  O   UNL     1     -34.952  20.145   2.976  0.00  0.00    -0.123 OA
ATOM     19  N   UNL     1     -35.726  21.146   2.970  0.00  0.00    +0.093 N 
ENDBRANCH  15  19
ENDBRANCH  11  13
ENDBRANCH   1  11
TORSDOF 6
ENDMDL
MODEL 2
REMARK VINA RESULT:      -5.2      3.366      5.168
REMARK  Name = 21054
REMARK  6 active torsions:
REMARK  status: ('A' for Active; 'I' for Inactive)
REMARK    1  A    between atoms: N_1  and  C_2
REMARK    2  A    between atoms: N_1  and  N_5
REMARK    3  A    between atoms: C_2  and  C_13
REMARK    4  A    between atoms: C_6  and  C_9
REMARK    5  A    between atoms: C_9  and  S_10
REMARK    6  A    between atoms: C_15  and  N_19
REMARK                            x       y       z     vdW  Elec       q    Type
REMARK                         _______ _______ _______ _____ _____    ______ ____
ROOT
ATOM      1  N   UNL     1     -35.285  21.031   3.877  0.00  0.00    -0.117 NA
ENDROOT
BRANCH   1   4
ATOM      2  O   UNL     1     -35.987  24.020   5.571  0.00  0.00    -0.435 OA
ATOM      3  O   UNL     1     -35.923  21.932   6.511  0.00  0.00    -0.225 OA
ATOM      4  N   UNL     1     -35.539  22.296   4.238  0.00  0.00    -0.169 N 
ATOM      5  C   UNL     1     -35.990  24.534   4.219  0.00  0.00    +0.203 C 
ATOM      6  C   UNL     1     -35.400  23.419   3.374  0.00  0.00    +0.161 C 
ATOM      7  C   UNL     1     -35.827  22.655   5.529  0.00  0.00    +0.420 C 
BRANCH   5   8
ATOM      8  C   UNL     1     -37.423  24.878   3.835  0.00  0.00    +0.103 C 
BRANCH   8   9
ATOM      9  S   UNL     1     -37.560  25.101   2.043  0.00  0.00    -0.135 S 
ATOM     10  C   UNL     1     -36.966  26.806   1.940  0.00  0.00    +0.069 C 
ENDBRANCH   8   9
ENDBRANCH   5   8
ENDBRANCH   1   4
BRANCH   1  11
ATOM     11  C   UNL     1     -35.498  20.797   2.622  0.00  0.00    +0.176 C 
BRANCH  11  13
ATOM     12  O   UNL     1     -33.924  19.133   1.962  0.00  0.00    -0.436 OA
ATOM     13  C   UNL     1     -34.439  20.353   1.731  0.00  0.00    +0.144 C 
ATOM     14  C   UNL     1     -33.862  20.973   0.673  0.00  0.00    +0.040 C 
ATOM     15  C   UNL     1     -32.969  18.957   1.010  0.00  0.00    +0.289 C 
ATOM     16  C   UNL     1     -32.892  20.060   0.194  0.00  0.00    +0.066 C 
BRANCH  15  19
ATOM     17  O   UNL     1     -31.233  17.629   1.746  0.00  0.00    -0.123 OA
ATOM     18  O   UNL     1     -32.735  16.741   0.414  0.00  0.00    -0.123 OA
ATOM     19  N   UNL     1     -32.291  17.737   1.058  0.00  0.00    +0.093 N 
ENDBRANCH  15  19
ENDBRANCH  11  13
ENDBRANCH   1  11
TORSDOF 6
ENDMDL
MODEL 3
REMARK VINA RESULT:      -5.2      3.109      6.464
REMARK  Name = 21054
REMARK  6 active torsions:
REMARK  status: ('A' for Active; 'I' for Inactive)
REMARK    1  A    between atoms: N_1  and  C_2
REMARK    2  A    between atoms: N_1  and  N_5
REMARK    3  A    between atoms: C_2  and  C_13
REMARK    4  A    between atoms: C_6  and  C_9
REMARK    5  A    between atoms: C_9  and  S_10
REMARK    6  A    between atoms: C_15  and  N_19
REMARK                            x       y       z     vdW  Elec       q    Type
REMARK                         _______ _______ _______ _____ _____    ______ ____
ROOT
ATOM      1  N   UNL     1     -36.921  23.661   4.121  0.00  0.00    -0.117 NA
ENDROOT
BRANCH   1   4
ATOM      2  O   UNL     1     -35.302  20.613   3.504  0.00  0.00    -0.435 OA
ATOM      3  O   UNL     1     -35.151  21.843   5.430  0.00  0.00    -0.225 OA
ATOM      4  N   UNL     1     -36.425  22.531   3.601  0.00  0.00    -0.169 N 
ATOM      5  C   UNL     1     -35.825  20.850   2.177  0.00  0.00    +0.203 C 
ATOM      6  C   UNL     1     -36.815  21.990   2.343  0.00  0.00    +0.161 C 
ATOM      7  C   UNL     1     -35.587  21.699   4.297  0.00  0.00    +0.420 C 
BRANCH   5   8
ATOM      8  C   UNL     1     -34.665  21.199   1.254  0.00  0.00    +0.103 C 
BRANCH   8   9
ATOM      9  S   UNL     1     -33.641  19.737   0.947  0.00  0.00    -0.135 S 
ATOM     10  C   UNL     1     -34.898  18.688   0.179  0.00  0.00    +0.069 C 
ENDBRANCH   8   9
ENDBRANCH   5   8
ENDBRANCH   1   4
BRANCH   1  11
ATOM     11  C   UNL     1     -36.332  24.731   3.693  0.00  0.00    +0.176 C 
BRANCH  11  13
ATOM     12  O   UNL     1     -34.514  26.268   3.817  0.00  0.00    -0.436 OA
ATOM     13  C   UNL     1     -35.320  25.419   4.478  0.00  0.00    +0.144 C 
ATOM     14  C   UNL     1     -35.038  25.353   5.802  0.00  0.00    +0.040 C 
ATOM     15  C   UNL     1     -33.671  26.773   4.757  0.00  0.00    +0.289 C 
ATOM     16  C   UNL     1     -33.953  26.241   5.994  0.00  0.00    +0.066 C 
BRANCH  15  19
ATOM     17  O   UNL     1     -32.934  28.934   4.434  0.00  0.00    -0.123 OA
ATOM     18  O   UNL     1     -31.676  27.283   3.720  0.00  0.00    -0.123 OA
ATOM     19  N   UNL     1     -32.731  27.692   4.289  0.00  0.00    +0.093 N 
ENDBRANCH  15  19
ENDBRANCH  11  13
ENDBRANCH   1  11
TORSDOF 6
ENDMDL
MODEL 4
REMARK VINA RESULT:      -5.2      3.526      4.431
REMARK  Name = 21054
REMARK  6 active torsions:
REMARK  status: ('A' for Active; 'I' for Inactive)
REMARK    1  A    between atoms: N_1  and  C_2
REMARK    2  A    between atoms: N_1  and  N_5
REMARK    3  A    between atoms: C_2  and  C_13
REMARK    4  A    between atoms: C_6  and  C_9
REMARK    5  A    between atoms: C_9  and  S_10
REMARK    6  A    between atoms: C_15  and  N_19
REMARK                            x       y       z     vdW  Elec       q    Type
REMARK                         _______ _______ _______ _____ _____    ______ ____
ROOT
ATOM      1  N   UNL     1     -33.111  27.679   4.916  0.00  0.00    -0.117 NA
ENDROOT
BRANCH   1   4
ATOM      2  O   UNL     1     -31.313  30.502   5.959  0.00  0.00    -0.435 OA
ATOM      3  O   UNL     1     -33.055  30.499   4.472  0.00  0.00    -0.225 OA
ATOM      4  N   UNL     1     -32.250  28.546   5.463  0.00  0.00    -0.169 N 
ATOM      5  C   UNL     1     -30.486  29.484   6.568  0.00  0.00    +0.203 C 
ATOM      6  C   UNL     1     -31.299  28.205   6.466  0.00  0.00    +0.161 C 
ATOM      7  C   UNL     1     -32.292  29.893   5.211  0.00  0.00    +0.420 C 
BRANCH   5   8
ATOM      8  C   UNL     1     -29.167  29.414   5.811  0.00  0.00    +0.103 C 
BRANCH   8   9
ATOM      9  S   UNL     1     -28.349  27.826   6.112  0.00  0.00    -0.135 S 
ATOM     10  C   UNL     1     -27.594  28.214   7.708  0.00  0.00    +0.069 C 
ENDBRANCH   8   9
ENDBRANCH   5   8
ENDBRANCH   1   4
BRANCH   1  11
ATOM     11  C   UNL     1     -33.453  26.716   5.710  0.00  0.00    +0.176 C 
BRANCH  11  13
ATOM     12  O   UNL     1     -34.422  24.540   5.612  0.00  0.00    -0.436 OA
ATOM     13  C   UNL     1     -34.597  25.861   5.437  0.00  0.00    +0.144 C 
ATOM     14  C   UNL     1     -35.850  26.174   5.025  0.00  0.00    +0.040 C 
ATOM     15  C   UNL     1     -35.616  23.971   5.297  0.00  0.00    +0.289 C 
ATOM     16  C   UNL     1     -36.527  24.934   4.930  0.00  0.00    +0.066 C 
BRANCH  15  19
ATOM     17  O   UNL     1     -35.932  22.045   6.525  0.00  0.00    -0.123 OA
ATOM     18  O   UNL     1     -35.449  21.857   4.392  0.00  0.00    -0.123 OA
ATOM     19  N   UNL     1     -35.668  22.581   5.407  0.00  0.00    +0.093 N 
ENDBRANCH  15  19
ENDBRANCH  11  13
ENDBRANCH   1  11
TORSDOF 6
ENDMDL
MODEL 5
REMARK VINA RESULT:      -5.0      4.530      8.035
REMARK  Name = 21054
REMARK  6 active torsions:
REMARK  status: ('A' for Active; 'I' for Inactive)
REMARK    1  A    between atoms: N_1  and  C_2
REMARK    2  A    between atoms: N_1  and  N_5
REMARK    3  A    between atoms: C_2  and  C_13
REMARK    4  A    between atoms: C_6  and  C_9
REMARK    5  A    between atoms: C_9  and  S_10
REMARK    6  A    between atoms: C_15  and  N_19
REMARK                            x       y       z     vdW  Elec       q    Type
REMARK                         _______ _______ _______ _____ _____    ______ ____
ROOT
ATOM      1  N   UNL     1     -35.910  20.291   2.658  0.00  0.00    -0.117 NA
ENDROOT
BRANCH   1   4
ATOM      2  O   UNL     1     -35.130  18.921  -0.474  0.00  0.00    -0.435 OA
ATOM      3  O   UNL     1     -37.234  19.413   0.285  0.00  0.00    -0.225 OA
ATOM      4  N   UNL     1     -35.323  19.762   1.577  0.00  0.00    -0.169 N 
ATOM      5  C   UNL     1     -33.819  18.838   0.129  0.00  0.00    +0.203 C 
ATOM      6  C   UNL     1     -33.914  19.675   1.393  0.00  0.00    +0.161 C 
ATOM      7  C   UNL     1     -36.026  19.373   0.466  0.00  0.00    +0.420 C 
BRANCH   5   8
ATOM      8  C   UNL     1     -33.504  17.374   0.406  0.00  0.00    +0.103 C 
BRANCH   8   9
ATOM      9  S   UNL     1     -34.024  16.342  -0.989  0.00  0.00    -0.135 S 
ATOM     10  C   UNL     1     -35.356  15.437  -0.167  0.00  0.00    +0.069 C 
ENDBRANCH   8   9
ENDBRANCH   5   8
ENDBRANCH   1   4
BRANCH   1  11
ATOM     11  C   UNL     1     -35.816  21.580   2.720  0.00  0.00    +0.176 C 
BRANCH  11  13
ATOM     12  O   UNL     1     -35.264  23.591   3.877  0.00  0.00    -0.436 OA
ATOM     13  C   UNL     1     -35.507  22.271   3.961  0.00  0.00    +0.144 C 
ATOM     14  C   UNL     1     -35.419  21.803   5.230  0.00  0.00    +0.040 C 
ATOM     15  C   UNL     1     -35.006  23.994   5.149  0.00  0.00    +0.289 C 
ATOM     16  C   UNL     1     -35.089  22.931   6.018  0.00  0.00    +0.066 C 
BRANCH  15  19
ATOM     17  O   UNL     1     -33.531  25.766   5.177  0.00  0.00    -0.123 OA
ATOM     18  O   UNL     1     -35.654  26.167   5.569  0.00  0.00    -0.123 OA
ATOM     19  N   UNL     1     -34.722  25.352   5.303  0.00  0.00    +0.093 N 
ENDBRANCH  15  19
ENDBRANCH  11  13
ENDBRANCH   1  11
TORSDOF 6
ENDMDL
MODEL 6
REMARK VINA RESULT:      -4.9      3.819      7.128
REMARK  Name = 21054
REMARK  6 active torsions:
REMARK  status: ('A' for Active; 'I' for Inactive)
REMARK    1  A    between atoms: N_1  and  C_2
REMARK    2  A    between atoms: N_1  and  N_5
REMARK    3  A    between atoms: C_2  and  C_13
REMARK    4  A    between atoms: C_6  and  C_9
REMARK    5  A    between atoms: C_9  and  S_10
REMARK    6  A    between atoms: C_15  and  N_19
REMARK                            x       y       z     vdW  Elec       q    Type
REMARK                         _______ _______ _______ _____ _____    ______ ____
ROOT
ATOM      1  N   UNL     1     -32.067  27.374   4.270  0.00  0.00    -0.117 NA
ENDROOT
BRANCH   1   4
ATOM      2  O   UNL     1     -34.985  26.300   5.891  0.00  0.00    -0.435 OA
ATOM      3  O   UNL     1     -32.942  26.611   6.879  0.00  0.00    -0.225 OA
ATOM      4  N   UNL     1     -33.299  26.965   4.600  0.00  0.00    -0.169 N 
ATOM      5  C   UNL     1     -35.464  26.245   4.527  0.00  0.00    +0.203 C 
ATOM      6  C   UNL     1     -34.410  26.973   3.711  0.00  0.00    +0.161 C 
ATOM      7  C   UNL     1     -33.649  26.625   5.882  0.00  0.00    +0.420 C 
BRANCH   5   8
ATOM      8  C   UNL     1     -35.623  24.785   4.128  0.00  0.00    +0.103 C 
BRANCH   8   9
ATOM      9  S   UNL     1     -37.274  24.493   3.443  0.00  0.00    -0.135 S 
ATOM     10  C   UNL     1     -37.075  22.751   3.000  0.00  0.00    +0.069 C 
ENDBRANCH   8   9
ENDBRANCH   5   8
ENDBRANCH   1   4
BRANCH   1  11
ATOM     11  C   UNL     1     -31.796  28.576   4.666  0.00  0.00    +0.176 C 
BRANCH  11  13
ATOM     12  O   UNL     1     -29.952  27.840   5.987  0.00  0.00    -0.436 OA
ATOM     13  C   UNL     1     -30.602  28.881   5.437  0.00  0.00    +0.144 C 
ATOM     14  C   UNL     1     -30.010  30.070   5.708  0.00  0.00    +0.040 C 
ATOM     15  C   UNL     1     -28.891  28.381   6.643  0.00  0.00    +0.289 C 
ATOM     16  C   UNL     1     -28.883  29.749   6.503  0.00  0.00    +0.066 C 
BRANCH  15  19
ATOM     17  O   UNL     1     -28.063  26.251   6.952  0.00  0.00    -0.123 OA
ATOM     18  O   UNL     1     -27.312  27.861   8.241  0.00  0.00    -0.123 OA
ATOM     19  N   UNL     1     -28.063  27.470   7.299  0.00  0.00    +0.093 N 
ENDBRANCH  15  19
ENDBRANCH  11  13
ENDBRANCH   1  11
TORSDOF 6
ENDMDL
MODEL 7
REMARK VINA RESULT:      -4.9      3.132      4.816
REMARK  Name = 21054
REMARK  6 active torsions:
REMARK  status: ('A' for Active; 'I' for Inactive)
REMARK    1  A    between atoms: N_1  and  C_2
REMARK    2  A    between atoms: N_1  and  N_5
REMARK    3  A    between atoms: C_2  and  C_13
REMARK    4  A    between atoms: C_6  and  C_9
REMARK    5  A    between atoms: C_9  and  S_10
REMARK    6  A    between atoms: C_15  and  N_19
REMARK                            x       y       z     vdW  Elec       q    Type
REMARK                         _______ _______ _______ _____ _____    ______ ____
ROOT
ATOM      1  N   UNL     1     -35.556  21.630   3.690  0.00  0.00    -0.117 NA
ENDROOT
BRANCH   1   4
ATOM      2  O   UNL     1     -35.185  24.183   6.064  0.00  0.00    -0.435 OA
ATOM      3  O   UNL     1     -35.897  22.050   6.494  0.00  0.00    -0.225 OA
ATOM      4  N   UNL     1     -35.350  22.779   4.347  0.00  0.00    -0.169 N 
ATOM      5  C   UNL     1     -34.968  24.969   4.870  0.00  0.00    +0.203 C 
ATOM      6  C   UNL     1     -34.795  23.950   3.757  0.00  0.00    +0.161 C 
ATOM      7  C   UNL     1     -35.524  22.902   5.701  0.00  0.00    +0.420 C 
BRANCH   5   8
ATOM      8  C   UNL     1     -36.171  25.879   4.663  0.00  0.00    +0.103 C 
BRANCH   8   9
ATOM      9  S   UNL     1     -36.795  25.727   2.969  0.00  0.00    -0.135 S 
ATOM     10  C   UNL     1     -38.368  24.916   3.336  0.00  0.00    +0.069 C 
ENDBRANCH   8   9
ENDBRANCH   5   8
ENDBRANCH   1   4
BRANCH   1  11
ATOM     11  C   UNL     1     -35.578  21.765   2.403  0.00  0.00    +0.176 C 
BRANCH  11  13
ATOM     12  O   UNL     1     -37.895  21.751   1.842  0.00  0.00    -0.436 OA
ATOM     13  C   UNL     1     -36.671  21.252   1.594  0.00  0.00    +0.144 C 
ATOM     14  C   UNL     1     -36.673  20.331   0.600  0.00  0.00    +0.040 C 
ATOM     15  C   UNL     1     -38.726  21.122   0.969  0.00  0.00    +0.289 C 
ATOM     16  C   UNL     1     -38.023  20.238   0.184  0.00  0.00    +0.066 C 
BRANCH  15  19
ATOM     17  O   UNL     1     -40.953  20.787   0.471  0.00  0.00    -0.123 OA
ATOM     18  O   UNL     1     -40.405  22.525   1.695  0.00  0.00    -0.123 OA
ATOM     19  N   UNL     1     -40.070  21.490   1.048  0.00  0.00    +0.093 N 
ENDBRANCH  15  19
ENDBRANCH  11  13
ENDBRANCH   1  11
TORSDOF 6
ENDMDL
MODEL 8
REMARK VINA RESULT:      -4.8      1.820      2.027
REMARK  Name = 21054
REMARK  6 active torsions:
REMARK  status: ('A' for Active; 'I' for Inactive)
REMARK    1  A    between atoms: N_1  and  C_2
REMARK    2  A    between atoms: N_1  and  N_5
REMARK    3  A    between atoms: C_2  and  C_13
REMARK    4  A    between atoms: C_6  and  C_9
REMARK    5  A    between atoms: C_9  and  S_10
REMARK    6  A    between atoms: C_15  and  N_19
REMARK                            x       y       z     vdW  Elec       q    Type
REMARK                         _______ _______ _______ _____ _____    ______ ____
ROOT
ATOM      1  N   UNL     1     -33.473  25.640   4.955  0.00  0.00    -0.117 NA
ENDROOT
BRANCH   1   4
ATOM      2  O   UNL     1     -33.033  28.158   2.555  0.00  0.00    -0.435 OA
ATOM      3  O   UNL     1     -33.066  28.464   4.825  0.00  0.00    -0.225 OA
ATOM      4  N   UNL     1     -33.360  26.370   3.838  0.00  0.00    -0.169 N 
ATOM      5  C   UNL     1     -33.368  27.069   1.664  0.00  0.00    +0.203 C 
ATOM      6  C   UNL     1     -33.294  25.821   2.526  0.00  0.00    +0.161 C 
ATOM      7  C   UNL     1     -33.153  27.725   3.854  0.00  0.00    +0.420 C 
BRANCH   5   8
ATOM      8  C   UNL     1     -34.757  27.319   1.094  0.00  0.00    +0.103 C 
BRANCH   8   9
ATOM      9  S   UNL     1     -35.744  25.800   1.145  0.00  0.00    -0.135 S 
ATOM     10  C   UNL     1     -36.959  26.314   2.381  0.00  0.00    +0.069 C 
ENDBRANCH   8   9
ENDBRANCH   5   8
ENDBRANCH   1   4
BRANCH   1  11
ATOM     11  C   UNL     1     -34.666  25.178   5.154  0.00  0.00    +0.176 C 
BRANCH  11  13
ATOM     12  O   UNL     1     -35.214  23.222   3.906  0.00  0.00    -0.436 OA
ATOM     13  C   UNL     1     -34.957  23.755   5.113  0.00  0.00    +0.144 C 
ATOM     14  C   UNL     1     -35.015  22.840   6.112  0.00  0.00    +0.040 C 
ATOM     15  C   UNL     1     -35.451  21.903   4.134  0.00  0.00    +0.289 C 
ATOM     16  C   UNL     1     -35.341  21.618   5.475  0.00  0.00    +0.066 C 
BRANCH  15  19
ATOM     17  O   UNL     1     -36.720  21.463   2.259  0.00  0.00    -0.123 OA
ATOM     18  O   UNL     1     -35.039  20.128   2.721  0.00  0.00    -0.123 OA
ATOM     19  N   UNL     1     -35.746  21.141   3.003  0.00  0.00    +0.093 N 
ENDBRANCH  15  19
ENDBRANCH  11  13
ENDBRANCH   1  11
TORSDOF 6
ENDMDL
MODEL 9
REMARK VINA RESULT:      -4.8      3.451      5.641
REMARK  Name = 21054
REMARK  6 active torsions:
REMARK  status: ('A' for Active; 'I' for Inactive)
REMARK    1  A    between atoms: N_1  and  C_2
REMARK    2  A    between atoms: N_1  and  N_5
REMARK    3  A    between atoms: C_2  and  C_13
REMARK    4  A    between atoms: C_6  and  C_9
REMARK    5  A    between atoms: C_9  and  S_10
REMARK    6  A    between atoms: C_15  and  N_19
REMARK                            x       y       z     vdW  Elec       q    Type
REMARK                         _______ _______ _______ _____ _____    ______ ____
ROOT
ATOM      1  N   UNL     1     -36.321  21.353   1.950  0.00  0.00    -0.117 NA
ENDROOT
BRANCH   1   4
ATOM      2  O   UNL     1     -36.969  23.843   4.332  0.00  0.00    -0.435 OA
ATOM      3  O   UNL     1     -38.025  23.616   2.312  0.00  0.00    -0.225 OA
ATOM      4  N   UNL     1     -36.327  22.175   3.007  0.00  0.00    -0.169 N 
ATOM      5  C   UNL     1     -35.795  23.261   4.944  0.00  0.00    +0.203 C 
ATOM      6  C   UNL     1     -35.560  21.965   4.189  0.00  0.00    +0.161 C 
ATOM      7  C   UNL     1     -37.185  23.238   3.117  0.00  0.00    +0.420 C 
BRANCH   5   8
ATOM      8  C   UNL     1     -34.641  24.245   4.811  0.00  0.00    +0.103 C 
BRANCH   8   9
ATOM      9  S   UNL     1     -35.078  25.836   5.558  0.00  0.00    -0.135 S 
ATOM     10  C   UNL     1     -33.480  26.662   5.380  0.00  0.00    +0.069 C 
ENDBRANCH   8   9
ENDBRANCH   5   8
ENDBRANCH   1   4
BRANCH   1  11
ATOM     11  C   UNL     1     -35.612  20.285   2.126  0.00  0.00    +0.176 C 
BRANCH  11  13
ATOM     12  O   UNL     1     -33.769  18.872   1.586  0.00  0.00    -0.436 OA
ATOM     13  C   UNL     1     -34.351  20.074   1.433  0.00  0.00    +0.144 C 
ATOM     14  C   UNL     1     -33.637  20.904   0.634  0.00  0.00    +0.040 C 
ATOM     15  C   UNL     1     -32.626  18.927   0.852  0.00  0.00    +0.289 C 
ATOM     16  C   UNL     1     -32.499  20.156   0.248  0.00  0.00    +0.066 C 
BRANCH  15  19
ATOM     17  O   UNL     1     -32.108  16.824   0.060  0.00  0.00    -0.123 OA
ATOM     18  O   UNL     1     -30.884  17.662   1.678  0.00  0.00    -0.123 OA
ATOM     19  N   UNL     1     -31.848  17.768   0.864  0.00  0.00    +0.093 N 
ENDBRANCH  15  19
ENDBRANCH  11  13
ENDBRANCH   1  11
TORSDOF 6
ENDMDL
