MODEL 1
REMARK VINA RESULT:      -6.6      0.000      0.000
REMARK  Name = 5335621
REMARK  6 active torsions:
REMARK  status: ('A' for Active; 'I' for Inactive)
REMARK    1  A    between atoms: N_3  and  C_10
REMARK    2  A    between atoms: C_8  and  C_22
REMARK    3  A    between atoms: C_13  and  C_17
REMARK    4  A    between atoms: C_17  and  O_18
REMARK    5  A    between atoms: O_18  and  C_19
REMARK    6  A    between atoms: C_25  and  N_28
REMARK                            x       y       z     vdW  Elec       q    Type
REMARK                         _______ _______ _______ _____ _____    ______ ____
ROOT
ATOM      1  O   UNL     1     -31.009  27.661   5.038  0.00  0.00    -0.268 OA
ATOM      2  O   UNL     1     -33.276  31.469   3.368  0.00  0.00    -0.268 OA
ATOM      3  N   UNL     1     -33.172  28.062   4.148  0.00  0.00    -0.182 N 
ATOM      4  N   UNL     1     -33.822  29.199   3.659  0.00  0.00    -0.223 N 
ATOM      5  C   UNL     1     -31.766  29.828   4.286  0.00  0.00    +0.113 C 
ATOM      6  C   UNL     1     -31.874  28.374   4.561  0.00  0.00    +0.273 C 
ATOM      7  C   UNL     1     -33.025  30.329   3.709  0.00  0.00    +0.266 C 
ATOM      8  C   UNL     1     -30.687  30.572   4.529  0.00  0.00    +0.047 C 
ATOM      9  H   UNL     1     -34.746  29.197   3.316  0.00  0.00    +0.174 HD
ENDROOT
BRANCH   3  10
ATOM     10  C   UNL     1     -33.741  26.790   4.213  0.00  0.00    +0.073 C 
ATOM     11  C   UNL     1     -33.849  26.014   3.059  0.00  0.00    +0.017 C 
ATOM     12  C   UNL     1     -34.201  26.294   5.433  0.00  0.00    +0.017 C 
ATOM     13  C   UNL     1     -34.879  24.246   4.345  0.00  0.00    +0.076 C 
ATOM     14  C   UNL     1     -34.418  24.742   3.125  0.00  0.00    +0.008 C 
ATOM     15  C   UNL     1     -34.769  25.022   5.499  0.00  0.00    +0.008 C 
BRANCH  13  17
ATOM     16  O   UNL     1     -35.912  22.402   5.449  0.00  0.00    -0.245 OA
ATOM     17  C   UNL     1     -35.471  22.919   4.414  0.00  0.00    +0.341 C 
BRANCH  17  18
ATOM     18  O   UNL     1     -35.481  22.309   3.190  0.00  0.00    -0.445 OA
BRANCH  18  19
ATOM     19  C   UNL     1     -35.471  20.878   3.181  0.00  0.00    +0.209 C 
ATOM     20  C   UNL     1     -34.848  20.397   1.887  0.00  0.00    +0.051 C 
ENDBRANCH  18  19
ENDBRANCH  17  18
ENDBRANCH  13  17
ENDBRANCH   3  10
BRANCH   8  22
ATOM     21  O   UNL     1     -29.279  30.005   6.422  0.00  0.00    -0.433 OA
ATOM     22  C   UNL     1     -29.416  30.091   5.106  0.00  0.00    +0.148 C 
ATOM     23  C   UNL     1     -28.341  29.717   4.400  0.00  0.00    +0.043 C 
ATOM     24  C   UNL     1     -27.397  29.344   5.387  0.00  0.00    +0.066 C 
ATOM     25  C   UNL     1     -28.016  29.538   6.600  0.00  0.00    +0.289 C 
BRANCH  25  28
ATOM     26  O   UNL     1     -27.551  30.354   8.707  0.00  0.00    -0.123 OA
ATOM     27  O   UNL     1     -27.336  28.198   8.349  0.00  0.00    -0.123 OA
ATOM     28  N   UNL     1     -27.622  29.358   7.927  0.00  0.00    +0.093 N 
ENDBRANCH  25  28
ENDBRANCH   8  22
TORSDOF 6
ENDMDL
MODEL 2
REMARK VINA RESULT:      -6.4      3.772      7.200
REMARK  Name = 5335621
REMARK  6 active torsions:
REMARK  status: ('A' for Active; 'I' for Inactive)
REMARK    1  A    between atoms: N_3  and  C_10
REMARK    2  A    between atoms: C_8  and  C_22
REMARK    3  A    between atoms: C_13  and  C_17
REMARK    4  A    between atoms: C_17  and  O_18
REMARK    5  A    between atoms: O_18  and  C_19
REMARK    6  A    between atoms: C_25  and  N_28
REMARK                            x       y       z     vdW  Elec       q    Type
REMARK                         _______ _______ _______ _____ _____    ______ ____
ROOT
ATOM      1  O   UNL     1     -34.865  23.651   2.484  0.00  0.00    -0.268 OA
ATOM      2  O   UNL     1     -35.485  22.163   6.937  0.00  0.00    -0.268 OA
ATOM      3  N   UNL     1     -35.449  21.583   3.489  0.00  0.00    -0.182 N 
ATOM      4  N   UNL     1     -35.627  21.164   4.812  0.00  0.00    -0.223 N 
ATOM      5  C   UNL     1     -35.074  23.334   4.869  0.00  0.00    +0.113 C 
ATOM      6  C   UNL     1     -35.100  22.935   3.441  0.00  0.00    +0.273 C 
ATOM      7  C   UNL     1     -35.415  22.183   5.724  0.00  0.00    +0.266 C 
ATOM      8  C   UNL     1     -34.781  24.556   5.315  0.00  0.00    +0.047 C 
ATOM      9  H   UNL     1     -35.876  20.246   5.066  0.00  0.00    +0.174 HD
ENDROOT
BRANCH   3  10
ATOM     10  C   UNL     1     -35.600  20.762   2.371  0.00  0.00    +0.073 C 
ATOM     11  C   UNL     1     -36.839  20.665   1.738  0.00  0.00    +0.017 C 
ATOM     12  C   UNL     1     -34.510  20.038   1.886  0.00  0.00    +0.017 C 
ATOM     13  C   UNL     1     -35.899  19.120   0.135  0.00  0.00    +0.076 C 
ATOM     14  C   UNL     1     -36.988  19.844   0.620  0.00  0.00    +0.008 C 
ATOM     15  C   UNL     1     -34.660  19.218   0.768  0.00  0.00    +0.008 C 
BRANCH  13  17
ATOM     16  O   UNL     1     -36.419  18.662  -2.147  0.00  0.00    -0.245 OA
ATOM     17  C   UNL     1     -36.055  18.266  -1.031  0.00  0.00    +0.341 C 
BRANCH  17  18
ATOM     18  O   UNL     1     -35.749  16.963  -0.745  0.00  0.00    -0.445 OA
BRANCH  18  19
ATOM     19  C   UNL     1     -36.738  15.981  -1.067  0.00  0.00    +0.209 C 
ATOM     20  C   UNL     1     -37.867  16.069  -0.062  0.00  0.00    +0.051 C 
ENDBRANCH  18  19
ENDBRANCH  17  18
ENDBRANCH  13  17
ENDBRANCH   3  10
BRANCH   8  22
ATOM     21  O   UNL     1     -33.174  25.937   4.132  0.00  0.00    -0.433 OA
ATOM     22  C   UNL     1     -34.437  25.723   4.478  0.00  0.00    +0.148 C 
ATOM     23  C   UNL     1     -35.312  26.625   4.014  0.00  0.00    +0.043 C 
ATOM     24  C   UNL     1     -34.510  27.530   3.279  0.00  0.00    +0.066 C 
ATOM     25  C   UNL     1     -33.219  27.069   3.381  0.00  0.00    +0.289 C 
BRANCH  25  28
ATOM     26  O   UNL     1     -30.927  27.279   3.535  0.00  0.00    -0.123 OA
ATOM     27  O   UNL     1     -31.942  28.147   1.792  0.00  0.00    -0.123 OA
ATOM     28  N   UNL     1     -31.991  27.512   2.887  0.00  0.00    +0.093 N 
ENDBRANCH  25  28
ENDBRANCH   8  22
TORSDOF 6
ENDMDL
MODEL 3
REMARK VINA RESULT:      -6.3      2.148      7.960
REMARK  Name = 5335621
REMARK  6 active torsions:
REMARK  status: ('A' for Active; 'I' for Inactive)
REMARK    1  A    between atoms: N_3  and  C_10
REMARK    2  A    between atoms: C_8  and  C_22
REMARK    3  A    between atoms: C_13  and  C_17
REMARK    4  A    between atoms: C_17  and  O_18
REMARK    5  A    between atoms: O_18  and  C_19
REMARK    6  A    between atoms: C_25  and  N_28
REMARK                            x       y       z     vdW  Elec       q    Type
REMARK                         _______ _______ _______ _____ _____    ______ ____
ROOT
ATOM      1  O   UNL     1     -33.064  25.856   4.274  0.00  0.00    -0.268 OA
ATOM      2  O   UNL     1     -35.843  29.115   2.253  0.00  0.00    -0.268 OA
ATOM      3  N   UNL     1     -32.999  28.219   4.079  0.00  0.00    -0.182 N 
ATOM      4  N   UNL     1     -33.833  29.165   3.476  0.00  0.00    -0.223 N 
ATOM      5  C   UNL     1     -34.745  27.150   3.119  0.00  0.00    +0.113 C 
ATOM      6  C   UNL     1     -33.503  26.929   3.900  0.00  0.00    +0.273 C 
ATOM      7  C   UNL     1     -34.932  28.589   2.862  0.00  0.00    +0.266 C 
ATOM      8  C   UNL     1     -35.569  26.187   2.707  0.00  0.00    +0.047 C 
ATOM      9  H   UNL     1     -33.659  30.135   3.486  0.00  0.00    +0.174 HD
ENDROOT
BRANCH   3  10
ATOM     10  C   UNL     1     -31.824  28.523   4.767  0.00  0.00    +0.073 C 
ATOM     11  C   UNL     1     -30.590  28.399   4.130  0.00  0.00    +0.017 C 
ATOM     12  C   UNL     1     -31.883  28.953   6.094  0.00  0.00    +0.017 C 
ATOM     13  C   UNL     1     -29.475  29.132   6.144  0.00  0.00    +0.076 C 
ATOM     14  C   UNL     1     -29.415  28.703   4.818  0.00  0.00    +0.008 C 
ATOM     15  C   UNL     1     -30.709  29.258   6.781  0.00  0.00    +0.008 C 
BRANCH  13  17
ATOM     16  O   UNL     1     -27.480  30.372   6.558  0.00  0.00    -0.245 OA
ATOM     17  C   UNL     1     -28.250  29.451   6.861  0.00  0.00    +0.341 C 
BRANCH  17  18
ATOM     18  O   UNL     1     -28.052  28.605   7.918  0.00  0.00    -0.445 OA
BRANCH  18  19
ATOM     19  C   UNL     1     -26.938  27.711   7.831  0.00  0.00    +0.209 C 
ATOM     20  C   UNL     1     -27.413  26.384   7.275  0.00  0.00    +0.051 C 
ENDBRANCH  18  19
ENDBRANCH  17  18
ENDBRANCH  13  17
ENDBRANCH   3  10
BRANCH   8  22
ATOM     21  O   UNL     1     -35.565  24.256   4.176  0.00  0.00    -0.433 OA
ATOM     22  C   UNL     1     -35.402  24.741   2.952  0.00  0.00    +0.148 C 
ATOM     23  C   UNL     1     -35.088  23.831   2.021  0.00  0.00    +0.043 C 
ATOM     24  C   UNL     1     -35.045  22.611   2.736  0.00  0.00    +0.066 C 
ATOM     25  C   UNL     1     -35.342  22.922   4.042  0.00  0.00    +0.289 C 
BRANCH  25  28
ATOM     26  O   UNL     1     -35.902  22.713   6.270  0.00  0.00    -0.123 OA
ATOM     27  O   UNL     1     -35.113  20.953   5.220  0.00  0.00    -0.123 OA
ATOM     28  N   UNL     1     -35.456  22.173   5.214  0.00  0.00    +0.093 N 
ENDBRANCH  25  28
ENDBRANCH   8  22
TORSDOF 6
ENDMDL
MODEL 4
REMARK VINA RESULT:      -6.3      3.015      9.117
REMARK  Name = 5335621
REMARK  6 active torsions:
REMARK  status: ('A' for Active; 'I' for Inactive)
REMARK    1  A    between atoms: N_3  and  C_10
REMARK    2  A    between atoms: C_8  and  C_22
REMARK    3  A    between atoms: C_13  and  C_17
REMARK    4  A    between atoms: C_17  and  O_18
REMARK    5  A    between atoms: O_18  and  C_19
REMARK    6  A    between atoms: C_25  and  N_28
REMARK                            x       y       z     vdW  Elec       q    Type
REMARK                         _______ _______ _______ _____ _____    ______ ____
ROOT
ATOM      1  O   UNL     1     -34.491  23.665   3.179  0.00  0.00    -0.268 OA
ATOM      2  O   UNL     1     -39.049  24.833   3.719  0.00  0.00    -0.268 OA
ATOM      3  N   UNL     1     -35.645  25.458   4.219  0.00  0.00    -0.182 N 
ATOM      4  N   UNL     1     -36.997  25.784   4.367  0.00  0.00    -0.223 N 
ATOM      5  C   UNL     1     -36.898  23.867   3.214  0.00  0.00    +0.113 C 
ATOM      6  C   UNL     1     -35.499  24.266   3.506  0.00  0.00    +0.273 C 
ATOM      7  C   UNL     1     -37.834  24.855   3.776  0.00  0.00    +0.266 C 
ATOM      8  C   UNL     1     -37.254  22.774   2.538  0.00  0.00    +0.047 C 
ATOM      9  H   UNL     1     -37.318  26.587   4.840  0.00  0.00    +0.174 HD
ENDROOT
BRANCH   3  10
ATOM     10  C   UNL     1     -34.587  26.219   4.717  0.00  0.00    +0.073 C 
ATOM     11  C   UNL     1     -34.186  26.073   6.044  0.00  0.00    +0.017 C 
ATOM     12  C   UNL     1     -33.930  27.127   3.886  0.00  0.00    +0.017 C 
ATOM     13  C   UNL     1     -32.471  27.742   5.710  0.00  0.00    +0.076 C 
ATOM     14  C   UNL     1     -33.128  26.834   6.541  0.00  0.00    +0.008 C 
ATOM     15  C   UNL     1     -32.872  27.888   4.382  0.00  0.00    +0.008 C 
BRANCH  13  17
ATOM     16  O   UNL     1     -31.500  29.552   6.922  0.00  0.00    -0.245 OA
ATOM     17  C   UNL     1     -31.367  28.535   6.228  0.00  0.00    +0.341 C 
BRANCH  17  18
ATOM     18  O   UNL     1     -30.157  28.018   5.854  0.00  0.00    -0.445 OA
BRANCH  18  19
ATOM     19  C   UNL     1     -29.019  28.410   6.627  0.00  0.00    +0.209 C 
ATOM     20  C   UNL     1     -28.230  27.173   7.005  0.00  0.00    +0.051 C 
ENDBRANCH  18  19
ENDBRANCH  17  18
ENDBRANCH  13  17
ENDBRANCH   3  10
BRANCH   8  22
ATOM     21  O   UNL     1     -35.864  21.933   0.736  0.00  0.00    -0.433 OA
ATOM     22  C   UNL     1     -36.334  21.772   1.966  0.00  0.00    +0.148 C 
ATOM     23  C   UNL     1     -35.907  20.668   2.594  0.00  0.00    +0.043 C 
ATOM     24  C   UNL     1     -35.059  20.044   1.649  0.00  0.00    +0.066 C 
ATOM     25  C   UNL     1     -35.066  20.851   0.536  0.00  0.00    +0.289 C 
BRANCH  25  28
ATOM     26  O   UNL     1     -33.642  19.838  -0.969  0.00  0.00    -0.123 OA
ATOM     27  O   UNL     1     -34.674  21.677  -1.582  0.00  0.00    -0.123 OA
ATOM     28  N   UNL     1     -34.441  20.787  -0.710  0.00  0.00    +0.093 N 
ENDBRANCH  25  28
ENDBRANCH   8  22
TORSDOF 6
ENDMDL
MODEL 5
REMARK VINA RESULT:      -6.3      4.837      8.345
REMARK  Name = 5335621
REMARK  6 active torsions:
REMARK  status: ('A' for Active; 'I' for Inactive)
REMARK    1  A    between atoms: N_3  and  C_10
REMARK    2  A    between atoms: C_8  and  C_22
REMARK    3  A    between atoms: C_13  and  C_17
REMARK    4  A    between atoms: C_17  and  O_18
REMARK    5  A    between atoms: O_18  and  C_19
REMARK    6  A    between atoms: C_25  and  N_28
REMARK                            x       y       z     vdW  Elec       q    Type
REMARK                         _______ _______ _______ _____ _____    ______ ____
ROOT
ATOM      1  O   UNL     1     -35.325  22.705   2.830  0.00  0.00    -0.268 OA
ATOM      2  O   UNL     1     -40.013  22.369   2.251  0.00  0.00    -0.268 OA
ATOM      3  N   UNL     1     -36.776  21.113   1.837  0.00  0.00    -0.182 N 
ATOM      4  N   UNL     1     -38.163  21.033   1.677  0.00  0.00    -0.223 N 
ATOM      5  C   UNL     1     -37.727  22.946   2.759  0.00  0.00    +0.113 C 
ATOM      6  C   UNL     1     -36.422  22.286   2.508  0.00  0.00    +0.273 C 
ATOM      7  C   UNL     1     -38.822  22.124   2.217  0.00  0.00    +0.266 C 
ATOM      8  C   UNL     1     -37.884  24.111   3.387  0.00  0.00    +0.047 C 
ATOM      9  H   UNL     1     -38.620  20.285   1.229  0.00  0.00    +0.174 HD
ENDROOT
BRANCH   3  10
ATOM     10  C   UNL     1     -35.870  20.152   1.388  0.00  0.00    +0.073 C 
ATOM     11  C   UNL     1     -36.239  19.262   0.379  0.00  0.00    +0.017 C 
ATOM     12  C   UNL     1     -34.594  20.080   1.949  0.00  0.00    +0.017 C 
ATOM     13  C   UNL     1     -34.056  18.230   0.491  0.00  0.00    +0.076 C 
ATOM     14  C   UNL     1     -35.332  18.302  -0.069  0.00  0.00    +0.008 C 
ATOM     15  C   UNL     1     -33.688  19.120   1.500  0.00  0.00    +0.008 C 
BRANCH  13  17
ATOM     16  O   UNL     1     -33.224  16.602  -1.039  0.00  0.00    -0.245 OA
ATOM     17  C   UNL     1     -33.111  17.229   0.023  0.00  0.00    +0.341 C 
BRANCH  17  18
ATOM     18  O   UNL     1     -32.076  17.064   0.902  0.00  0.00    -0.445 OA
BRANCH  18  19
ATOM     19  C   UNL     1     -30.756  17.046   0.350  0.00  0.00    +0.209 C 
ATOM     20  C   UNL     1     -30.191  18.451   0.375  0.00  0.00    +0.051 C 
ENDBRANCH  18  19
ENDBRANCH  17  18
ENDBRANCH  13  17
ENDBRANCH   3  10
BRANCH   8  22
ATOM     21  O   UNL     1     -36.240  25.883   3.180  0.00  0.00    -0.433 OA
ATOM     22  C   UNL     1     -36.802  24.951   3.937  0.00  0.00    +0.148 C 
ATOM     23  C   UNL     1     -36.312  24.861   5.180  0.00  0.00    +0.043 C 
ATOM     24  C   UNL     1     -35.310  25.859   5.226  0.00  0.00    +0.066 C 
ATOM     25  C   UNL     1     -35.306  26.453   3.985  0.00  0.00    +0.289 C 
BRANCH  25  28
ATOM     26  O   UNL     1     -34.682  27.735   2.172  0.00  0.00    -0.123 OA
ATOM     27  O   UNL     1     -33.768  28.167   4.122  0.00  0.00    -0.123 OA
ATOM     28  N   UNL     1     -34.562  27.484   3.408  0.00  0.00    +0.093 N 
ENDBRANCH  25  28
ENDBRANCH   8  22
TORSDOF 6
ENDMDL
MODEL 6
REMARK VINA RESULT:      -6.3      5.427     10.215
REMARK  Name = 5335621
REMARK  6 active torsions:
REMARK  status: ('A' for Active; 'I' for Inactive)
REMARK    1  A    between atoms: N_3  and  C_10
REMARK    2  A    between atoms: C_8  and  C_22
REMARK    3  A    between atoms: C_13  and  C_17
REMARK    4  A    between atoms: C_17  and  O_18
REMARK    5  A    between atoms: O_18  and  C_19
REMARK    6  A    between atoms: C_25  and  N_28
REMARK                            x       y       z     vdW  Elec       q    Type
REMARK                         _______ _______ _______ _____ _____    ______ ____
ROOT
ATOM      1  O   UNL     1     -38.738  26.357   2.949  0.00  0.00    -0.268 OA
ATOM      2  O   UNL     1     -39.023  21.695   2.167  0.00  0.00    -0.268 OA
ATOM      3  N   UNL     1     -37.335  24.497   3.401  0.00  0.00    -0.182 N 
ATOM      4  N   UNL     1     -37.440  23.123   3.160  0.00  0.00    -0.223 N 
ATOM      5  C   UNL     1     -39.297  24.083   2.356  0.00  0.00    +0.113 C 
ATOM      6  C   UNL     1     -38.463  25.170   2.924  0.00  0.00    +0.273 C 
ATOM      7  C   UNL     1     -38.619  22.786   2.520  0.00  0.00    +0.266 C 
ATOM      8  C   UNL     1     -40.489  24.256   1.783  0.00  0.00    +0.047 C 
ATOM      9  H   UNL     1     -36.751  22.469   3.417  0.00  0.00    +0.174 HD
ENDROOT
BRANCH   3  10
ATOM     10  C   UNL     1     -36.252  25.111   4.030  0.00  0.00    +0.073 C 
ATOM     11  C   UNL     1     -35.460  26.020   3.328  0.00  0.00    +0.017 C 
ATOM     12  C   UNL     1     -35.961  24.817   5.363  0.00  0.00    +0.017 C 
ATOM     13  C   UNL     1     -34.087  26.339   5.291  0.00  0.00    +0.076 C 
ATOM     14  C   UNL     1     -34.378  26.633   3.958  0.00  0.00    +0.008 C 
ATOM     15  C   UNL     1     -34.880  25.431   5.993  0.00  0.00    +0.008 C 
BRANCH  13  17
ATOM     16  O   UNL     1     -32.831  27.086   7.175  0.00  0.00    -0.245 OA
ATOM     17  C   UNL     1     -32.959  26.979   5.948  0.00  0.00    +0.341 C 
BRANCH  17  18
ATOM     18  O   UNL     1     -32.051  27.453   5.041  0.00  0.00    -0.445 OA
BRANCH  18  19
ATOM     19  C   UNL     1     -31.345  28.646   5.395  0.00  0.00    +0.209 C 
ATOM     20  C   UNL     1     -32.168  29.848   4.981  0.00  0.00    +0.051 C 
ENDBRANCH  18  19
ENDBRANCH  17  18
ENDBRANCH  13  17
ENDBRANCH   3  10
BRANCH   8  22
ATOM     21  O   UNL     1     -41.771  26.125   2.649  0.00  0.00    -0.433 OA
ATOM     22  C   UNL     1     -41.187  25.545   1.609  0.00  0.00    +0.148 C 
ATOM     23  C   UNL     1     -41.292  26.216   0.454  0.00  0.00    +0.043 C 
ATOM     24  C   UNL     1     -42.037  27.369   0.796  0.00  0.00    +0.066 C 
ATOM     25  C   UNL     1     -42.304  27.268   2.141  0.00  0.00    +0.289 C 
BRANCH  25  28
ATOM     26  O   UNL     1     -42.348  28.905   3.765  0.00  0.00    -0.123 OA
ATOM     27  O   UNL     1     -44.243  27.966   3.175  0.00  0.00    -0.123 OA
ATOM     28  N   UNL     1     -42.986  28.071   3.056  0.00  0.00    +0.093 N 
ENDBRANCH  25  28
ENDBRANCH   8  22
TORSDOF 6
ENDMDL
MODEL 7
REMARK VINA RESULT:      -6.3      5.138      7.934
REMARK  Name = 5335621
REMARK  6 active torsions:
REMARK  status: ('A' for Active; 'I' for Inactive)
REMARK    1  A    between atoms: N_3  and  C_10
REMARK    2  A    between atoms: C_8  and  C_22
REMARK    3  A    between atoms: C_13  and  C_17
REMARK    4  A    between atoms: C_17  and  O_18
REMARK    5  A    between atoms: O_18  and  C_19
REMARK    6  A    between atoms: C_25  and  N_28
REMARK                            x       y       z     vdW  Elec       q    Type
REMARK                         _______ _______ _______ _____ _____    ______ ____
ROOT
ATOM      1  O   UNL     1     -35.100  23.567   2.205  0.00  0.00    -0.268 OA
ATOM      2  O   UNL     1     -35.500  22.290   6.748  0.00  0.00    -0.268 OA
ATOM      3  N   UNL     1     -35.423  21.509   3.341  0.00  0.00    -0.182 N 
ATOM      4  N   UNL     1     -35.539  21.154   4.689  0.00  0.00    -0.223 N 
ATOM      5  C   UNL     1     -35.249  23.374   4.608  0.00  0.00    +0.113 C 
ATOM      6  C   UNL     1     -35.240  22.887   3.207  0.00  0.00    +0.273 C 
ATOM      7  C   UNL     1     -35.443  22.245   5.535  0.00  0.00    +0.266 C 
ATOM      8  C   UNL     1     -35.101  24.647   4.975  0.00  0.00    +0.047 C 
ATOM      9  H   UNL     1     -35.674  20.230   5.001  0.00  0.00    +0.174 HD
ENDROOT
BRANCH   3  10
ATOM     10  C   UNL     1     -35.484  20.609   2.276  0.00  0.00    +0.073 C 
ATOM     11  C   UNL     1     -34.333  19.939   1.862  0.00  0.00    +0.017 C 
ATOM     12  C   UNL     1     -36.696  20.379   1.626  0.00  0.00    +0.017 C 
ATOM     13  C   UNL     1     -35.607  18.810   0.147  0.00  0.00    +0.076 C 
ATOM     14  C   UNL     1     -34.394  19.040   0.798  0.00  0.00    +0.008 C 
ATOM     15  C   UNL     1     -36.758  19.479   0.562  0.00  0.00    +0.008 C 
BRANCH  13  17
ATOM     16  O   UNL     1     -35.723  18.199  -2.155  0.00  0.00    -0.245 OA
ATOM     17  C   UNL     1     -35.670  17.871  -0.961  0.00  0.00    +0.341 C 
BRANCH  17  18
ATOM     18  O   UNL     1     -35.665  16.575  -0.525  0.00  0.00    -0.445 OA
BRANCH  18  19
ATOM     19  C   UNL     1     -36.724  15.732  -0.988  0.00  0.00    +0.209 C 
ATOM     20  C   UNL     1     -37.962  15.992  -0.154  0.00  0.00    +0.051 C 
ENDBRANCH  18  19
ENDBRANCH  17  18
ENDBRANCH  13  17
ENDBRANCH   3  10
BRANCH   8  22
ATOM     21  O   UNL     1     -35.944  26.305   3.417  0.00  0.00    -0.433 OA
ATOM     22  C   UNL     1     -34.906  25.793   4.065  0.00  0.00    +0.148 C 
ATOM     23  C   UNL     1     -33.734  26.393   3.820  0.00  0.00    +0.043 C 
ATOM     24  C   UNL     1     -34.061  27.417   2.899  0.00  0.00    +0.066 C 
ATOM     25  C   UNL     1     -35.416  27.322   2.687  0.00  0.00    +0.289 C 
BRANCH  25  28
ATOM     26  O   UNL     1     -36.006  29.167   1.435  0.00  0.00    -0.123 OA
ATOM     27  O   UNL     1     -37.467  27.543   1.655  0.00  0.00    -0.123 OA
ATOM     28  N   UNL     1     -36.325  28.033   1.901  0.00  0.00    +0.093 N 
ENDBRANCH  25  28
ENDBRANCH   8  22
TORSDOF 6
ENDMDL
MODEL 8
REMARK VINA RESULT:      -6.2      3.954      9.857
REMARK  Name = 5335621
REMARK  6 active torsions:
REMARK  status: ('A' for Active; 'I' for Inactive)
REMARK    1  A    between atoms: N_3  and  C_10
REMARK    2  A    between atoms: C_8  and  C_22
REMARK    3  A    between atoms: C_13  and  C_17
REMARK    4  A    between atoms: C_17  and  O_18
REMARK    5  A    between atoms: O_18  and  C_19
REMARK    6  A    between atoms: C_25  and  N_28
REMARK                            x       y       z     vdW  Elec       q    Type
REMARK                         _______ _______ _______ _____ _____    ______ ____
ROOT
ATOM      1  O   UNL     1     -34.825  22.068   1.941  0.00  0.00    -0.268 OA
ATOM      2  O   UNL     1     -39.555  22.018   2.152  0.00  0.00    -0.268 OA
ATOM      3  N   UNL     1     -36.460  23.351   3.085  0.00  0.00    -0.182 N 
ATOM      4  N   UNL     1     -37.858  23.318   3.132  0.00  0.00    -0.223 N 
ATOM      5  C   UNL     1     -37.201  21.682   1.750  0.00  0.00    +0.113 C 
ATOM      6  C   UNL     1     -35.972  22.353   2.238  0.00  0.00    +0.273 C 
ATOM      7  C   UNL     1     -38.392  22.319   2.338  0.00  0.00    +0.266 C 
ATOM      8  C   UNL     1     -37.225  20.655   0.901  0.00  0.00    +0.047 C 
ATOM      9  H   UNL     1     -38.401  23.938   3.672  0.00  0.00    +0.174 HD
ENDROOT
BRANCH   3  10
ATOM     10  C   UNL     1     -35.664  24.255   3.787  0.00  0.00    +0.073 C 
ATOM     11  C   UNL     1     -34.963  25.247   3.102  0.00  0.00    +0.017 C 
ATOM     12  C   UNL     1     -35.570  24.168   5.177  0.00  0.00    +0.017 C 
ATOM     13  C   UNL     1     -34.073  26.064   5.195  0.00  0.00    +0.076 C 
ATOM     14  C   UNL     1     -34.167  26.151   3.806  0.00  0.00    +0.008 C 
ATOM     15  C   UNL     1     -34.775  25.073   5.880  0.00  0.00    +0.008 C 
BRANCH  13  17
ATOM     16  O   UNL     1     -32.862  26.844   7.095  0.00  0.00    -0.245 OA
ATOM     17  C   UNL     1     -33.244  27.007   5.928  0.00  0.00    +0.341 C 
BRANCH  17  18
ATOM     18  O   UNL     1     -32.935  28.102   5.169  0.00  0.00    -0.445 OA
BRANCH  18  19
ATOM     19  C   UNL     1     -31.661  28.712   5.400  0.00  0.00    +0.209 C 
ATOM     20  C   UNL     1     -31.873  30.146   5.838  0.00  0.00    +0.051 C 
ENDBRANCH  18  19
ENDBRANCH  17  18
ENDBRANCH  13  17
ENDBRANCH   3  10
BRANCH   8  22
ATOM     21  O   UNL     1     -35.383  19.077   0.983  0.00  0.00    -0.433 OA
ATOM     22  C   UNL     1     -36.045  20.002   0.300  0.00  0.00    +0.148 C 
ATOM     23  C   UNL     1     -35.557  20.261  -0.920  0.00  0.00    +0.043 C 
ATOM     24  C   UNL     1     -34.443  19.396  -1.033  0.00  0.00    +0.066 C 
ATOM     25  C   UNL     1     -34.380  18.697   0.149  0.00  0.00    +0.289 C 
BRANCH  25  28
ATOM     26  O   UNL     1     -33.655  16.510   0.269  0.00  0.00    -0.123 OA
ATOM     27  O   UNL     1     -32.619  18.022   1.477  0.00  0.00    -0.123 OA
ATOM     28  N   UNL     1     -33.525  17.712   0.647  0.00  0.00    +0.093 N 
ENDBRANCH  25  28
ENDBRANCH   8  22
TORSDOF 6
ENDMDL
MODEL 9
REMARK VINA RESULT:      -6.1      4.903      8.457
REMARK  Name = 5335621
REMARK  6 active torsions:
REMARK  status: ('A' for Active; 'I' for Inactive)
REMARK    1  A    between atoms: N_3  and  C_10
REMARK    2  A    between atoms: C_8  and  C_22
REMARK    3  A    between atoms: C_13  and  C_17
REMARK    4  A    between atoms: C_17  and  O_18
REMARK    5  A    between atoms: O_18  and  C_19
REMARK    6  A    between atoms: C_25  and  N_28
REMARK                            x       y       z     vdW  Elec       q    Type
REMARK                         _______ _______ _______ _____ _____    ______ ____
ROOT
ATOM      1  O   UNL     1     -35.341  22.710   2.805  0.00  0.00    -0.268 OA
ATOM      2  O   UNL     1     -40.012  22.307   2.137  0.00  0.00    -0.268 OA
ATOM      3  N   UNL     1     -36.752  21.085   1.806  0.00  0.00    -0.182 N 
ATOM      4  N   UNL     1     -38.135  20.986   1.619  0.00  0.00    -0.223 N 
ATOM      5  C   UNL     1     -37.744  22.919   2.683  0.00  0.00    +0.113 C 
ATOM      6  C   UNL     1     -36.426  22.272   2.467  0.00  0.00    +0.273 C 
ATOM      7  C   UNL     1     -38.818  22.076   2.131  0.00  0.00    +0.266 C 
ATOM      8  C   UNL     1     -37.928  24.091   3.291  0.00  0.00    +0.047 C 
ATOM      9  H   UNL     1     -38.573  20.226   1.173  0.00  0.00    +0.174 HD
ENDROOT
BRANCH   3  10
ATOM     10  C   UNL     1     -35.826  20.130   1.388  0.00  0.00    +0.073 C 
ATOM     11  C   UNL     1     -34.568  20.068   1.988  0.00  0.00    +0.017 C 
ATOM     12  C   UNL     1     -36.158  19.234   0.371  0.00  0.00    +0.017 C 
ATOM     13  C   UNL     1     -33.974  18.217   0.552  0.00  0.00    +0.076 C 
ATOM     14  C   UNL     1     -33.642  19.112   1.570  0.00  0.00    +0.008 C 
ATOM     15  C   UNL     1     -35.233  18.278  -0.046  0.00  0.00    +0.008 C 
BRANCH  13  17
ATOM     16  O   UNL     1     -32.018  16.871   0.773  0.00  0.00    -0.245 OA
ATOM     17  C   UNL     1     -33.010  17.219   0.118  0.00  0.00    +0.341 C 
BRANCH  17  18
ATOM     18  O   UNL     1     -33.332  16.709  -1.110  0.00  0.00    -0.445 OA
BRANCH  18  19
ATOM     19  C   UNL     1     -33.292  15.285  -1.250  0.00  0.00    +0.209 C 
ATOM     20  C   UNL     1     -34.700  14.739  -1.128  0.00  0.00    +0.051 C 
ENDBRANCH  18  19
ENDBRANCH  17  18
ENDBRANCH  13  17
ENDBRANCH   3  10
BRANCH   8  22
ATOM     21  O   UNL     1     -36.307  25.885   3.094  0.00  0.00    -0.433 OA
ATOM     22  C   UNL     1     -36.868  24.951   3.851  0.00  0.00    +0.148 C 
ATOM     23  C   UNL     1     -36.396  24.880   5.102  0.00  0.00    +0.043 C 
ATOM     24  C   UNL     1     -35.410  25.894   5.154  0.00  0.00    +0.066 C 
ATOM     25  C   UNL     1     -35.394  26.476   3.909  0.00  0.00    +0.289 C 
BRANCH  25  28
ATOM     26  O   UNL     1     -34.734  27.729   2.088  0.00  0.00    -0.123 OA
ATOM     27  O   UNL     1     -33.911  28.235   4.060  0.00  0.00    -0.123 OA
ATOM     28  N   UNL     1     -34.656  27.512   3.334  0.00  0.00    +0.093 N 
ENDBRANCH  25  28
ENDBRANCH   8  22
TORSDOF 6
ENDMDL
