MODEL 1
REMARK VINA RESULT:      -5.7      0.000      0.000
REMARK  Name = 194197
REMARK  7 active torsions:
REMARK  status: ('A' for Active; 'I' for Inactive)
REMARK    1  A    between atoms: P_1  and  O_3
REMARK    2  A    between atoms: P_1  and  O_5
REMARK    3  A    between atoms: P_1  and  O_16
REMARK    4  A    between atoms: O_5  and  C_9
REMARK    5  A    between atoms: O_16  and  P_17
REMARK    6  A    between atoms: P_17  and  O_19
REMARK    7  A    between atoms: P_17  and  O_21
REMARK                            x       y       z     vdW  Elec       q    Type
REMARK                         _______ _______ _______ _____ _____    ______ ____
ROOT
ATOM      1  P   UNL     1     -35.607  20.730   2.446  0.00  0.00    +0.484 P 
ATOM      2  O   UNL     1     -35.895  21.930   1.591  0.00  0.00    -0.227 OA
ENDROOT
BRANCH   1   3
ATOM      3  O   UNL     1     -36.838  19.688   2.570  0.00  0.00    -0.302 OA
ATOM      4  H   UNL     1     -37.218  19.742   3.460  0.00  0.00    +0.222 HD
ENDBRANCH   1   3
BRANCH   1   5
ATOM      5  O   UNL     1     -34.361  19.825   1.945  0.00  0.00    -0.276 OA
BRANCH   5   9
ATOM      6  C   UNL     1     -33.617  18.375   0.065  0.00  0.00    +0.026 C 
ATOM      7  C   UNL     1     -32.756  18.700  -1.194  0.00  0.00    +0.002 C 
ATOM      8  C   UNL     1     -31.799  19.588  -0.356  0.00  0.00    +0.003 C 
ATOM      9  C   UNL     1     -34.015  19.793   0.571  0.00  0.00    +0.126 C 
ATOM     10  C   UNL     1     -32.569  17.793   1.057  0.00  0.00    +0.002 C 
ATOM     11  C   UNL     1     -32.741  20.618   0.312  0.00  0.00    +0.030 C 
ATOM     12  C   UNL     1     -31.320  18.643   0.769  0.00  0.00    +0.000 C 
ATOM     13  C   UNL     1     -34.805  17.452  -0.136  0.00  0.00    +0.002 C 
ATOM     14  C   UNL     1     -32.070  17.492  -1.864  0.00  0.00    +0.000 C 
ATOM     15  C   UNL     1     -33.489  19.453  -2.323  0.00  0.00    +0.000 C 
ENDBRANCH   5   9
ENDBRANCH   1   5
BRANCH   1  16
ATOM     16  O   UNL     1     -35.261  21.081   3.986  0.00  0.00    -0.186 OA
BRANCH  16  17
ATOM     17  P   UNL     1     -35.586  22.391   4.873  0.00  0.00    +0.481 P 
ATOM     18  O   UNL     1     -34.469  23.392   4.944  0.00  0.00    -0.227 OA
BRANCH  17  19
ATOM     19  O   UNL     1     -36.046  21.769   6.292  0.00  0.00    -0.302 OA
ATOM     20  H   UNL     1     -35.393  21.116   6.585  0.00  0.00    +0.222 HD
ENDBRANCH  17  19
BRANCH  17  21
ATOM     21  O   UNL     1     -36.966  22.941   4.235  0.00  0.00    -0.302 OA
ATOM     22  H   UNL     1     -36.814  23.813   3.840  0.00  0.00    +0.222 HD
ENDBRANCH  17  21
ENDBRANCH  16  17
ENDBRANCH   1  16
TORSDOF 7
ENDMDL
MODEL 2
REMARK VINA RESULT:      -5.6      6.585      8.100
REMARK  Name = 194197
REMARK  7 active torsions:
REMARK  status: ('A' for Active; 'I' for Inactive)
REMARK    1  A    between atoms: P_1  and  O_3
REMARK    2  A    between atoms: P_1  and  O_5
REMARK    3  A    between atoms: P_1  and  O_16
REMARK    4  A    between atoms: O_5  and  C_9
REMARK    5  A    between atoms: O_16  and  P_17
REMARK    6  A    between atoms: P_17  and  O_19
REMARK    7  A    between atoms: P_17  and  O_21
REMARK                            x       y       z     vdW  Elec       q    Type
REMARK                         _______ _______ _______ _____ _____    ______ ____
ROOT
ATOM      1  P   UNL     1     -33.069  28.064   3.710  0.00  0.00    +0.484 P 
ATOM      2  O   UNL     1     -32.494  27.812   2.345  0.00  0.00    -0.227 OA
ENDROOT
BRANCH   1   3
ATOM      3  O   UNL     1     -33.248  29.628   4.081  0.00  0.00    -0.302 OA
ATOM      4  H   UNL     1     -33.706  29.708   4.932  0.00  0.00    +0.222 HD
ENDBRANCH   1   3
BRANCH   1   5
ATOM      5  O   UNL     1     -34.534  27.421   3.956  0.00  0.00    -0.276 OA
BRANCH   5   9
ATOM      6  C   UNL     1     -35.120  25.081   3.340  0.00  0.00    +0.026 C 
ATOM      7  C   UNL     1     -35.722  23.924   4.192  0.00  0.00    +0.002 C 
ATOM      8  C   UNL     1     -36.698  24.902   4.899  0.00  0.00    +0.003 C 
ATOM      9  C   UNL     1     -34.653  26.091   4.431  0.00  0.00    +0.126 C 
ATOM     10  C   UNL     1     -36.373  25.682   2.641  0.00  0.00    +0.002 C 
ATOM     11  C   UNL     1     -35.768  25.989   5.488  0.00  0.00    +0.030 C 
ATOM     12  C   UNL     1     -37.455  25.566   3.727  0.00  0.00    +0.000 C 
ATOM     13  C   UNL     1     -34.025  24.711   2.356  0.00  0.00    +0.002 C 
ATOM     14  C   UNL     1     -36.420  22.802   3.396  0.00  0.00    +0.000 C 
ATOM     15  C   UNL     1     -34.737  23.219   5.146  0.00  0.00    +0.000 C 
ENDBRANCH   5   9
ENDBRANCH   1   5
BRANCH   1  16
ATOM     16  O   UNL     1     -32.166  27.495   4.925  0.00  0.00    -0.186 OA
BRANCH  16  17
ATOM     17  P   UNL     1     -31.846  28.109   6.385  0.00  0.00    +0.481 P 
ATOM     18  O   UNL     1     -32.105  29.582   6.515  0.00  0.00    -0.227 OA
BRANCH  17  19
ATOM     19  O   UNL     1     -30.320  27.650   6.650  0.00  0.00    -0.302 OA
ATOM     20  H   UNL     1     -30.168  27.566   7.604  0.00  0.00    +0.222 HD
ENDBRANCH  17  19
BRANCH  17  21
ATOM     21  O   UNL     1     -32.703  27.167   7.381  0.00  0.00    -0.302 OA
ATOM     22  H   UNL     1     -32.378  27.277   8.288  0.00  0.00    +0.222 HD
ENDBRANCH  17  21
ENDBRANCH  16  17
ENDBRANCH   1  16
TORSDOF 7
ENDMDL
MODEL 3
REMARK VINA RESULT:      -5.5      5.185      6.866
REMARK  Name = 194197
REMARK  7 active torsions:
REMARK  status: ('A' for Active; 'I' for Inactive)
REMARK    1  A    between atoms: P_1  and  O_3
REMARK    2  A    between atoms: P_1  and  O_5
REMARK    3  A    between atoms: P_1  and  O_16
REMARK    4  A    between atoms: O_5  and  C_9
REMARK    5  A    between atoms: O_16  and  P_17
REMARK    6  A    between atoms: P_17  and  O_19
REMARK    7  A    between atoms: P_17  and  O_21
REMARK                            x       y       z     vdW  Elec       q    Type
REMARK                         _______ _______ _______ _____ _____    ______ ____
ROOT
ATOM      1  P   UNL     1     -36.885  21.719   1.810  0.00  0.00    +0.484 P 
ATOM      2  O   UNL     1     -35.834  21.640   0.740  0.00  0.00    -0.227 OA
ENDROOT
BRANCH   1   3
ATOM      3  O   UNL     1     -37.248  20.298   2.494  0.00  0.00    -0.302 OA
ATOM      4  H   UNL     1     -38.163  20.319   2.817  0.00  0.00    +0.222 HD
ENDBRANCH   1   3
BRANCH   1   5
ATOM      5  O   UNL     1     -36.512  22.683   3.055  0.00  0.00    -0.276 OA
BRANCH   5   9
ATOM      6  C   UNL     1     -35.096  24.729   3.071  0.00  0.00    +0.026 C 
ATOM      7  C   UNL     1     -35.444  26.207   3.423  0.00  0.00    +0.002 C 
ATOM      8  C   UNL     1     -36.322  25.754   4.620  0.00  0.00    +0.003 C 
ATOM      9  C   UNL     1     -36.504  24.090   2.885  0.00  0.00    +0.126 C 
ATOM     10  C   UNL     1     -34.501  24.189   4.403  0.00  0.00    +0.002 C 
ATOM     11  C   UNL     1     -37.337  24.776   3.982  0.00  0.00    +0.030 C 
ATOM     12  C   UNL     1     -35.360  24.892   5.468  0.00  0.00    +0.000 C 
ATOM     13  C   UNL     1     -34.172  24.505   1.887  0.00  0.00    +0.002 C 
ATOM     14  C   UNL     1     -34.250  27.099   3.819  0.00  0.00    +0.000 C 
ATOM     15  C   UNL     1     -36.214  26.985   2.336  0.00  0.00    +0.000 C 
ENDBRANCH   5   9
ENDBRANCH   1   5
BRANCH   1  16
ATOM     16  O   UNL     1     -38.319  22.259   1.293  0.00  0.00    -0.186 OA
BRANCH  16  17
ATOM     17  P   UNL     1     -39.714  21.485   1.039  0.00  0.00    +0.481 P 
ATOM     18  O   UNL     1     -40.764  22.301   0.343  0.00  0.00    -0.227 OA
BRANCH  17  19
ATOM     19  O   UNL     1     -40.115  20.957   2.512  0.00  0.00    -0.302 OA
ATOM     20  H   UNL     1     -39.479  20.284   2.799  0.00  0.00    +0.222 HD
ENDBRANCH  17  19
BRANCH  17  21
ATOM     21  O   UNL     1     -39.259  20.140   0.265  0.00  0.00    -0.302 OA
ATOM     22  H   UNL     1     -39.885  19.426   0.464  0.00  0.00    +0.222 HD
ENDBRANCH  17  21
ENDBRANCH  16  17
ENDBRANCH   1  16
TORSDOF 7
ENDMDL
MODEL 4
REMARK VINA RESULT:      -5.4      4.890      6.629
REMARK  Name = 194197
REMARK  7 active torsions:
REMARK  status: ('A' for Active; 'I' for Inactive)
REMARK    1  A    between atoms: P_1  and  O_3
REMARK    2  A    between atoms: P_1  and  O_5
REMARK    3  A    between atoms: P_1  and  O_16
REMARK    4  A    between atoms: O_5  and  C_9
REMARK    5  A    between atoms: O_16  and  P_17
REMARK    6  A    between atoms: P_17  and  O_19
REMARK    7  A    between atoms: P_17  and  O_21
REMARK                            x       y       z     vdW  Elec       q    Type
REMARK                         _______ _______ _______ _____ _____    ______ ____
ROOT
ATOM      1  P   UNL     1     -38.563  22.497   1.984  0.00  0.00    +0.484 P 
ATOM      2  O   UNL     1     -40.030  22.648   2.268  0.00  0.00    -0.227 OA
ENDROOT
BRANCH   1   3
ATOM      3  O   UNL     1     -38.051  23.294   0.673  0.00  0.00    -0.302 OA
ATOM      4  H   UNL     1     -37.519  24.058   0.946  0.00  0.00    +0.222 HD
ENDBRANCH   1   3
BRANCH   1   5
ATOM      5  O   UNL     1     -37.587  23.005   3.171  0.00  0.00    -0.276 OA
BRANCH   5   9
ATOM      6  C   UNL     1     -35.438  24.259   3.221  0.00  0.00    +0.026 C 
ATOM      7  C   UNL     1     -35.114  25.706   3.699  0.00  0.00    +0.002 C 
ATOM      8  C   UNL     1     -36.053  25.552   4.925  0.00  0.00    +0.003 C 
ATOM      9  C   UNL     1     -36.991  24.288   3.098  0.00  0.00    +0.126 C 
ATOM     10  C   UNL     1     -35.076  23.397   4.464  0.00  0.00    +0.002 C 
ATOM     11  C   UNL     1     -37.411  25.153   4.300  0.00  0.00    +0.030 C 
ATOM     12  C   UNL     1     -35.514  24.290   5.637  0.00  0.00    +0.000 C 
ATOM     13  C   UNL     1     -34.743  23.781   1.958  0.00  0.00    +0.002 C 
ATOM     14  C   UNL     1     -33.639  25.974   4.065  0.00  0.00    +0.000 C 
ATOM     15  C   UNL     1     -35.523  26.834   2.730  0.00  0.00    +0.000 C 
ENDBRANCH   5   9
ENDBRANCH   1   5
BRANCH   1  16
ATOM     16  O   UNL     1     -38.096  20.975   1.699  0.00  0.00    -0.186 OA
BRANCH  16  17
ATOM     17  P   UNL     1     -36.626  20.339   1.489  0.00  0.00    +0.481 P 
ATOM     18  O   UNL     1     -35.802  21.005   0.426  0.00  0.00    -0.227 OA
BRANCH  17  19
ATOM     19  O   UNL     1     -36.936  18.772   1.240  0.00  0.00    -0.302 OA
ATOM     20  H   UNL     1     -37.821  18.675   0.856  0.00  0.00    +0.222 HD
ENDBRANCH  17  19
BRANCH  17  21
ATOM     21  O   UNL     1     -35.991  20.368   2.975  0.00  0.00    -0.302 OA
ATOM     22  H   UNL     1     -35.044  20.564   2.917  0.00  0.00    +0.222 HD
ENDBRANCH  17  21
ENDBRANCH  16  17
ENDBRANCH   1  16
TORSDOF 7
ENDMDL
MODEL 5
REMARK VINA RESULT:      -5.4      6.473      8.046
REMARK  Name = 194197
REMARK  7 active torsions:
REMARK  status: ('A' for Active; 'I' for Inactive)
REMARK    1  A    between atoms: P_1  and  O_3
REMARK    2  A    between atoms: P_1  and  O_5
REMARK    3  A    between atoms: P_1  and  O_16
REMARK    4  A    between atoms: O_5  and  C_9
REMARK    5  A    between atoms: O_16  and  P_17
REMARK    6  A    between atoms: P_17  and  O_19
REMARK    7  A    between atoms: P_17  and  O_21
REMARK                            x       y       z     vdW  Elec       q    Type
REMARK                         _______ _______ _______ _____ _____    ______ ____
ROOT
ATOM      1  P   UNL     1     -32.995  28.520   3.635  0.00  0.00    +0.484 P 
ATOM      2  O   UNL     1     -32.585  28.445   2.192  0.00  0.00    -0.227 OA
ENDROOT
BRANCH   1   3
ATOM      3  O   UNL     1     -33.488  29.986   4.113  0.00  0.00    -0.302 OA
ATOM      4  H   UNL     1     -34.401  30.131   3.819  0.00  0.00    +0.222 HD
ENDBRANCH   1   3
BRANCH   1   5
ATOM      5  O   UNL     1     -34.209  27.532   4.047  0.00  0.00    -0.276 OA
BRANCH   5   9
ATOM      6  C   UNL     1     -35.820  25.727   3.463  0.00  0.00    +0.026 C 
ATOM      7  C   UNL     1     -35.599  24.204   3.220  0.00  0.00    +0.002 C 
ATOM      8  C   UNL     1     -34.602  24.121   4.406  0.00  0.00    +0.003 C 
ATOM      9  C   UNL     1     -34.370  26.292   3.381  0.00  0.00    +0.126 C 
ATOM     10  C   UNL     1     -36.266  25.777   4.952  0.00  0.00    +0.002 C 
ATOM     11  C   UNL     1     -33.538  25.194   4.068  0.00  0.00    +0.030 C 
ATOM     12  C   UNL     1     -35.412  24.674   5.600  0.00  0.00    +0.000 C 
ATOM     13  C   UNL     1     -36.794  26.435   2.538  0.00  0.00    +0.002 C 
ATOM     14  C   UNL     1     -36.848  23.313   3.384  0.00  0.00    +0.000 C 
ATOM     15  C   UNL     1     -34.987  23.830   1.855  0.00  0.00    +0.000 C 
ENDBRANCH   5   9
ENDBRANCH   1   5
BRANCH   1  16
ATOM     16  O   UNL     1     -31.812  28.168   4.679  0.00  0.00    -0.186 OA
BRANCH  16  17
ATOM     17  P   UNL     1     -31.728  28.341   6.284  0.00  0.00    +0.481 P 
ATOM     18  O   UNL     1     -31.807  29.761   6.765  0.00  0.00    -0.227 OA
BRANCH  17  19
ATOM     19  O   UNL     1     -30.368  27.557   6.667  0.00  0.00    -0.302 OA
ATOM     20  H   UNL     1     -30.347  27.395   7.623  0.00  0.00    +0.222 HD
ENDBRANCH  17  19
BRANCH  17  21
ATOM     21  O   UNL     1     -32.895  27.362   6.826  0.00  0.00    -0.302 OA
ATOM     22  H   UNL     1     -33.214  26.807   6.098  0.00  0.00    +0.222 HD
ENDBRANCH  17  21
ENDBRANCH  16  17
ENDBRANCH   1  16
TORSDOF 7
ENDMDL
MODEL 6
REMARK VINA RESULT:      -5.4      6.507      7.973
REMARK  Name = 194197
REMARK  7 active torsions:
REMARK  status: ('A' for Active; 'I' for Inactive)
REMARK    1  A    between atoms: P_1  and  O_3
REMARK    2  A    between atoms: P_1  and  O_5
REMARK    3  A    between atoms: P_1  and  O_16
REMARK    4  A    between atoms: O_5  and  C_9
REMARK    5  A    between atoms: O_16  and  P_17
REMARK    6  A    between atoms: P_17  and  O_19
REMARK    7  A    between atoms: P_17  and  O_21
REMARK                            x       y       z     vdW  Elec       q    Type
REMARK                         _______ _______ _______ _____ _____    ______ ____
ROOT
ATOM      1  P   UNL     1     -35.686  27.847   1.468  0.00  0.00    +0.484 P 
ATOM      2  O   UNL     1     -35.572  26.911   0.300  0.00  0.00    -0.227 OA
ENDROOT
BRANCH   1   3
ATOM      3  O   UNL     1     -36.998  28.793   1.440  0.00  0.00    -0.302 OA
ATOM      4  H   UNL     1     -37.168  29.083   0.530  0.00  0.00    +0.222 HD
ENDBRANCH   1   3
BRANCH   1   5
ATOM      5  O   UNL     1     -35.744  27.121   2.914  0.00  0.00    -0.276 OA
BRANCH   5   9
ATOM      6  C   UNL     1     -36.167  25.050   4.227  0.00  0.00    +0.026 C 
ATOM      7  C   UNL     1     -35.269  23.800   4.475  0.00  0.00    +0.002 C 
ATOM      8  C   UNL     1     -34.011  24.690   4.648  0.00  0.00    +0.003 C 
ATOM      9  C   UNL     1     -35.454  25.738   3.025  0.00  0.00    +0.126 C 
ATOM     10  C   UNL     1     -35.907  25.916   5.493  0.00  0.00    +0.002 C 
ATOM     11  C   UNL     1     -33.963  25.519   3.341  0.00  0.00    +0.030 C 
ATOM     12  C   UNL     1     -34.414  25.672   5.771  0.00  0.00    +0.000 C 
ATOM     13  C   UNL     1     -37.644  24.797   3.986  0.00  0.00    +0.002 C 
ATOM     14  C   UNL     1     -35.623  22.960   5.719  0.00  0.00    +0.000 C 
ATOM     15  C   UNL     1     -35.179  22.803   3.301  0.00  0.00    +0.000 C 
ENDBRANCH   5   9
ENDBRANCH   1   5
BRANCH   1  16
ATOM     16  O   UNL     1     -34.469  28.904   1.593  0.00  0.00    -0.186 OA
BRANCH  16  17
ATOM     17  P   UNL     1     -34.031  29.878   2.805  0.00  0.00    +0.481 P 
ATOM     18  O   UNL     1     -33.139  31.017   2.401  0.00  0.00    -0.227 OA
BRANCH  17  19
ATOM     19  O   UNL     1     -33.399  28.858   3.887  0.00  0.00    -0.302 OA
ATOM     20  H   UNL     1     -32.433  28.941   3.884  0.00  0.00    +0.222 HD
ENDBRANCH  17  19
BRANCH  17  21
ATOM     21  O   UNL     1     -35.442  30.307   3.468  0.00  0.00    -0.302 OA
ATOM     22  H   UNL     1     -35.770  31.111   3.036  0.00  0.00    +0.222 HD
ENDBRANCH  17  21
ENDBRANCH  16  17
ENDBRANCH   1  16
TORSDOF 7
ENDMDL
MODEL 7
REMARK VINA RESULT:      -5.4      3.061      4.459
REMARK  Name = 194197
REMARK  7 active torsions:
REMARK  status: ('A' for Active; 'I' for Inactive)
REMARK    1  A    between atoms: P_1  and  O_3
REMARK    2  A    between atoms: P_1  and  O_5
REMARK    3  A    between atoms: P_1  and  O_16
REMARK    4  A    between atoms: O_5  and  C_9
REMARK    5  A    between atoms: O_16  and  P_17
REMARK    6  A    between atoms: P_17  and  O_19
REMARK    7  A    between atoms: P_17  and  O_21
REMARK                            x       y       z     vdW  Elec       q    Type
REMARK                         _______ _______ _______ _____ _____    ______ ____
ROOT
ATOM      1  P   UNL     1     -35.946  23.664   4.811  0.00  0.00    +0.484 P 
ATOM      2  O   UNL     1     -37.219  24.374   4.450  0.00  0.00    -0.227 OA
ENDROOT
BRANCH   1   3
ATOM      3  O   UNL     1     -36.149  22.367   5.756  0.00  0.00    -0.302 OA
ATOM      4  H   UNL     1     -35.876  22.580   6.661  0.00  0.00    +0.222 HD
ENDBRANCH   1   3
BRANCH   1   5
ATOM      5  O   UNL     1     -35.096  23.114   3.548  0.00  0.00    -0.276 OA
BRANCH   5   9
ATOM      6  C   UNL     1     -36.187  22.025   1.594  0.00  0.00    +0.026 C 
ATOM      7  C   UNL     1     -36.075  22.323   0.068  0.00  0.00    +0.002 C 
ATOM      8  C   UNL     1     -34.546  22.553   0.186  0.00  0.00    +0.003 C 
ATOM      9  C   UNL     1     -35.578  23.310   2.230  0.00  0.00    +0.126 C 
ATOM     10  C   UNL     1     -35.167  20.867   1.793  0.00  0.00    +0.002 C 
ATOM     11  C   UNL     1     -34.421  23.649   1.272  0.00  0.00    +0.030 C 
ATOM     12  C   UNL     1     -34.031  21.245   0.827  0.00  0.00    +0.000 C 
ATOM     13  C   UNL     1     -37.567  21.685   2.128  0.00  0.00    +0.002 C 
ATOM     14  C   UNL     1     -36.468  21.163  -0.870  0.00  0.00    +0.000 C 
ATOM     15  C   UNL     1     -36.861  23.554  -0.428  0.00  0.00    +0.000 C 
ENDBRANCH   5   9
ENDBRANCH   1   5
BRANCH   1  16
ATOM     16  O   UNL     1     -34.895  24.568   5.644  0.00  0.00    -0.186 OA
BRANCH  16  17
ATOM     17  P   UNL     1     -34.246  26.011   5.317  0.00  0.00    +0.481 P 
ATOM     18  O   UNL     1     -33.541  26.657   6.475  0.00  0.00    -0.227 OA
BRANCH  17  19
ATOM     19  O   UNL     1     -35.491  26.847   4.714  0.00  0.00    -0.302 OA
ATOM     20  H   UNL     1     -35.431  26.863   3.747  0.00  0.00    +0.222 HD
ENDBRANCH  17  19
BRANCH  17  21
ATOM     21  O   UNL     1     -33.323  25.720   4.022  0.00  0.00    -0.302 OA
ATOM     22  H   UNL     1     -33.471  26.411   3.358  0.00  0.00    +0.222 HD
ENDBRANCH  17  21
ENDBRANCH  16  17
ENDBRANCH   1  16
TORSDOF 7
ENDMDL
MODEL 8
REMARK VINA RESULT:      -5.2      4.691      6.514
REMARK  Name = 194197
REMARK  7 active torsions:
REMARK  status: ('A' for Active; 'I' for Inactive)
REMARK    1  A    between atoms: P_1  and  O_3
REMARK    2  A    between atoms: P_1  and  O_5
REMARK    3  A    between atoms: P_1  and  O_16
REMARK    4  A    between atoms: O_5  and  C_9
REMARK    5  A    between atoms: O_16  and  P_17
REMARK    6  A    between atoms: P_17  and  O_19
REMARK    7  A    between atoms: P_17  and  O_21
REMARK                            x       y       z     vdW  Elec       q    Type
REMARK                         _______ _______ _______ _____ _____    ______ ____
ROOT
ATOM      1  P   UNL     1     -36.016  20.806   1.919  0.00  0.00    +0.484 P 
ATOM      2  O   UNL     1     -34.602  20.567   1.473  0.00  0.00    -0.227 OA
ENDROOT
BRANCH   1   3
ATOM      3  O   UNL     1     -36.700  19.547   2.671  0.00  0.00    -0.302 OA
ATOM      4  H   UNL     1     -36.419  19.535   3.600  0.00  0.00    +0.222 HD
ENDBRANCH   1   3
BRANCH   1   5
ATOM      5  O   UNL     1     -36.202  22.041   2.948  0.00  0.00    -0.276 OA
BRANCH   5   9
ATOM      6  C   UNL     1     -35.537  24.169   4.054  0.00  0.00    +0.026 C 
ATOM      7  C   UNL     1     -34.892  25.462   3.470  0.00  0.00    +0.002 C 
ATOM      8  C   UNL     1     -35.795  25.389   2.210  0.00  0.00    +0.003 C 
ATOM      9  C   UNL     1     -35.302  23.135   2.912  0.00  0.00    +0.126 C 
ATOM     10  C   UNL     1     -37.052  24.519   4.074  0.00  0.00    +0.002 C 
ATOM     11  C   UNL     1     -35.519  23.976   1.641  0.00  0.00    +0.030 C 
ATOM     12  C   UNL     1     -37.226  25.351   2.793  0.00  0.00    +0.000 C 
ATOM     13  C   UNL     1     -35.029  23.699   5.405  0.00  0.00    +0.002 C 
ATOM     14  C   UNL     1     -35.085  26.742   4.310  0.00  0.00    +0.000 C 
ATOM     15  C   UNL     1     -33.382  25.375   3.169  0.00  0.00    +0.000 C 
ENDBRANCH   5   9
ENDBRANCH   1   5
BRANCH   1  16
ATOM     16  O   UNL     1     -37.047  21.122   0.714  0.00  0.00    -0.186 OA
BRANCH  16  17
ATOM     17  P   UNL     1     -38.656  21.265   0.706  0.00  0.00    +0.481 P 
ATOM     18  O   UNL     1     -39.172  22.489   0.006  0.00  0.00    -0.227 OA
BRANCH  17  19
ATOM     19  O   UNL     1     -39.043  21.151   2.271  0.00  0.00    -0.302 OA
ATOM     20  H   UNL     1     -38.682  21.913   2.749  0.00  0.00    +0.222 HD
ENDBRANCH  17  19
BRANCH  17  21
ATOM     21  O   UNL     1     -39.153  19.856   0.089  0.00  0.00    -0.302 OA
ATOM     22  H   UNL     1     -39.658  20.019  -0.722  0.00  0.00    +0.222 HD
ENDBRANCH  17  21
ENDBRANCH  16  17
ENDBRANCH   1  16
TORSDOF 7
ENDMDL
MODEL 9
REMARK VINA RESULT:      -5.1     20.508     21.974
REMARK  Name = 194197
REMARK  7 active torsions:
REMARK  status: ('A' for Active; 'I' for Inactive)
REMARK    1  A    between atoms: P_1  and  O_3
REMARK    2  A    between atoms: P_1  and  O_5
REMARK    3  A    between atoms: P_1  and  O_16
REMARK    4  A    between atoms: O_5  and  C_9
REMARK    5  A    between atoms: O_16  and  P_17
REMARK    6  A    between atoms: P_17  and  O_19
REMARK    7  A    between atoms: P_17  and  O_21
REMARK                            x       y       z     vdW  Elec       q    Type
REMARK                         _______ _______ _______ _____ _____    ______ ____
ROOT
ATOM      1  P   UNL     1     -31.560  41.328   6.802  0.00  0.00    +0.484 P 
ATOM      2  O   UNL     1     -30.727  42.574   6.901  0.00  0.00    -0.227 OA
ENDROOT
BRANCH   1   3
ATOM      3  O   UNL     1     -32.557  41.091   8.053  0.00  0.00    -0.302 OA
ATOM      4  H   UNL     1     -32.118  40.535   8.716  0.00  0.00    +0.222 HD
ENDBRANCH   1   3
BRANCH   1   5
ATOM      5  O   UNL     1     -32.521  41.258   5.501  0.00  0.00    -0.276 OA
BRANCH   5   9
ATOM      6  C   UNL     1     -32.959  42.468   3.371  0.00  0.00    +0.026 C 
ATOM      7  C   UNL     1     -32.482  42.176   1.916  0.00  0.00    +0.002 C 
ATOM      8  C   UNL     1     -32.709  40.653   2.108  0.00  0.00    +0.003 C 
ATOM      9  C   UNL     1     -32.005  41.577   4.220  0.00  0.00    +0.126 C 
ATOM     10  C   UNL     1     -34.372  41.819   3.406  0.00  0.00    +0.002 C 
ATOM     11  C   UNL     1     -31.866  40.309   3.359  0.00  0.00    +0.030 C 
ATOM     12  C   UNL     1     -34.189  40.560   2.542  0.00  0.00    +0.000 C 
ATOM     13  C   UNL     1     -32.974  43.922   3.809  0.00  0.00    +0.002 C 
ATOM     14  C   UNL     1     -33.334  42.804   0.794  0.00  0.00    +0.000 C 
ATOM     15  C   UNL     1     -31.021  42.560   1.607  0.00  0.00    +0.000 C 
ENDBRANCH   5   9
ENDBRANCH   1   5
BRANCH   1  16
ATOM     16  O   UNL     1     -30.702  39.959   6.747  0.00  0.00    -0.186 OA
BRANCH  16  17
ATOM     17  P   UNL     1     -29.133  39.702   6.456  0.00  0.00    +0.481 P 
ATOM     18  O   UNL     1     -28.751  39.743   5.005  0.00  0.00    -0.227 OA
BRANCH  17  19
ATOM     19  O   UNL     1     -28.846  38.299   7.205  0.00  0.00    -0.302 OA
ATOM     20  H   UNL     1     -28.257  37.756   6.659  0.00  0.00    +0.222 HD
ENDBRANCH  17  19
BRANCH  17  21
ATOM     21  O   UNL     1     -28.396  40.791   7.396  0.00  0.00    -0.302 OA
ATOM     22  H   UNL     1     -29.008  41.087   8.088  0.00  0.00    +0.222 HD
ENDBRANCH  17  21
ENDBRANCH  16  17
ENDBRANCH   1  16
TORSDOF 7
ENDMDL
