MODEL 1
REMARK VINA RESULT:      -6.1      0.000      0.000
REMARK  Name = 54688606
REMARK  6 active torsions:
REMARK  status: ('A' for Active; 'I' for Inactive)
REMARK    1  A    between atoms: C_4  and  N_14
REMARK    2  A    between atoms: C_5  and  O_23
REMARK    3  A    between atoms: C_7  and  O_25
REMARK    4  A    between atoms: C_10  and  O_27
REMARK    5  A    between atoms: C_15  and  C_17
REMARK    6  A    between atoms: C_17  and  N_19
REMARK                            x       y       z     vdW  Elec       q    Type
REMARK                         _______ _______ _______ _____ _____    ______ ____
ROOT
ATOM      1  O   UNL     1     -35.466  25.377   1.612  0.00  0.00    -0.448 OA
ATOM      2  O   UNL     1     -35.269  26.575   3.497  0.00  0.00    -0.245 OA
ATOM      3  C   UNL     1     -35.190  22.893   2.989  0.00  0.00    +0.082 C 
ATOM      4  C   UNL     1     -35.877  22.951   1.616  0.00  0.00    +0.118 C 
ATOM      5  C   UNL     1     -35.616  21.649   3.796  0.00  0.00    +0.144 C 
ATOM      6  C   UNL     1     -35.363  24.196   3.733  0.00  0.00    +0.087 C 
ATOM      7  C   UNL     1     -35.080  21.723   5.223  0.00  0.00    +0.145 C 
ATOM      8  C   UNL     1     -35.306  24.150   0.865  0.00  0.00    +0.187 C 
ATOM      9  C   UNL     1     -35.573  22.988   5.926  0.00  0.00    +0.095 C 
ATOM     10  C   UNL     1     -35.552  24.225   5.069  0.00  0.00    +0.116 C 
ATOM     11  C   UNL     1     -35.350  25.474   2.962  0.00  0.00    +0.340 C 
ATOM     12  C   UNL     1     -35.930  24.361  -0.511  0.00  0.00    +0.049 C 
ENDROOT
BRANCH   4  14
ATOM     13  O   UNL     1     -37.768  20.933   0.816  0.00  0.00    -0.277 OA
ATOM     14  N   UNL     1     -37.318  23.019   1.725  0.00  0.00    -0.304 N 
ATOM     15  C   UNL     1     -38.152  21.991   1.310  0.00  0.00    +0.202 C 
ATOM     16  H   UNL     1     -37.724  23.829   2.109  0.00  0.00    +0.149 HD
BRANCH  15  17
ATOM     17  C   UNL     1     -39.622  22.328   1.524  0.00  0.00    +0.013 C 
ATOM     18  C   UNL     1     -39.756  23.577   2.385  0.00  0.00    -0.015 C 
BRANCH  17  19
ATOM     19  N   UNL     1     -40.263  21.191   2.179  0.00  0.00    +0.387 N 
ATOM     20  H   UNL     1     -41.255  21.391   2.312  0.00  0.00    -0.089 HD
ATOM     21  H   UNL     1     -39.824  21.028   3.085  0.00  0.00    -0.089 HD
ATOM     22  H   UNL     1     -40.160  20.360   1.597  0.00  0.00    -0.089 HD
ENDBRANCH  17  19
ENDBRANCH  15  17
ENDBRANCH   4  14
BRANCH   5  23
ATOM     23  O   UNL     1     -35.079  20.491   3.156  0.00  0.00    -0.382 OA
ATOM     24  H   UNL     1     -35.295  20.513   2.211  0.00  0.00    +0.210 HD
ENDBRANCH   5  23
BRANCH   7  25
ATOM     25  O   UNL     1     -35.540  20.582   5.945  0.00  0.00    -0.382 OA
ATOM     26  H   UNL     1     -36.266  20.843   6.534  0.00  0.00    +0.210 HD
ENDBRANCH   7  25
BRANCH  10  27
ATOM     27  O   UNL     1     -35.755  25.403   5.764  0.00  0.00    -0.510 OA
ATOM     28  H   UNL     1     -36.473  25.475   6.363  0.00  0.00    +0.292 HD
ENDBRANCH  10  27
TORSDOF 6
ENDMDL
MODEL 2
REMARK VINA RESULT:      -6.0      1.174      1.265
REMARK  Name = 54688606
REMARK  6 active torsions:
REMARK  status: ('A' for Active; 'I' for Inactive)
REMARK    1  A    between atoms: C_4  and  N_14
REMARK    2  A    between atoms: C_5  and  O_23
REMARK    3  A    between atoms: C_7  and  O_25
REMARK    4  A    between atoms: C_10  and  O_27
REMARK    5  A    between atoms: C_15  and  C_17
REMARK    6  A    between atoms: C_17  and  N_19
REMARK                            x       y       z     vdW  Elec       q    Type
REMARK                         _______ _______ _______ _____ _____    ______ ____
ROOT
ATOM      1  O   UNL     1     -35.058  25.467   1.674  0.00  0.00    -0.448 OA
ATOM      2  O   UNL     1     -34.105  26.456   3.445  0.00  0.00    -0.245 OA
ATOM      3  C   UNL     1     -35.266  22.952   3.004  0.00  0.00    +0.082 C 
ATOM      4  C   UNL     1     -36.181  23.282   1.814  0.00  0.00    +0.118 C 
ATOM      5  C   UNL     1     -35.870  21.858   3.909  0.00  0.00    +0.144 C 
ATOM      6  C   UNL     1     -34.869  24.208   3.743  0.00  0.00    +0.087 C 
ATOM      7  C   UNL     1     -35.044  21.696   5.183  0.00  0.00    +0.145 C 
ATOM      8  C   UNL     1     -35.445  24.287   0.933  0.00  0.00    +0.187 C 
ATOM      9  C   UNL     1     -34.963  23.015   5.952  0.00  0.00    +0.095 C 
ATOM     10  C   UNL     1     -34.749  24.228   5.087  0.00  0.00    +0.116 C 
ATOM     11  C   UNL     1     -34.632  25.458   2.963  0.00  0.00    +0.340 C 
ATOM     12  C   UNL     1     -36.254  24.744  -0.276  0.00  0.00    +0.049 C 
ENDROOT
BRANCH   4  14
ATOM     13  O   UNL     1     -38.637  21.789   1.966  0.00  0.00    -0.277 OA
ATOM     14  N   UNL     1     -37.473  23.777   2.234  0.00  0.00    -0.304 N 
ATOM     15  C   UNL     1     -38.607  22.978   2.275  0.00  0.00    +0.202 C 
ATOM     16  H   UNL     1     -37.552  24.721   2.502  0.00  0.00    +0.149 HD
BRANCH  15  17
ATOM     17  C   UNL     1     -39.834  23.752   2.739  0.00  0.00    +0.013 C 
ATOM     18  C   UNL     1     -40.511  24.426   1.552  0.00  0.00    -0.015 C 
BRANCH  17  19
ATOM     19  N   UNL     1     -39.404  24.755   3.711  0.00  0.00    +0.387 N 
ATOM     20  H   UNL     1     -39.460  25.682   3.290  0.00  0.00    -0.089 HD
ATOM     21  H   UNL     1     -38.442  24.565   3.992  0.00  0.00    -0.089 HD
ATOM     22  H   UNL     1     -40.011  24.716   4.529  0.00  0.00    -0.089 HD
ENDBRANCH  17  19
ENDBRANCH  15  17
ENDBRANCH   4  14
BRANCH   5  23
ATOM     23  O   UNL     1     -35.862  20.623   3.190  0.00  0.00    -0.382 OA
ATOM     24  H   UNL     1     -35.760  19.887   3.811  0.00  0.00    +0.210 HD
ENDBRANCH   5  23
BRANCH   7  25
ATOM     25  O   UNL     1     -35.665  20.714   6.010  0.00  0.00    -0.382 OA
ATOM     26  H   UNL     1     -36.193  20.114   5.460  0.00  0.00    +0.210 HD
ENDBRANCH   7  25
BRANCH  10  27
ATOM     27  O   UNL     1     -34.430  25.376   5.786  0.00  0.00    -0.510 OA
ATOM     28  H   UNL     1     -35.104  25.866   6.216  0.00  0.00    +0.292 HD
ENDBRANCH  10  27
TORSDOF 6
ENDMDL
MODEL 3
REMARK VINA RESULT:      -5.7      2.430      4.486
REMARK  Name = 54688606
REMARK  6 active torsions:
REMARK  status: ('A' for Active; 'I' for Inactive)
REMARK    1  A    between atoms: C_4  and  N_14
REMARK    2  A    between atoms: C_5  and  O_23
REMARK    3  A    between atoms: C_7  and  O_25
REMARK    4  A    between atoms: C_10  and  O_27
REMARK    5  A    between atoms: C_15  and  C_17
REMARK    6  A    between atoms: C_17  and  N_19
REMARK                            x       y       z     vdW  Elec       q    Type
REMARK                         _______ _______ _______ _____ _____    ______ ____
ROOT
ATOM      1  O   UNL     1     -34.257  24.003   5.500  0.00  0.00    -0.448 OA
ATOM      2  O   UNL     1     -33.318  25.972   4.987  0.00  0.00    -0.245 OA
ATOM      3  C   UNL     1     -36.687  24.642   4.148  0.00  0.00    +0.082 C 
ATOM      4  C   UNL     1     -36.300  23.178   4.404  0.00  0.00    +0.118 C 
ATOM      5  C   UNL     1     -37.677  24.781   2.973  0.00  0.00    +0.144 C 
ATOM      6  C   UNL     1     -35.457  25.510   4.019  0.00  0.00    +0.087 C 
ATOM      7  C   UNL     1     -37.884  26.250   2.613  0.00  0.00    +0.145 C 
ATOM      8  C   UNL     1     -35.413  23.146   5.645  0.00  0.00    +0.187 C 
ATOM      9  C   UNL     1     -36.556  26.915   2.250  0.00  0.00    +0.095 C 
ATOM     10  C   UNL     1     -35.404  26.533   3.140  0.00  0.00    +0.116 C 
ATOM     11  C   UNL     1     -34.268  25.205   4.868  0.00  0.00    +0.340 C 
ATOM     12  C   UNL     1     -34.912  21.750   6.000  0.00  0.00    +0.049 C 
ENDROOT
BRANCH   4  14
ATOM     13  O   UNL     1     -37.511  21.449   2.446  0.00  0.00    -0.277 OA
ATOM     14  N   UNL     1     -35.652  22.572   3.262  0.00  0.00    -0.304 N 
ATOM     15  C   UNL     1     -36.321  21.748   2.368  0.00  0.00    +0.202 C 
ATOM     16  H   UNL     1     -34.696  22.752   3.112  0.00  0.00    +0.149 HD
BRANCH  15  17
ATOM     17  C   UNL     1     -35.402  21.234   1.268  0.00  0.00    +0.013 C 
ATOM     18  C   UNL     1     -34.676  19.978   1.732  0.00  0.00    -0.015 C 
BRANCH  17  19
ATOM     19  N   UNL     1     -34.438  22.284   0.946  0.00  0.00    +0.387 N 
ATOM     20  H   UNL     1     -33.695  21.896   0.366  0.00  0.00    -0.089 HD
ATOM     21  H   UNL     1     -34.039  22.655   1.809  0.00  0.00    -0.089 HD
ATOM     22  H   UNL     1     -34.909  23.034   0.440  0.00  0.00    -0.089 HD
ENDBRANCH  17  19
ENDBRANCH  15  17
ENDBRANCH   4  14
BRANCH   5  23
ATOM     23  O   UNL     1     -38.928  24.218   3.369  0.00  0.00    -0.382 OA
ATOM     24  H   UNL     1     -39.353  24.798   4.019  0.00  0.00    +0.210 HD
ENDBRANCH   5  23
BRANCH   7  25
ATOM     25  O   UNL     1     -38.763  26.328   1.492  0.00  0.00    -0.382 OA
ATOM     26  H   UNL     1     -39.501  25.711   1.617  0.00  0.00    +0.210 HD
ENDBRANCH   7  25
BRANCH  10  27
ATOM     27  O   UNL     1     -34.274  27.311   2.975  0.00  0.00    -0.510 OA
ATOM     28  H   UNL     1     -33.996  27.557   2.114  0.00  0.00    +0.292 HD
ENDBRANCH  10  27
TORSDOF 6
ENDMDL
MODEL 4
REMARK VINA RESULT:      -5.6      2.025      4.526
REMARK  Name = 54688606
REMARK  6 active torsions:
REMARK  status: ('A' for Active; 'I' for Inactive)
REMARK    1  A    between atoms: C_4  and  N_14
REMARK    2  A    between atoms: C_5  and  O_23
REMARK    3  A    between atoms: C_7  and  O_25
REMARK    4  A    between atoms: C_10  and  O_27
REMARK    5  A    between atoms: C_15  and  C_17
REMARK    6  A    between atoms: C_17  and  N_19
REMARK                            x       y       z     vdW  Elec       q    Type
REMARK                         _______ _______ _______ _____ _____    ______ ____
ROOT
ATOM      1  O   UNL     1     -35.546  23.419   5.216  0.00  0.00    -0.448 OA
ATOM      2  O   UNL     1     -35.307  21.192   5.113  0.00  0.00    -0.245 OA
ATOM      3  C   UNL     1     -35.539  23.699   2.377  0.00  0.00    +0.082 C 
ATOM      4  C   UNL     1     -36.171  24.782   3.265  0.00  0.00    +0.118 C 
ATOM      5  C   UNL     1     -36.101  23.730   0.940  0.00  0.00    +0.144 C 
ATOM      6  C   UNL     1     -35.620  22.344   3.038  0.00  0.00    +0.087 C 
ATOM      7  C   UNL     1     -35.609  22.524   0.143  0.00  0.00    +0.145 C 
ATOM      8  C   UNL     1     -35.470  24.734   4.619  0.00  0.00    +0.187 C 
ATOM      9  C   UNL     1     -36.011  21.218   0.827  0.00  0.00    +0.095 C 
ATOM     10  C   UNL     1     -35.851  21.222   2.324  0.00  0.00    +0.116 C 
ATOM     11  C   UNL     1     -35.468  22.255   4.520  0.00  0.00    +0.340 C 
ATOM     12  C   UNL     1     -36.026  25.733   5.628  0.00  0.00    +0.049 C 
ENDROOT
BRANCH   4  14
ATOM     13  O   UNL     1     -38.203  26.609   2.357  0.00  0.00    -0.277 OA
ATOM     14  N   UNL     1     -37.603  24.621   3.393  0.00  0.00    -0.304 N 
ATOM     15  C   UNL     1     -38.509  25.560   2.921  0.00  0.00    +0.202 C 
ATOM     16  H   UNL     1     -37.949  23.811   3.832  0.00  0.00    +0.149 HD
BRANCH  15  17
ATOM     17  C   UNL     1     -39.950  25.151   3.198  0.00  0.00    +0.013 C 
ATOM     18  C   UNL     1     -40.632  24.717   1.907  0.00  0.00    -0.015 C 
BRANCH  17  19
ATOM     19  N   UNL     1     -40.649  26.295   3.779  0.00  0.00    +0.387 N 
ATOM     20  H   UNL     1     -40.810  26.997   3.057  0.00  0.00    -0.089 HD
ATOM     21  H   UNL     1     -40.081  26.698   4.525  0.00  0.00    -0.089 HD
ATOM     22  H   UNL     1     -41.543  25.989   4.161  0.00  0.00    -0.089 HD
ENDBRANCH  17  19
ENDBRANCH  15  17
ENDBRANCH   4  14
BRANCH   5  23
ATOM     23  O   UNL     1     -35.648  24.925   0.304  0.00  0.00    -0.382 OA
ATOM     24  H   UNL     1     -34.692  24.869   0.152  0.00  0.00    +0.210 HD
ENDBRANCH   5  23
BRANCH   7  25
ATOM     25  O   UNL     1     -36.194  22.566  -1.157  0.00  0.00    -0.382 OA
ATOM     26  H   UNL     1     -36.434  23.480  -1.375  0.00  0.00    +0.210 HD
ENDBRANCH   7  25
BRANCH  10  27
ATOM     27  O   UNL     1     -35.973  19.979   2.914  0.00  0.00    -0.510 OA
ATOM     28  H   UNL     1     -36.147  19.225   2.385  0.00  0.00    +0.292 HD
ENDBRANCH  10  27
TORSDOF 6
ENDMDL
MODEL 5
REMARK VINA RESULT:      -5.2      2.426      4.354
REMARK  Name = 54688606
REMARK  6 active torsions:
REMARK  status: ('A' for Active; 'I' for Inactive)
REMARK    1  A    between atoms: C_4  and  N_14
REMARK    2  A    between atoms: C_5  and  O_23
REMARK    3  A    between atoms: C_7  and  O_25
REMARK    4  A    between atoms: C_10  and  O_27
REMARK    5  A    between atoms: C_15  and  C_17
REMARK    6  A    between atoms: C_17  and  N_19
REMARK                            x       y       z     vdW  Elec       q    Type
REMARK                         _______ _______ _______ _____ _____    ______ ____
ROOT
ATOM      1  O   UNL     1     -35.579  25.094  -0.411  0.00  0.00    -0.448 OA
ATOM      2  O   UNL     1     -33.845  23.860  -1.113  0.00  0.00    -0.245 OA
ATOM      3  C   UNL     1     -36.773  22.899   0.966  0.00  0.00    +0.082 C 
ATOM      4  C   UNL     1     -37.115  24.344   1.360  0.00  0.00    +0.118 C 
ATOM      5  C   UNL     1     -37.043  21.908   2.117  0.00  0.00    +0.144 C 
ATOM      6  C   UNL     1     -35.377  22.811   0.397  0.00  0.00    +0.087 C 
ATOM      7  C   UNL     1     -36.507  20.521   1.771  0.00  0.00    +0.145 C 
ATOM      8  C   UNL     1     -36.917  25.217   0.124  0.00  0.00    +0.187 C 
ATOM      9  C   UNL     1     -35.009  20.573   1.476  0.00  0.00    +0.095 C 
ATOM     10  C   UNL     1     -34.577  21.754   0.649  0.00  0.00    +0.116 C 
ATOM     11  C   UNL     1     -34.869  23.937  -0.441  0.00  0.00    +0.340 C 
ATOM     12  C   UNL     1     -37.181  26.698   0.376  0.00  0.00    +0.049 C 
ENDROOT
BRANCH   4  14
ATOM     13  O   UNL     1     -37.959  24.524   4.106  0.00  0.00    -0.277 OA
ATOM     14  N   UNL     1     -36.328  24.809   2.481  0.00  0.00    -0.304 N 
ATOM     15  C   UNL     1     -36.823  24.860   3.776  0.00  0.00    +0.202 C 
ATOM     16  H   UNL     1     -35.403  25.102   2.318  0.00  0.00    +0.149 HD
BRANCH  15  17
ATOM     17  C   UNL     1     -35.794  25.402   4.759  0.00  0.00    +0.013 C 
ATOM     18  C   UNL     1     -35.266  24.279   5.643  0.00  0.00    -0.015 C 
BRANCH  17  19
ATOM     19  N   UNL     1     -36.435  26.430   5.576  0.00  0.00    +0.387 N 
ATOM     20  H   UNL     1     -37.032  27.009   4.986  0.00  0.00    -0.089 HD
ATOM     21  H   UNL     1     -35.720  27.012   6.013  0.00  0.00    -0.089 HD
ATOM     22  H   UNL     1     -37.000  25.985   6.299  0.00  0.00    -0.089 HD
ENDBRANCH  17  19
ENDBRANCH  15  17
ENDBRANCH   4  14
BRANCH   5  23
ATOM     23  O   UNL     1     -38.455  21.825   2.319  0.00  0.00    -0.382 OA
ATOM     24  H   UNL     1     -38.728  22.489   2.970  0.00  0.00    +0.210 HD
ENDBRANCH   5  23
BRANCH   7  25
ATOM     25  O   UNL     1     -36.732  19.653   2.881  0.00  0.00    -0.382 OA
ATOM     26  H   UNL     1     -37.180  18.848   2.576  0.00  0.00    +0.210 HD
ENDBRANCH   7  25
BRANCH  10  27
ATOM     27  O   UNL     1     -33.282  21.674   0.174  0.00  0.00    -0.510 OA
ATOM     28  H   UNL     1     -32.741  22.439   0.158  0.00  0.00    +0.292 HD
ENDBRANCH  10  27
TORSDOF 6
ENDMDL
MODEL 6
REMARK VINA RESULT:      -5.2      2.554      4.964
REMARK  Name = 54688606
REMARK  6 active torsions:
REMARK  status: ('A' for Active; 'I' for Inactive)
REMARK    1  A    between atoms: C_4  and  N_14
REMARK    2  A    between atoms: C_5  and  O_23
REMARK    3  A    between atoms: C_7  and  O_25
REMARK    4  A    between atoms: C_10  and  O_27
REMARK    5  A    between atoms: C_15  and  C_17
REMARK    6  A    between atoms: C_17  and  N_19
REMARK                            x       y       z     vdW  Elec       q    Type
REMARK                         _______ _______ _______ _____ _____    ______ ____
ROOT
ATOM      1  O   UNL     1     -35.091  26.863   3.370  0.00  0.00    -0.448 OA
ATOM      2  O   UNL     1     -35.242  27.955   1.419  0.00  0.00    -0.245 OA
ATOM      3  C   UNL     1     -37.802  25.980   3.254  0.00  0.00    +0.082 C 
ATOM      4  C   UNL     1     -36.773  25.228   4.113  0.00  0.00    +0.118 C 
ATOM      5  C   UNL     1     -39.000  25.086   2.874  0.00  0.00    +0.144 C 
ATOM      6  C   UNL     1     -37.134  26.645   2.074  0.00  0.00    +0.087 C 
ATOM      7  C   UNL     1     -39.898  25.791   1.861  0.00  0.00    +0.145 C 
ATOM      8  C   UNL     1     -35.694  26.227   4.520  0.00  0.00    +0.187 C 
ATOM      9  C   UNL     1     -39.113  26.164   0.603  0.00  0.00    +0.095 C 
ATOM     10  C   UNL     1     -37.735  26.709   0.867  0.00  0.00    +0.116 C 
ATOM     11  C   UNL     1     -35.767  27.218   2.247  0.00  0.00    +0.340 C 
ATOM     12  C   UNL     1     -34.573  25.608   5.348  0.00  0.00    +0.049 C 
ENDROOT
BRANCH   4  14
ATOM     13  O   UNL     1     -36.382  22.588   5.194  0.00  0.00    -0.277 OA
ATOM     14  N   UNL     1     -36.217  24.082   3.427  0.00  0.00    -0.304 N 
ATOM     15  C   UNL     1     -36.067  22.843   4.034  0.00  0.00    +0.202 C 
ATOM     16  H   UNL     1     -35.932  24.186   2.490  0.00  0.00    +0.149 HD
BRANCH  15  17
ATOM     17  C   UNL     1     -35.443  21.820   3.094  0.00  0.00    +0.013 C 
ATOM     18  C   UNL     1     -35.129  22.463   1.748  0.00  0.00    -0.015 C 
BRANCH  17  19
ATOM     19  N   UNL     1     -36.388  20.720   2.920  0.00  0.00    +0.387 N 
ATOM     20  H   UNL     1     -37.070  20.735   3.678  0.00  0.00    -0.089 HD
ATOM     21  H   UNL     1     -35.884  19.833   2.933  0.00  0.00    -0.089 HD
ATOM     22  H   UNL     1     -36.870  20.823   2.027  0.00  0.00    -0.089 HD
ENDBRANCH  17  19
ENDBRANCH  15  17
ENDBRANCH   4  14
BRANCH   5  23
ATOM     23  O   UNL     1     -39.755  24.817   4.057  0.00  0.00    -0.382 OA
ATOM     24  H   UNL     1     -39.631  23.892   4.316  0.00  0.00    +0.210 HD
ENDBRANCH   5  23
BRANCH   7  25
ATOM     25  O   UNL     1     -40.961  24.912   1.500  0.00  0.00    -0.382 OA
ATOM     26  H   UNL     1     -41.183  25.038   0.564  0.00  0.00    +0.210 HD
ENDBRANCH   7  25
BRANCH  10  27
ATOM     27  O   UNL     1     -37.125  27.274  -0.237  0.00  0.00    -0.510 OA
ATOM     28  H   UNL     1     -36.308  26.934  -0.545  0.00  0.00    +0.292 HD
ENDBRANCH  10  27
TORSDOF 6
ENDMDL
MODEL 7
REMARK VINA RESULT:      -5.2      3.010      5.611
REMARK  Name = 54688606
REMARK  6 active torsions:
REMARK  status: ('A' for Active; 'I' for Inactive)
REMARK    1  A    between atoms: C_4  and  N_14
REMARK    2  A    between atoms: C_5  and  O_23
REMARK    3  A    between atoms: C_7  and  O_25
REMARK    4  A    between atoms: C_10  and  O_27
REMARK    5  A    between atoms: C_15  and  C_17
REMARK    6  A    between atoms: C_17  and  N_19
REMARK                            x       y       z     vdW  Elec       q    Type
REMARK                         _______ _______ _______ _____ _____    ______ ____
ROOT
ATOM      1  O   UNL     1     -34.255  23.537   0.957  0.00  0.00    -0.448 OA
ATOM      2  O   UNL     1     -35.546  21.755   1.384  0.00  0.00    -0.245 OA
ATOM      3  C   UNL     1     -36.331  25.383   1.609  0.00  0.00    +0.082 C 
ATOM      4  C   UNL     1     -34.858  25.817   1.662  0.00  0.00    +0.118 C 
ATOM      5  C   UNL     1     -37.227  26.274   2.493  0.00  0.00    +0.144 C 
ATOM      6  C   UNL     1     -36.467  23.905   1.891  0.00  0.00    +0.087 C 
ATOM      7  C   UNL     1     -38.639  25.700   2.582  0.00  0.00    +0.145 C 
ATOM      8  C   UNL     1     -34.086  24.945   0.675  0.00  0.00    +0.187 C 
ATOM      9  C   UNL     1     -38.615  24.277   3.140  0.00  0.00    +0.095 C 
ATOM     10  C   UNL     1     -37.504  23.415   2.603  0.00  0.00    +0.116 C 
ATOM     11  C   UNL     1     -35.413  22.975   1.390  0.00  0.00    +0.340 C 
ATOM     12  C   UNL     1     -32.589  25.236   0.649  0.00  0.00    +0.049 C 
ENDROOT
BRANCH   4  14
ATOM     13  O   UNL     1     -34.408  28.004   3.478  0.00  0.00    -0.277 OA
ATOM     14  N   UNL     1     -34.308  25.737   2.997  0.00  0.00    -0.304 N 
ATOM     15  C   UNL     1     -34.128  26.852   3.803  0.00  0.00    +0.202 C 
ATOM     16  H   UNL     1     -34.051  24.854   3.349  0.00  0.00    +0.149 HD
BRANCH  15  17
ATOM     17  C   UNL     1     -33.520  26.489   5.151  0.00  0.00    +0.013 C 
ATOM     18  C   UNL     1     -34.584  25.897   6.067  0.00  0.00    -0.015 C 
BRANCH  17  19
ATOM     19  N   UNL     1     -32.959  27.700   5.744  0.00  0.00    +0.387 N 
ATOM     20  H   UNL     1     -33.505  27.960   6.565  0.00  0.00    -0.089 HD
ATOM     21  H   UNL     1     -32.988  28.458   5.061  0.00  0.00    -0.089 HD
ATOM     22  H   UNL     1     -31.993  27.528   6.019  0.00  0.00    -0.089 HD
ENDBRANCH  17  19
ENDBRANCH  15  17
ENDBRANCH   4  14
BRANCH   5  23
ATOM     23  O   UNL     1     -37.289  27.575   1.906  0.00  0.00    -0.382 OA
ATOM     24  H   UNL     1     -38.215  27.846   1.818  0.00  0.00    +0.210 HD
ENDBRANCH   5  23
BRANCH   7  25
ATOM     25  O   UNL     1     -39.416  26.525   3.448  0.00  0.00    -0.382 OA
ATOM     26  H   UNL     1     -39.084  26.444   4.356  0.00  0.00    +0.210 HD
ENDBRANCH   7  25
BRANCH  10  27
ATOM     27  O   UNL     1     -37.626  22.073   2.909  0.00  0.00    -0.510 OA
ATOM     28  H   UNL     1     -37.834  21.456   2.235  0.00  0.00    +0.292 HD
ENDBRANCH  10  27
TORSDOF 6
ENDMDL
MODEL 8
REMARK VINA RESULT:      -5.2      2.292      4.552
REMARK  Name = 54688606
REMARK  6 active torsions:
REMARK  status: ('A' for Active; 'I' for Inactive)
REMARK    1  A    between atoms: C_4  and  N_14
REMARK    2  A    between atoms: C_5  and  O_23
REMARK    3  A    between atoms: C_7  and  O_25
REMARK    4  A    between atoms: C_10  and  O_27
REMARK    5  A    between atoms: C_15  and  C_17
REMARK    6  A    between atoms: C_17  and  N_19
REMARK                            x       y       z     vdW  Elec       q    Type
REMARK                         _______ _______ _______ _____ _____    ______ ____
ROOT
ATOM      1  O   UNL     1     -35.378  20.508   3.319  0.00  0.00    -0.448 OA
ATOM      2  O   UNL     1     -34.850  21.140   5.404  0.00  0.00    -0.245 OA
ATOM      3  C   UNL     1     -36.990  22.820   2.869  0.00  0.00    +0.082 C 
ATOM      4  C   UNL     1     -36.401  22.037   1.684  0.00  0.00    +0.118 C 
ATOM      5  C   UNL     1     -37.328  24.276   2.488  0.00  0.00    +0.144 C 
ATOM      6  C   UNL     1     -36.107  22.695   4.088  0.00  0.00    +0.087 C 
ATOM      7  C   UNL     1     -37.716  25.081   3.725  0.00  0.00    +0.145 C 
ATOM      8  C   UNL     1     -36.208  20.593   2.138  0.00  0.00    +0.187 C 
ATOM      9  C   UNL     1     -36.591  25.066   4.760  0.00  0.00    +0.095 C 
ATOM     10  C   UNL     1     -35.921  23.730   4.934  0.00  0.00    +0.116 C 
ATOM     11  C   UNL     1     -35.407  21.401   4.342  0.00  0.00    +0.340 C 
ATOM     12  C   UNL     1     -35.586  19.698   1.070  0.00  0.00    +0.049 C 
ENDROOT
BRANCH   4  14
ATOM     13  O   UNL     1     -35.929  23.141  -0.932  0.00  0.00    -0.277 OA
ATOM     14  N   UNL     1     -35.170  22.619   1.198  0.00  0.00    -0.304 N 
ATOM     15  C   UNL     1     -35.037  23.129  -0.086  0.00  0.00    +0.202 C 
ATOM     16  H   UNL     1     -34.394  22.656   1.802  0.00  0.00    +0.149 HD
BRANCH  15  17
ATOM     17  C   UNL     1     -33.635  23.667  -0.343  0.00  0.00    +0.013 C 
ATOM     18  C   UNL     1     -32.641  22.517  -0.454  0.00  0.00    -0.015 C 
BRANCH  17  19
ATOM     19  N   UNL     1     -33.270  24.546   0.765  0.00  0.00    +0.387 N 
ATOM     20  H   UNL     1     -33.371  24.041   1.646  0.00  0.00    -0.089 HD
ATOM     21  H   UNL     1     -33.882  25.362   0.768  0.00  0.00    -0.089 HD
ATOM     22  H   UNL     1     -32.302  24.847   0.655  0.00  0.00    -0.089 HD
ENDBRANCH  17  19
ENDBRANCH  15  17
ENDBRANCH   4  14
BRANCH   5  23
ATOM     23  O   UNL     1     -38.429  24.259   1.578  0.00  0.00    -0.382 OA
ATOM     24  H   UNL     1     -38.274  23.591   0.893  0.00  0.00    +0.210 HD
ENDBRANCH   5  23
BRANCH   7  25
ATOM     25  O   UNL     1     -37.969  26.429   3.334  0.00  0.00    -0.382 OA
ATOM     26  H   UNL     1     -38.374  26.439   2.453  0.00  0.00    +0.210 HD
ENDBRANCH   7  25
BRANCH  10  27
ATOM     27  O   UNL     1     -35.085  23.650   6.031  0.00  0.00    -0.510 OA
ATOM     28  H   UNL     1     -35.321  24.076   6.832  0.00  0.00    +0.292 HD
ENDBRANCH  10  27
TORSDOF 6
ENDMDL
MODEL 9
REMARK VINA RESULT:      -5.2      2.614      4.949
REMARK  Name = 54688606
REMARK  6 active torsions:
REMARK  status: ('A' for Active; 'I' for Inactive)
REMARK    1  A    between atoms: C_4  and  N_14
REMARK    2  A    between atoms: C_5  and  O_23
REMARK    3  A    between atoms: C_7  and  O_25
REMARK    4  A    between atoms: C_10  and  O_27
REMARK    5  A    between atoms: C_15  and  C_17
REMARK    6  A    between atoms: C_17  and  N_19
REMARK                            x       y       z     vdW  Elec       q    Type
REMARK                         _______ _______ _______ _____ _____    ______ ____
ROOT
ATOM      1  O   UNL     1     -37.944  24.265   1.537  0.00  0.00    -0.448 OA
ATOM      2  O   UNL     1     -38.090  22.583   3.012  0.00  0.00    -0.245 OA
ATOM      3  C   UNL     1     -36.417  25.890   3.318  0.00  0.00    +0.082 C 
ATOM      4  C   UNL     1     -36.363  26.133   1.802  0.00  0.00    +0.118 C 
ATOM      5  C   UNL     1     -35.167  26.442   4.035  0.00  0.00    +0.144 C 
ATOM      6  C   UNL     1     -36.705  24.439   3.620  0.00  0.00    +0.087 C 
ATOM      7  C   UNL     1     -35.151  26.009   5.499  0.00  0.00    +0.145 C 
ATOM      8  C   UNL     1     -37.685  25.650   1.211  0.00  0.00    +0.187 C 
ATOM      9  C   UNL     1     -35.183  24.486   5.618  0.00  0.00    +0.095 C 
ATOM     10  C   UNL     1     -36.125  23.806   4.662  0.00  0.00    +0.116 C 
ATOM     11  C   UNL     1     -37.634  23.687   2.726  0.00  0.00    +0.340 C 
ATOM     12  C   UNL     1     -37.762  25.791  -0.305  0.00  0.00    +0.049 C 
ENDROOT
BRANCH   4  14
ATOM     13  O   UNL     1     -33.895  27.380   1.000  0.00  0.00    -0.277 OA
ATOM     14  N   UNL     1     -35.228  25.489   1.181  0.00  0.00    -0.304 N 
ATOM     15  C   UNL     1     -34.074  26.176   0.828  0.00  0.00    +0.202 C 
ATOM     16  H   UNL     1     -35.274  24.522   1.000  0.00  0.00    +0.149 HD
BRANCH  15  17
ATOM     17  C   UNL     1     -33.043  25.262   0.179  0.00  0.00    +0.013 C 
ATOM     18  C   UNL     1     -33.501  23.811   0.256  0.00  0.00    -0.015 C 
BRANCH  17  19
ATOM     19  N   UNL     1     -31.774  25.429   0.882  0.00  0.00    +0.387 N 
ATOM     20  H   UNL     1     -31.184  26.083   0.367  0.00  0.00    -0.089 HD
ATOM     21  H   UNL     1     -31.302  24.527   0.952  0.00  0.00    -0.089 HD
ATOM     22  H   UNL     1     -31.949  25.795   1.818  0.00  0.00    -0.089 HD
ENDBRANCH  17  19
ENDBRANCH  15  17
ENDBRANCH   4  14
BRANCH   5  23
ATOM     23  O   UNL     1     -35.205  27.869   3.971  0.00  0.00    -0.382 OA
ATOM     24  H   UNL     1     -35.488  28.146   3.087  0.00  0.00    +0.210 HD
ENDBRANCH   5  23
BRANCH   7  25
ATOM     25  O   UNL     1     -33.957  26.498   6.108  0.00  0.00    -0.382 OA
ATOM     26  H   UNL     1     -33.261  26.577   5.437  0.00  0.00    +0.210 HD
ENDBRANCH   7  25
BRANCH  10  27
ATOM     27  O   UNL     1     -36.342  22.468   4.931  0.00  0.00    -0.510 OA
ATOM     28  H   UNL     1     -36.411  21.854   4.227  0.00  0.00    +0.292 HD
ENDBRANCH  10  27
TORSDOF 6
ENDMDL
