MODEL 1
REMARK VINA RESULT:      -6.8      0.000      0.000
REMARK  Name = 5273570
REMARK  10 active torsions:
REMARK  status: ('A' for Active; 'I' for Inactive)
REMARK    1  A    between atoms: C_2  and  O_16
REMARK    2  A    between atoms: C_2  and  C_18
REMARK    3  A    between atoms: C_3  and  C_29
REMARK    4  A    between atoms: C_4  and  C_6
REMARK    5  A    between atoms: C_9  and  O_12
REMARK    6  A    between atoms: C_11  and  O_14
REMARK    7  A    between atoms: C_18  and  C_19
REMARK    8  A    between atoms: C_22  and  O_25
REMARK    9  A    between atoms: C_24  and  O_27
REMARK   10  A    between atoms: C_29  and  O_30
REMARK                            x       y       z     vdW  Elec       q    Type
REMARK                         _______ _______ _______ _____ _____    ______ ____
ROOT
ATOM      1  O   UNL     1     -31.883  27.017   2.495  0.00  0.00    -0.349 OA
ATOM      2  C   UNL     1     -33.847  26.189   3.516  0.00  0.00    +0.124 C 
ATOM      3  C   UNL     1     -33.871  27.711   3.654  0.00  0.00    +0.088 C 
ATOM      4  C   UNL     1     -32.432  28.106   3.264  0.00  0.00    +0.142 C 
ATOM      5  C   UNL     1     -32.862  25.974   2.382  0.00  0.00    +0.170 C 
ENDROOT
BRANCH   4   6
ATOM      6  C   UNL     1     -31.558  28.438   4.458  0.00  0.00    +0.008 C 
ATOM      7  C   UNL     1     -30.178  28.241   4.392  0.00  0.00    +0.038 C 
ATOM      8  C   UNL     1     -32.132  28.942   5.627  0.00  0.00    +0.001 C 
ATOM      9  C   UNL     1     -29.374  28.546   5.490  0.00  0.00    +0.172 C 
ATOM     10  C   UNL     1     -31.329  29.246   6.726  0.00  0.00    +0.040 C 
ATOM     11  C   UNL     1     -29.949  29.049   6.657  0.00  0.00    +0.168 C 
BRANCH   9  12
ATOM     12  O   UNL     1     -28.028  28.350   5.410  0.00  0.00    -0.468 OA
ATOM     13  C   UNL     1     -27.556  27.015   5.587  0.00  0.00    +0.253 C 
ENDBRANCH   9  12
BRANCH  11  14
ATOM     14  O   UNL     1     -29.174  29.351   7.736  0.00  0.00    -0.503 OA
ATOM     15  H   UNL     1     -29.544  29.815   8.462  0.00  0.00    +0.292 HD
ENDBRANCH  11  14
ENDBRANCH   4   6
BRANCH   2  16
ATOM     16  O   UNL     1     -33.268  25.630   4.703  0.00  0.00    -0.384 OA
ATOM     17  H   UNL     1     -33.147  24.675   4.583  0.00  0.00    +0.210 HD
ENDBRANCH   2  16
BRANCH   2  18
ATOM     18  C   UNL     1     -35.180  25.492   3.284  0.00  0.00    +0.056 C 
BRANCH  18  19
ATOM     19  C   UNL     1     -35.240  24.167   3.989  0.00  0.00    -0.017 C 
ATOM     20  C   UNL     1     -35.235  22.993   3.246  0.00  0.00    +0.036 C 
ATOM     21  C   UNL     1     -35.301  24.130   5.376  0.00  0.00    -0.001 C 
ATOM     22  C   UNL     1     -35.290  21.762   3.900  0.00  0.00    +0.172 C 
ATOM     23  C   UNL     1     -35.357  22.899   6.031  0.00  0.00    +0.039 C 
ATOM     24  C   UNL     1     -35.352  21.716   5.293  0.00  0.00    +0.168 C 
BRANCH  22  25
ATOM     25  O   UNL     1     -35.284  20.613   3.168  0.00  0.00    -0.468 OA
ATOM     26  C   UNL     1     -36.289  20.477   2.167  0.00  0.00    +0.253 C 
ENDBRANCH  22  25
BRANCH  24  27
ATOM     27  O   UNL     1     -35.406  20.520   5.942  0.00  0.00    -0.503 OA
ATOM     28  H   UNL     1     -34.931  19.783   5.610  0.00  0.00    +0.292 HD
ENDBRANCH  24  27
ENDBRANCH  18  19
ENDBRANCH   2  18
BRANCH   3  29
ATOM     29  C   UNL     1     -34.874  28.410   2.730  0.00  0.00    +0.142 C 
BRANCH  29  30
ATOM     30  O   UNL     1     -35.277  29.626   3.334  0.00  0.00    -0.382 OA
ATOM     31  H   UNL     1     -36.204  29.806   3.113  0.00  0.00    +0.210 HD
ENDBRANCH  29  30
ENDBRANCH   3  29
TORSDOF 10
ENDMDL
MODEL 2
REMARK VINA RESULT:      -6.4      0.861      1.813
REMARK  Name = 5273570
REMARK  10 active torsions:
REMARK  status: ('A' for Active; 'I' for Inactive)
REMARK    1  A    between atoms: C_2  and  O_16
REMARK    2  A    between atoms: C_2  and  C_18
REMARK    3  A    between atoms: C_3  and  C_29
REMARK    4  A    between atoms: C_4  and  C_6
REMARK    5  A    between atoms: C_9  and  O_12
REMARK    6  A    between atoms: C_11  and  O_14
REMARK    7  A    between atoms: C_18  and  C_19
REMARK    8  A    between atoms: C_22  and  O_25
REMARK    9  A    between atoms: C_24  and  O_27
REMARK   10  A    between atoms: C_29  and  O_30
REMARK                            x       y       z     vdW  Elec       q    Type
REMARK                         _______ _______ _______ _____ _____    ______ ____
ROOT
ATOM      1  O   UNL     1     -32.474  26.645   1.508  0.00  0.00    -0.349 OA
ATOM      2  C   UNL     1     -34.039  26.043   3.174  0.00  0.00    +0.124 C 
ATOM      3  C   UNL     1     -33.840  27.556   3.264  0.00  0.00    +0.088 C 
ATOM      4  C   UNL     1     -32.592  27.783   2.385  0.00  0.00    +0.142 C 
ATOM      5  C   UNL     1     -33.544  25.726   1.775  0.00  0.00    +0.170 C 
ENDROOT
BRANCH   4   6
ATOM      6  C   UNL     1     -31.324  27.996   3.190  0.00  0.00    +0.008 C 
ATOM      7  C   UNL     1     -31.386  28.608   4.443  0.00  0.00    +0.038 C 
ATOM      8  C   UNL     1     -30.093  27.581   2.679  0.00  0.00    +0.001 C 
ATOM      9  C   UNL     1     -30.219  28.804   5.184  0.00  0.00    +0.172 C 
ATOM     10  C   UNL     1     -28.926  27.778   3.419  0.00  0.00    +0.040 C 
ATOM     11  C   UNL     1     -28.990  28.389   4.672  0.00  0.00    +0.168 C 
BRANCH   9  12
ATOM     12  O   UNL     1     -30.295  29.402   6.405  0.00  0.00    -0.468 OA
ATOM     13  C   UNL     1     -31.595  29.568   6.967  0.00  0.00    +0.253 C 
ENDBRANCH   9  12
BRANCH  11  14
ATOM     14  O   UNL     1     -27.845  28.575   5.385  0.00  0.00    -0.503 OA
ATOM     15  H   UNL     1     -27.650  28.015   6.111  0.00  0.00    +0.292 HD
ENDBRANCH  11  14
ENDBRANCH   4   6
BRANCH   2  16
ATOM     16  O   UNL     1     -33.151  25.407   4.101  0.00  0.00    -0.384 OA
ATOM     17  H   UNL     1     -33.664  24.862   4.719  0.00  0.00    +0.210 HD
ENDBRANCH   2  16
BRANCH   2  18
ATOM     18  C   UNL     1     -35.439  25.511   3.442  0.00  0.00    +0.056 C 
BRANCH  18  19
ATOM     19  C   UNL     1     -35.400  24.170   4.118  0.00  0.00    -0.017 C 
ATOM     20  C   UNL     1     -35.404  23.014   3.348  0.00  0.00    +0.036 C 
ATOM     21  C   UNL     1     -35.362  24.101   5.505  0.00  0.00    -0.001 C 
ATOM     22  C   UNL     1     -35.368  21.768   3.975  0.00  0.00    +0.172 C 
ATOM     23  C   UNL     1     -35.326  22.856   6.132  0.00  0.00    +0.039 C 
ATOM     24  C   UNL     1     -35.329  21.689   5.367  0.00  0.00    +0.168 C 
BRANCH  22  25
ATOM     25  O   UNL     1     -35.370  20.636   3.217  0.00  0.00    -0.468 OA
ATOM     26  C   UNL     1     -35.269  20.801   1.805  0.00  0.00    +0.253 C 
ENDBRANCH  22  25
BRANCH  24  27
ATOM     27  O   UNL     1     -35.293  20.479   5.990  0.00  0.00    -0.503 OA
ATOM     28  H   UNL     1     -35.142  19.699   5.493  0.00  0.00    +0.292 HD
ENDBRANCH  24  27
ENDBRANCH  18  19
ENDBRANCH   2  18
BRANCH   3  29
ATOM     29  C   UNL     1     -35.015  28.378   2.726  0.00  0.00    +0.142 C 
BRANCH  29  30
ATOM     30  O   UNL     1     -35.111  29.577   3.474  0.00  0.00    -0.382 OA
ATOM     31  H   UNL     1     -35.438  30.289   2.904  0.00  0.00    +0.210 HD
ENDBRANCH  29  30
ENDBRANCH   3  29
TORSDOF 10
ENDMDL
MODEL 3
REMARK VINA RESULT:      -6.3      2.441      5.447
REMARK  Name = 5273570
REMARK  10 active torsions:
REMARK  status: ('A' for Active; 'I' for Inactive)
REMARK    1  A    between atoms: C_2  and  O_16
REMARK    2  A    between atoms: C_2  and  C_18
REMARK    3  A    between atoms: C_3  and  C_29
REMARK    4  A    between atoms: C_4  and  C_6
REMARK    5  A    between atoms: C_9  and  O_12
REMARK    6  A    between atoms: C_11  and  O_14
REMARK    7  A    between atoms: C_18  and  C_19
REMARK    8  A    between atoms: C_22  and  O_25
REMARK    9  A    between atoms: C_24  and  O_27
REMARK   10  A    between atoms: C_29  and  O_30
REMARK                            x       y       z     vdW  Elec       q    Type
REMARK                         _______ _______ _______ _____ _____    ______ ____
ROOT
ATOM      1  O   UNL     1     -37.151  24.178   3.944  0.00  0.00    -0.349 OA
ATOM      2  C   UNL     1     -35.675  22.384   3.509  0.00  0.00    +0.124 C 
ATOM      3  C   UNL     1     -35.231  23.028   4.822  0.00  0.00    +0.088 C 
ATOM      4  C   UNL     1     -36.030  24.348   4.834  0.00  0.00    +0.142 C 
ATOM      5  C   UNL     1     -37.109  22.862   3.373  0.00  0.00    +0.170 C 
ENDROOT
BRANCH   4   6
ATOM      6  C   UNL     1     -35.196  25.556   4.453  0.00  0.00    +0.008 C 
ATOM      7  C   UNL     1     -34.090  25.914   5.224  0.00  0.00    +0.038 C 
ATOM      8  C   UNL     1     -35.533  26.312   3.328  0.00  0.00    +0.001 C 
ATOM      9  C   UNL     1     -33.322  27.025   4.874  0.00  0.00    +0.172 C 
ATOM     10  C   UNL     1     -34.767  27.424   2.978  0.00  0.00    +0.040 C 
ATOM     11  C   UNL     1     -33.661  27.780   3.751  0.00  0.00    +0.168 C 
BRANCH   9  12
ATOM     12  O   UNL     1     -32.245  27.363   5.636  0.00  0.00    -0.468 OA
ATOM     13  C   UNL     1     -32.438  27.409   7.048  0.00  0.00    +0.253 C 
ENDBRANCH   9  12
BRANCH  11  14
ATOM     14  O   UNL     1     -32.919  28.867   3.398  0.00  0.00    -0.503 OA
ATOM     15  H   UNL     1     -33.342  29.681   3.211  0.00  0.00    +0.292 HD
ENDBRANCH  11  14
ENDBRANCH   4   6
BRANCH   2  16
ATOM     16  O   UNL     1     -34.923  22.962   2.435  0.00  0.00    -0.384 OA
ATOM     17  H   UNL     1     -33.975  22.878   2.623  0.00  0.00    +0.210 HD
ENDBRANCH   2  16
BRANCH   2  18
ATOM     18  C   UNL     1     -35.542  20.872   3.399  0.00  0.00    +0.056 C 
BRANCH  18  19
ATOM     19  C   UNL     1     -35.462  20.428   1.966  0.00  0.00    -0.017 C 
ATOM     20  C   UNL     1     -34.240  20.032   1.438  0.00  0.00    +0.036 C 
ATOM     21  C   UNL     1     -36.611  20.419   1.186  0.00  0.00    -0.001 C 
ATOM     22  C   UNL     1     -34.165  19.620   0.107  0.00  0.00    +0.172 C 
ATOM     23  C   UNL     1     -36.537  20.007  -0.145  0.00  0.00    +0.039 C 
ATOM     24  C   UNL     1     -35.315  19.607  -0.684  0.00  0.00    +0.168 C 
BRANCH  22  25
ATOM     25  O   UNL     1     -32.966  19.231  -0.408  0.00  0.00    -0.468 OA
ATOM     26  C   UNL     1     -31.806  19.502   0.375  0.00  0.00    +0.253 C 
ENDBRANCH  22  25
BRANCH  24  27
ATOM     27  O   UNL     1     -35.254  19.206  -1.985  0.00  0.00    -0.503 OA
ATOM     28  H   UNL     1     -34.816  18.409  -2.210  0.00  0.00    +0.292 HD
ENDBRANCH  24  27
ENDBRANCH  18  19
ENDBRANCH   2  18
BRANCH   3  29
ATOM     29  C   UNL     1     -35.562  22.205   6.071  0.00  0.00    +0.142 C 
BRANCH  29  30
ATOM     30  O   UNL     1     -34.456  21.375   6.374  0.00  0.00    -0.382 OA
ATOM     31  H   UNL     1     -33.679  21.676   5.877  0.00  0.00    +0.210 HD
ENDBRANCH  29  30
ENDBRANCH   3  29
TORSDOF 10
ENDMDL
MODEL 4
REMARK VINA RESULT:      -6.3      2.631      5.780
REMARK  Name = 5273570
REMARK  10 active torsions:
REMARK  status: ('A' for Active; 'I' for Inactive)
REMARK    1  A    between atoms: C_2  and  O_16
REMARK    2  A    between atoms: C_2  and  C_18
REMARK    3  A    between atoms: C_3  and  C_29
REMARK    4  A    between atoms: C_4  and  C_6
REMARK    5  A    between atoms: C_9  and  O_12
REMARK    6  A    between atoms: C_11  and  O_14
REMARK    7  A    between atoms: C_18  and  C_19
REMARK    8  A    between atoms: C_22  and  O_25
REMARK    9  A    between atoms: C_24  and  O_27
REMARK   10  A    between atoms: C_29  and  O_30
REMARK                            x       y       z     vdW  Elec       q    Type
REMARK                         _______ _______ _______ _____ _____    ______ ____
ROOT
ATOM      1  O   UNL     1     -37.216  23.517   3.876  0.00  0.00    -0.349 OA
ATOM      2  C   UNL     1     -35.536  22.028   3.137  0.00  0.00    +0.124 C 
ATOM      3  C   UNL     1     -35.070  22.610   4.472  0.00  0.00    +0.088 C 
ATOM      4  C   UNL     1     -36.053  23.780   4.688  0.00  0.00    +0.142 C 
ATOM      5  C   UNL     1     -37.032  22.283   3.167  0.00  0.00    +0.170 C 
ENDROOT
BRANCH   4   6
ATOM      6  C   UNL     1     -35.450  25.135   4.371  0.00  0.00    +0.008 C 
ATOM      7  C   UNL     1     -34.377  25.615   5.123  0.00  0.00    +0.038 C 
ATOM      8  C   UNL     1     -35.967  25.904   3.327  0.00  0.00    +0.001 C 
ATOM      9  C   UNL     1     -33.821  26.862   4.832  0.00  0.00    +0.172 C 
ATOM     10  C   UNL     1     -35.413  27.151   3.037  0.00  0.00    +0.040 C 
ATOM     11  C   UNL     1     -34.339  27.630   3.789  0.00  0.00    +0.168 C 
BRANCH   9  12
ATOM     12  O   UNL     1     -32.773  27.317   5.573  0.00  0.00    -0.468 OA
ATOM     13  C   UNL     1     -32.791  27.026   6.969  0.00  0.00    +0.253 C 
ENDBRANCH   9  12
BRANCH  11  14
ATOM     14  O   UNL     1     -33.805  28.848   3.495  0.00  0.00    -0.503 OA
ATOM     15  H   UNL     1     -32.908  28.915   3.235  0.00  0.00    +0.292 HD
ENDBRANCH  11  14
ENDBRANCH   4   6
BRANCH   2  16
ATOM     16  O   UNL     1     -34.984  22.815   2.074  0.00  0.00    -0.384 OA
ATOM     17  H   UNL     1     -35.060  23.756   2.297  0.00  0.00    +0.210 HD
ENDBRANCH   2  16
BRANCH   2  18
ATOM     18  C   UNL     1     -35.188  20.573   2.857  0.00  0.00    +0.056 C 
BRANCH  18  19
ATOM     19  C   UNL     1     -35.049  20.312   1.384  0.00  0.00    -0.017 C 
ATOM     20  C   UNL     1     -36.175  19.998   0.634  0.00  0.00    +0.036 C 
ATOM     21  C   UNL     1     -33.796  20.388   0.789  0.00  0.00    -0.001 C 
ATOM     22  C   UNL     1     -36.046  19.755  -0.734  0.00  0.00    +0.172 C 
ATOM     23  C   UNL     1     -33.666  20.146  -0.579  0.00  0.00    +0.039 C 
ATOM     24  C   UNL     1     -34.791  19.830  -1.340  0.00  0.00    +0.168 C 
BRANCH  22  25
ATOM     25  O   UNL     1     -37.152  19.449  -1.468  0.00  0.00    -0.468 OA
ATOM     26  C   UNL     1     -38.367  19.239  -0.752  0.00  0.00    +0.253 C 
ENDBRANCH  22  25
BRANCH  24  27
ATOM     27  O   UNL     1     -34.654  19.596  -2.675  0.00  0.00    -0.503 OA
ATOM     28  H   UNL     1     -35.286  19.074  -3.128  0.00  0.00    +0.292 HD
ENDBRANCH  24  27
ENDBRANCH  18  19
ENDBRANCH   2  18
BRANCH   3  29
ATOM     29  C   UNL     1     -35.154  21.632   5.648  0.00  0.00    +0.142 C 
BRANCH  29  30
ATOM     30  O   UNL     1     -36.199  22.045   6.509  0.00  0.00    -0.382 OA
ATOM     31  H   UNL     1     -37.045  21.707   6.176  0.00  0.00    +0.210 HD
ENDBRANCH  29  30
ENDBRANCH   3  29
TORSDOF 10
ENDMDL
MODEL 5
REMARK VINA RESULT:      -6.2      2.267      7.490
REMARK  Name = 5273570
REMARK  10 active torsions:
REMARK  status: ('A' for Active; 'I' for Inactive)
REMARK    1  A    between atoms: C_2  and  O_16
REMARK    2  A    between atoms: C_2  and  C_18
REMARK    3  A    between atoms: C_3  and  C_29
REMARK    4  A    between atoms: C_4  and  C_6
REMARK    5  A    between atoms: C_9  and  O_12
REMARK    6  A    between atoms: C_11  and  O_14
REMARK    7  A    between atoms: C_18  and  C_19
REMARK    8  A    between atoms: C_22  and  O_25
REMARK    9  A    between atoms: C_24  and  O_27
REMARK   10  A    between atoms: C_29  and  O_30
REMARK                            x       y       z     vdW  Elec       q    Type
REMARK                         _______ _______ _______ _____ _____    ______ ____
ROOT
ATOM      1  O   UNL     1     -35.970  22.446   4.757  0.00  0.00    -0.349 OA
ATOM      2  C   UNL     1     -34.982  24.564   5.111  0.00  0.00    +0.124 C 
ATOM      3  C   UNL     1     -35.875  24.680   3.875  0.00  0.00    +0.088 C 
ATOM      4  C   UNL     1     -36.194  23.205   3.552  0.00  0.00    +0.142 C 
ATOM      5  C   UNL     1     -35.530  23.328   5.800  0.00  0.00    +0.170 C 
ENDROOT
BRANCH   4   6
ATOM      6  C   UNL     1     -35.385  22.658   2.392  0.00  0.00    +0.008 C 
ATOM      7  C   UNL     1     -35.277  21.279   2.204  0.00  0.00    +0.038 C 
ATOM      8  C   UNL     1     -34.747  23.532   1.510  0.00  0.00    +0.001 C 
ATOM      9  C   UNL     1     -34.533  20.775   1.137  0.00  0.00    +0.172 C 
ATOM     10  C   UNL     1     -34.002  23.028   0.444  0.00  0.00    +0.040 C 
ATOM     11  C   UNL     1     -33.895  21.649   0.257  0.00  0.00    +0.168 C 
BRANCH   9  12
ATOM     12  O   UNL     1     -34.437  19.427   0.965  0.00  0.00    -0.468 OA
ATOM     13  C   UNL     1     -33.313  18.776   1.554  0.00  0.00    +0.253 C 
ENDBRANCH   9  12
BRANCH  11  14
ATOM     14  O   UNL     1     -33.166  21.169  -0.789  0.00  0.00    -0.503 OA
ATOM     15  H   UNL     1     -32.361  20.717  -0.629  0.00  0.00    +0.292 HD
ENDBRANCH  11  14
ENDBRANCH   4   6
BRANCH   2  16
ATOM     16  O   UNL     1     -33.646  24.266   4.687  0.00  0.00    -0.384 OA
ATOM     17  H   UNL     1     -33.282  23.557   5.240  0.00  0.00    +0.210 HD
ENDBRANCH   2  16
BRANCH   2  18
ATOM     18  C   UNL     1     -34.912  25.774   6.031  0.00  0.00    +0.056 C 
BRANCH  18  19
ATOM     19  C   UNL     1     -33.774  26.683   5.661  0.00  0.00    -0.017 C 
ATOM     20  C   UNL     1     -33.648  27.126   4.351  0.00  0.00    +0.036 C 
ATOM     21  C   UNL     1     -32.861  27.069   6.634  0.00  0.00    -0.001 C 
ATOM     22  C   UNL     1     -32.592  27.970   4.007  0.00  0.00    +0.172 C 
ATOM     23  C   UNL     1     -31.804  27.913   6.291  0.00  0.00    +0.039 C 
ATOM     24  C   UNL     1     -31.670  28.364   4.978  0.00  0.00    +0.168 C 
BRANCH  22  25
ATOM     25  O   UNL     1     -32.472  28.404   2.722  0.00  0.00    -0.468 OA
ATOM     26  C   UNL     1     -33.634  28.326   1.900  0.00  0.00    +0.253 C 
ENDBRANCH  22  25
BRANCH  24  27
ATOM     27  O   UNL     1     -30.635  29.188   4.654  0.00  0.00    -0.503 OA
ATOM     28  H   UNL     1     -30.631  30.076   4.953  0.00  0.00    +0.292 HD
ENDBRANCH  24  27
ENDBRANCH  18  19
ENDBRANCH   2  18
BRANCH   3  29
ATOM     29  C   UNL     1     -37.173  25.458   4.108  0.00  0.00    +0.142 C 
BRANCH  29  30
ATOM     30  O   UNL     1     -38.262  24.556   4.038  0.00  0.00    -0.382 OA
ATOM     31  H   UNL     1     -38.642  24.436   4.922  0.00  0.00    +0.210 HD
ENDBRANCH  29  30
ENDBRANCH   3  29
TORSDOF 10
ENDMDL
MODEL 6
REMARK VINA RESULT:      -6.2      4.659      7.883
REMARK  Name = 5273570
REMARK  10 active torsions:
REMARK  status: ('A' for Active; 'I' for Inactive)
REMARK    1  A    between atoms: C_2  and  O_16
REMARK    2  A    between atoms: C_2  and  C_18
REMARK    3  A    between atoms: C_3  and  C_29
REMARK    4  A    between atoms: C_4  and  C_6
REMARK    5  A    between atoms: C_9  and  O_12
REMARK    6  A    between atoms: C_11  and  O_14
REMARK    7  A    between atoms: C_18  and  C_19
REMARK    8  A    between atoms: C_22  and  O_25
REMARK    9  A    between atoms: C_24  and  O_27
REMARK   10  A    between atoms: C_29  and  O_30
REMARK                            x       y       z     vdW  Elec       q    Type
REMARK                         _______ _______ _______ _____ _____    ______ ____
ROOT
ATOM      1  O   UNL     1     -37.512  27.425   1.401  0.00  0.00    -0.349 OA
ATOM      2  C   UNL     1     -36.312  25.723   2.518  0.00  0.00    +0.124 C 
ATOM      3  C   UNL     1     -36.651  25.198   1.123  0.00  0.00    +0.088 C 
ATOM      4  C   UNL     1     -37.688  26.225   0.622  0.00  0.00    +0.142 C 
ATOM      5  C   UNL     1     -36.456  27.225   2.352  0.00  0.00    +0.170 C 
ENDROOT
BRANCH   4   6
ATOM      6  C   UNL     1     -39.116  25.719   0.695  0.00  0.00    +0.008 C 
ATOM      7  C   UNL     1     -39.372  24.347   0.698  0.00  0.00    +0.038 C 
ATOM      8  C   UNL     1     -40.176  26.625   0.761  0.00  0.00    +0.001 C 
ATOM      9  C   UNL     1     -40.686  23.881   0.765  0.00  0.00    +0.172 C 
ATOM     10  C   UNL     1     -41.490  26.159   0.827  0.00  0.00    +0.040 C 
ATOM     11  C   UNL     1     -41.744  24.787   0.830  0.00  0.00    +0.168 C 
BRANCH   9  12
ATOM     12  O   UNL     1     -40.921  22.540   0.767  0.00  0.00    -0.468 OA
ATOM     13  C   UNL     1     -39.872  21.698   1.241  0.00  0.00    +0.253 C 
ENDBRANCH   9  12
BRANCH  11  14
ATOM     14  O   UNL     1     -43.031  24.345   0.897  0.00  0.00    -0.503 OA
ATOM     15  H   UNL     1     -43.609  24.476   0.171  0.00  0.00    +0.292 HD
ENDBRANCH  11  14
ENDBRANCH   4   6
BRANCH   2  16
ATOM     16  O   UNL     1     -37.328  25.290   3.432  0.00  0.00    -0.384 OA
ATOM     17  H   UNL     1     -37.930  24.679   2.980  0.00  0.00    +0.210 HD
ENDBRANCH   2  16
BRANCH   2  18
ATOM     18  C   UNL     1     -34.967  25.318   3.104  0.00  0.00    +0.056 C 
BRANCH  18  19
ATOM     19  C   UNL     1     -35.064  24.030   3.871  0.00  0.00    -0.017 C 
ATOM     20  C   UNL     1     -35.231  22.834   3.185  0.00  0.00    +0.036 C 
ATOM     21  C   UNL     1     -34.986  24.050   5.257  0.00  0.00    -0.001 C 
ATOM     22  C   UNL     1     -35.322  21.637   3.897  0.00  0.00    +0.172 C 
ATOM     23  C   UNL     1     -35.076  22.854   5.970  0.00  0.00    +0.039 C 
ATOM     24  C   UNL     1     -35.244  21.648   5.290  0.00  0.00    +0.168 C 
BRANCH  22  25
ATOM     25  O   UNL     1     -35.484  20.466   3.221  0.00  0.00    -0.468 OA
ATOM     26  C   UNL     1     -36.259  20.510   2.026  0.00  0.00    +0.253 C 
ENDBRANCH  22  25
BRANCH  24  27
ATOM     27  O   UNL     1     -35.330  20.486   5.995  0.00  0.00    -0.503 OA
ATOM     28  H   UNL     1     -34.759  20.335   6.723  0.00  0.00    +0.292 HD
ENDBRANCH  24  27
ENDBRANCH  18  19
ENDBRANCH   2  18
BRANCH   3  29
ATOM     29  C   UNL     1     -35.458  25.146   0.164  0.00  0.00    +0.142 C 
BRANCH  29  30
ATOM     30  O   UNL     1     -35.386  23.850  -0.402  0.00  0.00    -0.382 OA
ATOM     31  H   UNL     1     -36.145  23.710  -0.989  0.00  0.00    +0.210 HD
ENDBRANCH  29  30
ENDBRANCH   3  29
TORSDOF 10
ENDMDL
MODEL 7
REMARK VINA RESULT:      -6.2      2.265      7.634
REMARK  Name = 5273570
REMARK  10 active torsions:
REMARK  status: ('A' for Active; 'I' for Inactive)
REMARK    1  A    between atoms: C_2  and  O_16
REMARK    2  A    between atoms: C_2  and  C_18
REMARK    3  A    between atoms: C_3  and  C_29
REMARK    4  A    between atoms: C_4  and  C_6
REMARK    5  A    between atoms: C_9  and  O_12
REMARK    6  A    between atoms: C_11  and  O_14
REMARK    7  A    between atoms: C_18  and  C_19
REMARK    8  A    between atoms: C_22  and  O_25
REMARK    9  A    between atoms: C_24  and  O_27
REMARK   10  A    between atoms: C_29  and  O_30
REMARK                            x       y       z     vdW  Elec       q    Type
REMARK                         _______ _______ _______ _____ _____    ______ ____
ROOT
ATOM      1  O   UNL     1     -36.018  22.249   4.925  0.00  0.00    -0.349 OA
ATOM      2  C   UNL     1     -35.119  24.435   4.957  0.00  0.00    +0.124 C 
ATOM      3  C   UNL     1     -36.012  24.329   3.720  0.00  0.00    +0.088 C 
ATOM      4  C   UNL     1     -36.269  22.811   3.622  0.00  0.00    +0.142 C 
ATOM      5  C   UNL     1     -35.617  23.293   5.824  0.00  0.00    +0.170 C 
ENDROOT
BRANCH   4   6
ATOM      6  C   UNL     1     -35.435  22.130   2.553  0.00  0.00    +0.008 C 
ATOM      7  C   UNL     1     -34.863  22.884   1.527  0.00  0.00    +0.038 C 
ATOM      8  C   UNL     1     -35.236  20.749   2.595  0.00  0.00    +0.001 C 
ATOM      9  C   UNL     1     -34.095  22.259   0.544  0.00  0.00    +0.172 C 
ATOM     10  C   UNL     1     -34.469  20.123   1.612  0.00  0.00    +0.040 C 
ATOM     11  C   UNL     1     -33.899  20.879   0.586  0.00  0.00    +0.168 C 
BRANCH   9  12
ATOM     12  O   UNL     1     -33.543  23.007  -0.451  0.00  0.00    -0.468 OA
ATOM     13  C   UNL     1     -32.719  24.103  -0.058  0.00  0.00    +0.253 C 
ENDBRANCH   9  12
BRANCH  11  14
ATOM     14  O   UNL     1     -33.151  20.256  -0.367  0.00  0.00    -0.503 OA
ATOM     15  H   UNL     1     -32.727  20.761  -1.033  0.00  0.00    +0.292 HD
ENDBRANCH  11  14
ENDBRANCH   4   6
BRANCH   2  16
ATOM     16  O   UNL     1     -33.770  24.132   4.578  0.00  0.00    -0.384 OA
ATOM     17  H   UNL     1     -33.594  23.191   4.735  0.00  0.00    +0.210 HD
ENDBRANCH   2  16
BRANCH   2  18
ATOM     18  C   UNL     1     -35.101  25.770   5.687  0.00  0.00    +0.056 C 
BRANCH  18  19
ATOM     19  C   UNL     1     -34.077  26.703   5.106  0.00  0.00    -0.017 C 
ATOM     20  C   UNL     1     -33.029  27.152   5.899  0.00  0.00    +0.036 C 
ATOM     21  C   UNL     1     -34.191  27.107   3.781  0.00  0.00    -0.001 C 
ATOM     22  C   UNL     1     -32.078  28.019   5.359  0.00  0.00    +0.172 C 
ATOM     23  C   UNL     1     -33.241  27.974   3.241  0.00  0.00    +0.039 C 
ATOM     24  C   UNL     1     -32.185  28.430   4.030  0.00  0.00    +0.168 C 
BRANCH  22  25
ATOM     25  O   UNL     1     -31.051  28.456   6.139  0.00  0.00    -0.468 OA
ATOM     26  C   UNL     1     -31.306  29.583   6.974  0.00  0.00    +0.253 C 
ENDBRANCH  22  25
BRANCH  24  27
ATOM     27  O   UNL     1     -31.262  29.275   3.492  0.00  0.00    -0.503 OA
ATOM     28  H   UNL     1     -30.347  29.098   3.594  0.00  0.00    +0.292 HD
ENDBRANCH  24  27
ENDBRANCH  18  19
ENDBRANCH   2  18
BRANCH   3  29
ATOM     29  C   UNL     1     -37.342  25.079   3.839  0.00  0.00    +0.142 C 
BRANCH  29  30
ATOM     30  O   UNL     1     -38.401  24.147   3.720  0.00  0.00    -0.382 OA
ATOM     31  H   UNL     1     -38.095  23.271   4.002  0.00  0.00    +0.210 HD
ENDBRANCH  29  30
ENDBRANCH   3  29
TORSDOF 10
ENDMDL
MODEL 8
REMARK VINA RESULT:      -6.2      3.451      6.408
REMARK  Name = 5273570
REMARK  10 active torsions:
REMARK  status: ('A' for Active; 'I' for Inactive)
REMARK    1  A    between atoms: C_2  and  O_16
REMARK    2  A    between atoms: C_2  and  C_18
REMARK    3  A    between atoms: C_3  and  C_29
REMARK    4  A    between atoms: C_4  and  C_6
REMARK    5  A    between atoms: C_9  and  O_12
REMARK    6  A    between atoms: C_11  and  O_14
REMARK    7  A    between atoms: C_18  and  C_19
REMARK    8  A    between atoms: C_22  and  O_25
REMARK    9  A    between atoms: C_24  and  O_27
REMARK   10  A    between atoms: C_29  and  O_30
REMARK                            x       y       z     vdW  Elec       q    Type
REMARK                         _______ _______ _______ _____ _____    ______ ____
ROOT
ATOM      1  O   UNL     1     -36.559  24.107   0.956  0.00  0.00    -0.349 OA
ATOM      2  C   UNL     1     -35.245  22.179   0.574  0.00  0.00    +0.124 C 
ATOM      3  C   UNL     1     -35.969  21.978   1.906  0.00  0.00    +0.088 C 
ATOM      4  C   UNL     1     -36.515  23.390   2.206  0.00  0.00    +0.142 C 
ATOM      5  C   UNL     1     -36.076  23.258  -0.096  0.00  0.00    +0.170 C 
ENDROOT
BRANCH   4   6
ATOM      6  C   UNL     1     -35.703  24.137   3.246  0.00  0.00    +0.008 C 
ATOM      7  C   UNL     1     -35.585  25.526   3.176  0.00  0.00    +0.038 C 
ATOM      8  C   UNL     1     -35.071  23.437   4.276  0.00  0.00    +0.001 C 
ATOM      9  C   UNL     1     -34.838  26.214   4.133  0.00  0.00    +0.172 C 
ATOM     10  C   UNL     1     -34.323  24.125   5.232  0.00  0.00    +0.040 C 
ATOM     11  C   UNL     1     -34.207  25.514   5.161  0.00  0.00    +0.168 C 
BRANCH   9  12
ATOM     12  O   UNL     1     -34.733  27.570   4.053  0.00  0.00    -0.468 OA
ATOM     13  C   UNL     1     -34.798  28.150   2.752  0.00  0.00    +0.253 C 
ENDBRANCH   9  12
BRANCH  11  14
ATOM     14  O   UNL     1     -33.476  26.174   6.101  0.00  0.00    -0.503 OA
ATOM     15  H   UNL     1     -32.704  26.642   5.850  0.00  0.00    +0.292 HD
ENDBRANCH  11  14
ENDBRANCH   4   6
BRANCH   2  16
ATOM     16  O   UNL     1     -33.949  22.731   0.834  0.00  0.00    -0.384 OA
ATOM     17  H   UNL     1     -34.023  23.693   0.940  0.00  0.00    +0.210 HD
ENDBRANCH   2  16
BRANCH   2  18
ATOM     18  C   UNL     1     -35.052  20.950  -0.302  0.00  0.00    +0.056 C 
BRANCH  18  19
ATOM     19  C   UNL     1     -33.880  20.127   0.152  0.00  0.00    -0.017 C 
ATOM     20  C   UNL     1     -32.604  20.445  -0.295  0.00  0.00    +0.036 C 
ATOM     21  C   UNL     1     -34.086  19.056   1.013  0.00  0.00    -0.001 C 
ATOM     22  C   UNL     1     -31.515  19.680   0.127  0.00  0.00    +0.172 C 
ATOM     23  C   UNL     1     -32.998  18.291   1.435  0.00  0.00    +0.039 C 
ATOM     24  C   UNL     1     -31.713  18.603   0.992  0.00  0.00    +0.168 C 
BRANCH  22  25
ATOM     25  O   UNL     1     -30.265  19.995  -0.312  0.00  0.00    -0.468 OA
ATOM     26  C   UNL     1     -30.147  21.120  -1.180  0.00  0.00    +0.253 C 
ENDBRANCH  22  25
BRANCH  24  27
ATOM     27  O   UNL     1     -30.658  17.851   1.410  0.00  0.00    -0.503 OA
ATOM     28  H   UNL     1     -29.951  17.667   0.824  0.00  0.00    +0.292 HD
ENDBRANCH  24  27
ENDBRANCH  18  19
ENDBRANCH   2  18
BRANCH   3  29
ATOM     29  C   UNL     1     -37.122  20.972   1.849  0.00  0.00    +0.142 C 
BRANCH  29  30
ATOM     30  O   UNL     1     -36.797  19.862   2.667  0.00  0.00    -0.382 OA
ATOM     31  H   UNL     1     -35.859  19.904   2.911  0.00  0.00    +0.210 HD
ENDBRANCH  29  30
ENDBRANCH   3  29
TORSDOF 10
ENDMDL
MODEL 9
REMARK VINA RESULT:      -6.1      1.569      7.438
REMARK  Name = 5273570
REMARK  10 active torsions:
REMARK  status: ('A' for Active; 'I' for Inactive)
REMARK    1  A    between atoms: C_2  and  O_16
REMARK    2  A    between atoms: C_2  and  C_18
REMARK    3  A    between atoms: C_3  and  C_29
REMARK    4  A    between atoms: C_4  and  C_6
REMARK    5  A    between atoms: C_9  and  O_12
REMARK    6  A    between atoms: C_11  and  O_14
REMARK    7  A    between atoms: C_18  and  C_19
REMARK    8  A    between atoms: C_22  and  O_25
REMARK    9  A    between atoms: C_24  and  O_27
REMARK   10  A    between atoms: C_29  and  O_30
REMARK                            x       y       z     vdW  Elec       q    Type
REMARK                         _______ _______ _______ _____ _____    ______ ____
ROOT
ATOM      1  O   UNL     1     -35.169  27.003   1.760  0.00  0.00    -0.349 OA
ATOM      2  C   UNL     1     -33.454  28.051   3.005  0.00  0.00    +0.124 C 
ATOM      3  C   UNL     1     -32.918  26.694   2.547  0.00  0.00    +0.088 C 
ATOM      4  C   UNL     1     -34.193  25.982   2.048  0.00  0.00    +0.142 C 
ATOM      5  C   UNL     1     -34.607  28.292   2.048  0.00  0.00    +0.170 C 
ENDROOT
BRANCH   4   6
ATOM      6  C   UNL     1     -34.731  24.960   3.032  0.00  0.00    +0.008 C 
ATOM      7  C   UNL     1     -35.908  24.267   2.745  0.00  0.00    +0.038 C 
ATOM      8  C   UNL     1     -34.051  24.712   4.225  0.00  0.00    +0.001 C 
ATOM      9  C   UNL     1     -36.404  23.327   3.649  0.00  0.00    +0.172 C 
ATOM     10  C   UNL     1     -34.547  23.773   5.130  0.00  0.00    +0.040 C 
ATOM     11  C   UNL     1     -35.724  23.080   4.841  0.00  0.00    +0.168 C 
BRANCH   9  12
ATOM     12  O   UNL     1     -37.553  22.657   3.356  0.00  0.00    -0.468 OA
ATOM     13  C   UNL     1     -38.530  23.351   2.583  0.00  0.00    +0.253 C 
ENDBRANCH   9  12
BRANCH  11  14
ATOM     14  O   UNL     1     -36.198  22.165   5.732  0.00  0.00    -0.503 OA
ATOM     15  H   UNL     1     -36.536  21.346   5.426  0.00  0.00    +0.292 HD
ENDBRANCH  11  14
ENDBRANCH   4   6
BRANCH   2  16
ATOM     16  O   UNL     1     -34.006  27.908   4.319  0.00  0.00    -0.384 OA
ATOM     17  H   UNL     1     -34.626  27.162   4.330  0.00  0.00    +0.210 HD
ENDBRANCH   2  16
BRANCH   2  18
ATOM     18  C   UNL     1     -32.466  29.208   3.046  0.00  0.00    +0.056 C 
BRANCH  18  19
ATOM     19  C   UNL     1     -31.715  29.246   4.347  0.00  0.00    -0.017 C 
ATOM     20  C   UNL     1     -30.667  28.359   4.560  0.00  0.00    +0.036 C 
ATOM     21  C   UNL     1     -32.077  30.167   5.321  0.00  0.00    -0.001 C 
ATOM     22  C   UNL     1     -29.969  28.394   5.768  0.00  0.00    +0.172 C 
ATOM     23  C   UNL     1     -31.380  30.202   6.530  0.00  0.00    +0.039 C 
ATOM     24  C   UNL     1     -30.326  29.316   6.752  0.00  0.00    +0.168 C 
BRANCH  22  25
ATOM     25  O   UNL     1     -28.941  27.525   5.973  0.00  0.00    -0.468 OA
ATOM     26  C   UNL     1     -27.791  27.674   5.145  0.00  0.00    +0.253 C 
ENDBRANCH  22  25
BRANCH  24  27
ATOM     27  O   UNL     1     -29.652  29.360   7.935  0.00  0.00    -0.503 OA
ATOM     28  H   UNL     1     -29.664  28.620   8.510  0.00  0.00    +0.292 HD
ENDBRANCH  24  27
ENDBRANCH  18  19
ENDBRANCH   2  18
BRANCH   3  29
ATOM     29  C   UNL     1     -31.886  26.774   1.418  0.00  0.00    +0.142 C 
BRANCH  29  30
ATOM     30  O   UNL     1     -31.494  25.459   1.068  0.00  0.00    -0.382 OA
ATOM     31  H   UNL     1     -31.349  24.939   1.873  0.00  0.00    +0.210 HD
ENDBRANCH  29  30
ENDBRANCH   3  29
TORSDOF 10
ENDMDL
