MODEL 1
REMARK VINA RESULT:      -5.7      0.000      0.000
REMARK  Name = 54127386
REMARK  4 active torsions:
REMARK  status: ('A' for Active; 'I' for Inactive)
REMARK    1  A    between atoms: C_2  and  N_9
REMARK    2  A    between atoms: C_3  and  O_18
REMARK    3  A    between atoms: C_4  and  N_14
REMARK    4  A    between atoms: C_6  and  O_20
REMARK                            x       y       z     vdW  Elec       q    Type
REMARK                         _______ _______ _______ _____ _____    ______ ____
ROOT
ATOM      1  O   UNL     1     -35.512  22.766   3.610  0.00  0.00    -0.330 OA
ATOM      2  C   UNL     1     -37.166  24.573   3.571  0.00  0.00    +0.128 C 
ATOM      3  C   UNL     1     -36.373  25.315   4.660  0.00  0.00    +0.153 C 
ATOM      4  C   UNL     1     -34.911  24.860   4.682  0.00  0.00    +0.157 C 
ATOM      5  C   UNL     1     -36.916  23.055   3.628  0.00  0.00    +0.138 C 
ATOM      6  C   UNL     1     -34.797  23.334   4.709  0.00  0.00    +0.253 C 
ATOM      7  C   UNL     1     -37.514  22.322   2.429  0.00  0.00    +0.034 C 
ENDROOT
BRANCH   2   9
ATOM      8  O   UNL     1     -38.664  26.604   2.133  0.00  0.00    -0.275 OA
ATOM      9  N   UNL     1     -38.574  24.882   3.698  0.00  0.00    -0.301 N 
ATOM     10  C   UNL     1     -39.199  25.875   2.964  0.00  0.00    +0.223 C 
ATOM     11  C   UNL     1     -40.670  25.970   3.272  0.00  0.00    +0.095 C 
ATOM     12  H   UNL     1     -39.113  24.363   4.337  0.00  0.00    +0.150 HD
ENDBRANCH   2   9
BRANCH   4  14
ATOM     13  O   UNL     1     -33.429  27.356   4.681  0.00  0.00    -0.275 OA
ATOM     14  N   UNL     1     -34.194  25.454   5.785  0.00  0.00    -0.299 N 
ATOM     15  C   UNL     1     -33.513  26.655   5.687  0.00  0.00    +0.223 C 
ATOM     16  C   UNL     1     -32.875  27.058   6.991  0.00  0.00    +0.095 C 
ATOM     17  H   UNL     1     -34.189  24.981   6.649  0.00  0.00    +0.150 HD
ENDBRANCH   4  14
BRANCH   3  18
ATOM     18  O   UNL     1     -36.422  26.715   4.370  0.00  0.00    -0.381 OA
ATOM     19  H   UNL     1     -35.668  26.955   3.810  0.00  0.00    +0.210 HD
ENDBRANCH   3  18
BRANCH   6  20
ATOM     20  O   UNL     1     -35.191  22.767   5.957  0.00  0.00    -0.359 OA
ATOM     21  H   UNL     1     -34.403  22.504   6.456  0.00  0.00    +0.213 HD
ENDBRANCH   6  20
TORSDOF 4
ENDMDL
MODEL 2
REMARK VINA RESULT:      -5.3      2.584      3.376
REMARK  Name = 54127386
REMARK  4 active torsions:
REMARK  status: ('A' for Active; 'I' for Inactive)
REMARK    1  A    between atoms: C_2  and  N_9
REMARK    2  A    between atoms: C_3  and  O_18
REMARK    3  A    between atoms: C_4  and  N_14
REMARK    4  A    between atoms: C_6  and  O_20
REMARK                            x       y       z     vdW  Elec       q    Type
REMARK                         _______ _______ _______ _____ _____    ______ ____
ROOT
ATOM      1  O   UNL     1     -37.334  22.554   0.716  0.00  0.00    -0.330 OA
ATOM      2  C   UNL     1     -38.658  24.272   1.854  0.00  0.00    +0.128 C 
ATOM      3  C   UNL     1     -38.166  23.745   3.212  0.00  0.00    +0.153 C 
ATOM      4  C   UNL     1     -36.852  22.973   3.057  0.00  0.00    +0.157 C 
ATOM      5  C   UNL     1     -38.625  23.172   0.778  0.00  0.00    +0.138 C 
ATOM      6  C   UNL     1     -36.938  21.931   1.939  0.00  0.00    +0.253 C 
ATOM      7  C   UNL     1     -38.900  23.720  -0.621  0.00  0.00    +0.034 C 
ENDROOT
BRANCH   2   9
ATOM      8  O   UNL     1     -39.446  27.054   1.577  0.00  0.00    -0.275 OA
ATOM      9  N   UNL     1     -39.986  24.829   2.001  0.00  0.00    -0.301 N 
ATOM     10  C   UNL     1     -40.262  26.177   1.848  0.00  0.00    +0.223 C 
ATOM     11  C   UNL     1     -41.725  26.482   2.031  0.00  0.00    +0.095 C 
ATOM     12  H   UNL     1     -40.728  24.221   2.220  0.00  0.00    +0.150 HD
ENDBRANCH   2   9
BRANCH   4  14
ATOM     13  O   UNL     1     -35.081  24.081   5.073  0.00  0.00    -0.275 OA
ATOM     14  N   UNL     1     -36.453  22.364   4.305  0.00  0.00    -0.299 N 
ATOM     15  C   UNL     1     -35.598  22.974   5.206  0.00  0.00    +0.223 C 
ATOM     16  C   UNL     1     -35.368  22.133   6.434  0.00  0.00    +0.095 C 
ATOM     17  H   UNL     1     -36.805  21.471   4.523  0.00  0.00    +0.150 HD
ENDBRANCH   4  14
BRANCH   3  18
ATOM     18  O   UNL     1     -37.950  24.866   4.073  0.00  0.00    -0.381 OA
ATOM     19  H   UNL     1     -36.998  24.993   4.206  0.00  0.00    +0.210 HD
ENDBRANCH   3  18
BRANCH   6  20
ATOM     20  O   UNL     1     -37.772  20.824   2.273  0.00  0.00    -0.359 OA
ATOM     21  H   UNL     1     -37.948  20.300   1.476  0.00  0.00    +0.213 HD
ENDBRANCH   6  20
TORSDOF 4
ENDMDL
MODEL 3
REMARK VINA RESULT:      -5.3      1.179      1.307
REMARK  Name = 54127386
REMARK  4 active torsions:
REMARK  status: ('A' for Active; 'I' for Inactive)
REMARK    1  A    between atoms: C_2  and  N_9
REMARK    2  A    between atoms: C_3  and  O_18
REMARK    3  A    between atoms: C_4  and  N_14
REMARK    4  A    between atoms: C_6  and  O_20
REMARK                            x       y       z     vdW  Elec       q    Type
REMARK                         _______ _______ _______ _____ _____    ______ ____
ROOT
ATOM      1  O   UNL     1     -36.712  22.556   2.615  0.00  0.00    -0.330 OA
ATOM      2  C   UNL     1     -38.235  24.457   2.878  0.00  0.00    +0.128 C 
ATOM      3  C   UNL     1     -37.332  25.021   3.988  0.00  0.00    +0.153 C 
ATOM      4  C   UNL     1     -35.906  24.474   3.866  0.00  0.00    +0.157 C 
ATOM      5  C   UNL     1     -38.088  22.930   2.754  0.00  0.00    +0.138 C 
ATOM      6  C   UNL     1     -35.897  22.951   3.721  0.00  0.00    +0.253 C 
ATOM      7  C   UNL     1     -38.804  22.375   1.524  0.00  0.00    +0.034 C 
ENDROOT
BRANCH   2   9
ATOM      8  O   UNL     1     -39.623  26.809   1.888  0.00  0.00    -0.275 OA
ATOM      9  N   UNL     1     -39.609  24.838   3.128  0.00  0.00    -0.301 N 
ATOM     10  C   UNL     1     -40.182  25.986   2.607  0.00  0.00    +0.223 C 
ATOM     11  C   UNL     1     -41.628  26.129   3.002  0.00  0.00    +0.095 C 
ATOM     12  H   UNL     1     -40.162  24.255   3.695  0.00  0.00    +0.150 HD
ENDBRANCH   2   9
BRANCH   4  14
ATOM     13  O   UNL     1     -34.526  27.009   4.182  0.00  0.00    -0.275 OA
ATOM     14  N   UNL     1     -35.089  24.895   4.980  0.00  0.00    -0.299 N 
ATOM     15  C   UNL     1     -34.467  26.130   5.040  0.00  0.00    +0.223 C 
ATOM     16  C   UNL     1     -33.697  26.321   6.320  0.00  0.00    +0.095 C 
ATOM     17  H   UNL     1     -34.966  24.272   5.732  0.00  0.00    +0.150 HD
ENDBRANCH   4  14
BRANCH   3  18
ATOM     18  O   UNL     1     -37.300  26.444   3.855  0.00  0.00    -0.381 OA
ATOM     19  H   UNL     1     -36.760  26.824   4.565  0.00  0.00    +0.210 HD
ENDBRANCH   3  18
BRANCH   6  20
ATOM     20  O   UNL     1     -36.259  22.274   4.923  0.00  0.00    -0.359 OA
ATOM     21  H   UNL     1     -37.024  22.714   5.324  0.00  0.00    +0.213 HD
ENDBRANCH   6  20
TORSDOF 4
ENDMDL
MODEL 4
REMARK VINA RESULT:      -5.2      2.653      4.501
REMARK  Name = 54127386
REMARK  4 active torsions:
REMARK  status: ('A' for Active; 'I' for Inactive)
REMARK    1  A    between atoms: C_2  and  N_9
REMARK    2  A    between atoms: C_3  and  O_18
REMARK    3  A    between atoms: C_4  and  N_14
REMARK    4  A    between atoms: C_6  and  O_20
REMARK                            x       y       z     vdW  Elec       q    Type
REMARK                         _______ _______ _______ _____ _____    ______ ____
ROOT
ATOM      1  O   UNL     1     -37.224  25.406   2.044  0.00  0.00    -0.330 OA
ATOM      2  C   UNL     1     -35.601  27.042   2.874  0.00  0.00    +0.128 C 
ATOM      3  C   UNL     1     -35.381  26.179   4.128  0.00  0.00    +0.153 C 
ATOM      4  C   UNL     1     -35.777  24.722   3.869  0.00  0.00    +0.157 C 
ATOM      5  C   UNL     1     -36.994  26.803   2.264  0.00  0.00    +0.138 C 
ATOM      6  C   UNL     1     -37.167  24.621   3.236  0.00  0.00    +0.253 C 
ATOM      7  C   UNL     1     -37.156  27.479   0.904  0.00  0.00    +0.034 C 
ENDROOT
BRANCH   2   9
ATOM      8  O   UNL     1     -33.615  28.847   1.764  0.00  0.00    -0.275 OA
ATOM      9  N   UNL     1     -35.399  28.437   3.202  0.00  0.00    -0.301 N 
ATOM     10  C   UNL     1     -34.419  29.218   2.615  0.00  0.00    +0.223 C 
ATOM     11  C   UNL     1     -34.444  30.637   3.118  0.00  0.00    +0.095 C 
ATOM     12  H   UNL     1     -35.986  28.850   3.875  0.00  0.00    +0.150 HD
ENDBRANCH   2   9
BRANCH   4  14
ATOM     13  O   UNL     1     -35.434  21.848   4.082  0.00  0.00    -0.275 OA
ATOM     14  N   UNL     1     -35.698  23.936   5.077  0.00  0.00    -0.299 N 
ATOM     15  C   UNL     1     -35.533  22.562   5.077  0.00  0.00    +0.223 C 
ATOM     16  C   UNL     1     -35.457  21.995   6.471  0.00  0.00    +0.095 C 
ATOM     17  H   UNL     1     -35.766  24.400   5.943  0.00  0.00    +0.150 HD
ENDBRANCH   4  14
BRANCH   3  18
ATOM     18  O   UNL     1     -33.992  26.232   4.466  0.00  0.00    -0.381 OA
ATOM     19  H   UNL     1     -33.555  25.420   4.167  0.00  0.00    +0.210 HD
ENDBRANCH   3  18
BRANCH   6  20
ATOM     20  O   UNL     1     -38.218  24.946   4.144  0.00  0.00    -0.359 OA
ATOM     21  H   UNL     1     -38.298  25.909   4.213  0.00  0.00    +0.213 HD
ENDBRANCH   6  20
TORSDOF 4
ENDMDL
MODEL 5
REMARK VINA RESULT:      -5.1      2.620      3.964
REMARK  Name = 54127386
REMARK  4 active torsions:
REMARK  status: ('A' for Active; 'I' for Inactive)
REMARK    1  A    between atoms: C_2  and  N_9
REMARK    2  A    between atoms: C_3  and  O_18
REMARK    3  A    between atoms: C_4  and  N_14
REMARK    4  A    between atoms: C_6  and  O_20
REMARK                            x       y       z     vdW  Elec       q    Type
REMARK                         _______ _______ _______ _____ _____    ______ ____
ROOT
ATOM      1  O   UNL     1     -34.947  24.951   5.741  0.00  0.00    -0.330 OA
ATOM      2  C   UNL     1     -35.498  23.680   3.721  0.00  0.00    +0.128 C 
ATOM      3  C   UNL     1     -35.838  24.991   2.994  0.00  0.00    +0.153 C 
ATOM      4  C   UNL     1     -35.144  26.184   3.659  0.00  0.00    +0.157 C 
ATOM      5  C   UNL     1     -35.671  23.819   5.244  0.00  0.00    +0.138 C 
ATOM      6  C   UNL     1     -35.367  26.193   5.174  0.00  0.00    +0.253 C 
ATOM      7  C   UNL     1     -35.134  22.607   6.003  0.00  0.00    +0.034 C 
ENDROOT
BRANCH   2   9
ATOM      8  O   UNL     1     -34.769  21.763   1.664  0.00  0.00    -0.275 OA
ATOM      9  N   UNL     1     -36.311  22.605   3.192  0.00  0.00    -0.301 N 
ATOM     10  C   UNL     1     -35.871  21.739   2.206  0.00  0.00    +0.223 C 
ATOM     11  C   UNL     1     -36.905  20.701   1.858  0.00  0.00    +0.095 C 
ATOM     12  H   UNL     1     -37.219  22.485   3.550  0.00  0.00    +0.150 HD
ENDBRANCH   2   9
BRANCH   4  14
ATOM     13  O   UNL     1     -33.529  28.555   3.214  0.00  0.00    -0.275 OA
ATOM     14  N   UNL     1     -35.563  27.431   3.065  0.00  0.00    -0.299 N 
ATOM     15  C   UNL     1     -34.715  28.512   2.895  0.00  0.00    +0.223 C 
ATOM     16  C   UNL     1     -35.400  29.676   2.228  0.00  0.00    +0.095 C 
ATOM     17  H   UNL     1     -36.498  27.517   2.768  0.00  0.00    +0.150 HD
ENDBRANCH   4  14
BRANCH   3  18
ATOM     18  O   UNL     1     -35.385  24.881   1.643  0.00  0.00    -0.381 OA
ATOM     19  H   UNL     1     -35.837  24.140   1.209  0.00  0.00    +0.210 HD
ENDBRANCH   3  18
BRANCH   6  20
ATOM     20  O   UNL     1     -36.705  26.525   5.538  0.00  0.00    -0.359 OA
ATOM     21  H   UNL     1     -37.126  25.758   5.956  0.00  0.00    +0.213 HD
ENDBRANCH   6  20
TORSDOF 4
ENDMDL
MODEL 6
REMARK VINA RESULT:      -5.1      2.913      3.675
REMARK  Name = 54127386
REMARK  4 active torsions:
REMARK  status: ('A' for Active; 'I' for Inactive)
REMARK    1  A    between atoms: C_2  and  N_9
REMARK    2  A    between atoms: C_3  and  O_18
REMARK    3  A    between atoms: C_4  and  N_14
REMARK    4  A    between atoms: C_6  and  O_20
REMARK                            x       y       z     vdW  Elec       q    Type
REMARK                         _______ _______ _______ _____ _____    ______ ____
ROOT
ATOM      1  O   UNL     1     -36.376  21.303   0.685  0.00  0.00    -0.330 OA
ATOM      2  C   UNL     1     -38.152  22.871   1.310  0.00  0.00    +0.128 C 
ATOM      3  C   UNL     1     -37.801  22.668   2.794  0.00  0.00    +0.153 C 
ATOM      4  C   UNL     1     -36.364  22.164   2.954  0.00  0.00    +0.157 C 
ATOM      5  C   UNL     1     -37.750  21.649   0.465  0.00  0.00    +0.138 C 
ATOM      6  C   UNL     1     -36.081  20.968   2.042  0.00  0.00    +0.253 C 
ATOM      7  C   UNL     1     -37.886  21.910  -1.034  0.00  0.00    +0.034 C 
ENDROOT
BRANCH   2   9
ATOM      8  O   UNL     1     -39.408  25.486   1.176  0.00  0.00    -0.275 OA
ATOM      9  N   UNL     1     -39.563  23.164   1.179  0.00  0.00    -0.301 N 
ATOM     10  C   UNL     1     -40.067  24.451   1.124  0.00  0.00    +0.223 C 
ATOM     11  C   UNL     1     -41.563  24.471   0.962  0.00  0.00    +0.095 C 
ATOM     12  H   UNL     1     -40.195  22.411   1.128  0.00  0.00    +0.150 HD
ENDBRANCH   2   9
BRANCH   4  14
ATOM     13  O   UNL     1     -35.049  23.856   4.912  0.00  0.00    -0.275 OA
ATOM     14  N   UNL     1     -36.072  21.847   4.332  0.00  0.00    -0.299 N 
ATOM     15  C   UNL     1     -35.436  22.724   5.194  0.00  0.00    +0.223 C 
ATOM     16  C   UNL     1     -35.278  22.152   6.578  0.00  0.00    +0.095 C 
ATOM     17  H   UNL     1     -36.336  20.962   4.675  0.00  0.00    +0.150 HD
ENDBRANCH   4  14
BRANCH   3  18
ATOM     18  O   UNL     1     -37.931  23.929   3.457  0.00  0.00    -0.381 OA
ATOM     19  H   UNL     1     -37.513  23.879   4.331  0.00  0.00    +0.210 HD
ENDBRANCH   3  18
BRANCH   6  20
ATOM     20  O   UNL     1     -36.748  19.779   2.459  0.00  0.00    -0.359 OA
ATOM     21  H   UNL     1     -37.345  19.985   3.195  0.00  0.00    +0.213 HD
ENDBRANCH   6  20
TORSDOF 4
ENDMDL
MODEL 7
REMARK VINA RESULT:      -5.1      3.094      4.288
REMARK  Name = 54127386
REMARK  4 active torsions:
REMARK  status: ('A' for Active; 'I' for Inactive)
REMARK    1  A    between atoms: C_2  and  N_9
REMARK    2  A    between atoms: C_3  and  O_18
REMARK    3  A    between atoms: C_4  and  N_14
REMARK    4  A    between atoms: C_6  and  O_20
REMARK                            x       y       z     vdW  Elec       q    Type
REMARK                         _______ _______ _______ _____ _____    ______ ____
ROOT
ATOM      1  O   UNL     1     -33.557  26.331   2.157  0.00  0.00    -0.330 OA
ATOM      2  C   UNL     1     -34.296  25.198   4.200  0.00  0.00    +0.128 C 
ATOM      3  C   UNL     1     -33.516  26.220   5.043  0.00  0.00    +0.153 C 
ATOM      4  C   UNL     1     -33.282  27.514   4.259  0.00  0.00    +0.157 C 
ATOM      5  C   UNL     1     -33.693  25.052   2.791  0.00  0.00    +0.138 C 
ATOM      6  C   UNL     1     -32.708  27.234   2.868  0.00  0.00    +0.253 C 
ATOM      7  C   UNL     1     -34.571  24.213   1.866  0.00  0.00    +0.034 C 
ENDROOT
BRANCH   2   9
ATOM      8  O   UNL     1     -36.652  23.699   5.000  0.00  0.00    -0.275 OA
ATOM      9  N   UNL     1     -34.338  23.927   4.891  0.00  0.00    -0.301 N 
ATOM     10  C   UNL     1     -35.518  23.289   5.231  0.00  0.00    +0.223 C 
ATOM     11  C   UNL     1     -35.275  21.972   5.920  0.00  0.00    +0.095 C 
ATOM     12  H   UNL     1     -33.487  23.496   5.132  0.00  0.00    +0.150 HD
ENDBRANCH   2   9
BRANCH   4  14
ATOM     13  O   UNL     1     -33.351  30.416   4.203  0.00  0.00    -0.275 OA
ATOM     14  N   UNL     1     -32.438  28.426   4.995  0.00  0.00    -0.299 N 
ATOM     15  C   UNL     1     -32.547  29.803   4.901  0.00  0.00    +0.223 C 
ATOM     16  C   UNL     1     -31.564  30.516   5.791  0.00  0.00    +0.095 C 
ATOM     17  H   UNL     1     -31.750  28.050   5.591  0.00  0.00    +0.150 HD
ENDBRANCH   4  14
BRANCH   3  18
ATOM     18  O   UNL     1     -34.288  26.514   6.211  0.00  0.00    -0.381 OA
ATOM     19  H   UNL     1     -34.702  27.385   6.113  0.00  0.00    +0.210 HD
ENDBRANCH   3  18
BRANCH   6  20
ATOM     20  O   UNL     1     -31.355  26.785   2.903  0.00  0.00    -0.359 OA
ATOM     21  H   UNL     1     -31.126  26.521   3.807  0.00  0.00    +0.213 HD
ENDBRANCH   6  20
TORSDOF 4
ENDMDL
MODEL 8
REMARK VINA RESULT:      -5.0      3.464      6.836
REMARK  Name = 54127386
REMARK  4 active torsions:
REMARK  status: ('A' for Active; 'I' for Inactive)
REMARK    1  A    between atoms: C_2  and  N_9
REMARK    2  A    between atoms: C_3  and  O_18
REMARK    3  A    between atoms: C_4  and  N_14
REMARK    4  A    between atoms: C_6  and  O_20
REMARK                            x       y       z     vdW  Elec       q    Type
REMARK                         _______ _______ _______ _____ _____    ______ ____
ROOT
ATOM      1  O   UNL     1     -39.148  23.021   1.297  0.00  0.00    -0.330 OA
ATOM      2  C   UNL     1     -37.200  22.484   2.683  0.00  0.00    +0.128 C 
ATOM      3  C   UNL     1     -37.232  21.038   2.159  0.00  0.00    +0.153 C 
ATOM      4  C   UNL     1     -37.963  20.958   0.815  0.00  0.00    +0.157 C 
ATOM      5  C   UNL     1     -38.592  23.139   2.613  0.00  0.00    +0.138 C 
ATOM      6  C   UNL     1     -39.317  21.670   0.866  0.00  0.00    +0.253 C 
ATOM      7  C   UNL     1     -38.546  24.634   2.921  0.00  0.00    +0.034 C 
ENDROOT
BRANCH   2   9
ATOM      8  O   UNL     1     -34.740  23.721   3.605  0.00  0.00    -0.275 OA
ATOM      9  N   UNL     1     -36.676  22.500   4.032  0.00  0.00    -0.301 N 
ATOM     10  C   UNL     1     -35.487  23.121   4.373  0.00  0.00    +0.223 C 
ATOM     11  C   UNL     1     -35.188  23.008   5.845  0.00  0.00    +0.095 C 
ATOM     12  H   UNL     1     -37.188  22.048   4.740  0.00  0.00    +0.150 HD
ENDBRANCH   2   9
BRANCH   4  14
ATOM     13  O   UNL     1     -36.142  19.427  -0.848  0.00  0.00    -0.275 OA
ATOM     14  N   UNL     1     -38.112  19.589   0.382  0.00  0.00    -0.299 N 
ATOM     15  C   UNL     1     -37.184  18.941  -0.416  0.00  0.00    +0.223 C 
ATOM     16  C   UNL     1     -37.571  17.514  -0.699  0.00  0.00    +0.095 C 
ATOM     17  H   UNL     1     -38.913  19.092   0.666  0.00  0.00    +0.150 HD
ENDBRANCH   4  14
BRANCH   3  18
ATOM     18  O   UNL     1     -35.883  20.599   1.984  0.00  0.00    -0.381 OA
ATOM     19  H   UNL     1     -35.357  21.317   1.597  0.00  0.00    +0.210 HD
ENDBRANCH   3  18
BRANCH   6  20
ATOM     20  O   UNL     1     -40.283  20.973   1.651  0.00  0.00    -0.359 OA
ATOM     21  H   UNL     1     -40.263  20.030   1.425  0.00  0.00    +0.213 HD
ENDBRANCH   6  20
TORSDOF 4
ENDMDL
MODEL 9
REMARK VINA RESULT:      -5.0      2.058      3.623
REMARK  Name = 54127386
REMARK  4 active torsions:
REMARK  status: ('A' for Active; 'I' for Inactive)
REMARK    1  A    between atoms: C_2  and  N_9
REMARK    2  A    between atoms: C_3  and  O_18
REMARK    3  A    between atoms: C_4  and  N_14
REMARK    4  A    between atoms: C_6  and  O_20
REMARK                            x       y       z     vdW  Elec       q    Type
REMARK                         _______ _______ _______ _____ _____    ______ ____
ROOT
ATOM      1  O   UNL     1     -34.562  27.235   4.345  0.00  0.00    -0.330 OA
ATOM      2  C   UNL     1     -36.554  26.475   3.138  0.00  0.00    +0.128 C 
ATOM      3  C   UNL     1     -36.510  25.147   3.913  0.00  0.00    +0.153 C 
ATOM      4  C   UNL     1     -35.738  25.303   5.227  0.00  0.00    +0.157 C 
ATOM      5  C   UNL     1     -35.159  27.120   3.047  0.00  0.00    +0.138 C 
ATOM      6  C   UNL     1     -34.383  25.982   5.006  0.00  0.00    +0.253 C 
ATOM      7  C   UNL     1     -35.210  28.535   2.477  0.00  0.00    +0.034 C 
ENDROOT
BRANCH   2   9
ATOM      8  O   UNL     1     -39.348  26.660   2.369  0.00  0.00    -0.275 OA
ATOM      9  N   UNL     1     -37.122  26.253   1.825  0.00  0.00    -0.301 N 
ATOM     10  C   UNL     1     -38.475  26.366   1.558  0.00  0.00    +0.223 C 
ATOM     11  C   UNL     1     -38.791  26.108   0.108  0.00  0.00    +0.095 C 
ATOM     12  H   UNL     1     -36.517  26.010   1.088  0.00  0.00    +0.150 HD
ENDBRANCH   2   9
BRANCH   4  14
ATOM     13  O   UNL     1     -35.315  22.707   3.999  0.00  0.00    -0.275 OA
ATOM     14  N   UNL     1     -35.580  24.033   5.894  0.00  0.00    -0.299 N 
ATOM     15  C   UNL     1     -35.382  22.841   5.219  0.00  0.00    +0.223 C 
ATOM     16  C   UNL     1     -35.224  21.673   6.156  0.00  0.00    +0.095 C 
ATOM     17  H   UNL     1     -35.616  24.013   6.878  0.00  0.00    +0.150 HD
ENDBRANCH   4  14
BRANCH   3  18
ATOM     18  O   UNL     1     -37.855  24.759   4.206  0.00  0.00    -0.381 OA
ATOM     19  H   UNL     1     -37.874  23.822   4.457  0.00  0.00    +0.210 HD
ENDBRANCH   3  18
BRANCH   6  20
ATOM     20  O   UNL     1     -33.445  25.147   4.331  0.00  0.00    -0.359 OA
ATOM     21  H   UNL     1     -32.553  25.324   4.668  0.00  0.00    +0.213 HD
ENDBRANCH   6  20
TORSDOF 4
ENDMDL
