MODEL 1
REMARK VINA RESULT:      -6.3      0.000      0.000
REMARK  Name = 56641418
REMARK  7 active torsions:
REMARK  status: ('A' for Active; 'I' for Inactive)
REMARK    1  A    between atoms: C_3  and  C_12
REMARK    2  A    between atoms: C_3  and  O_29
REMARK    3  A    between atoms: C_5  and  C_32
REMARK    4  A    between atoms: C_6  and  C_26
REMARK    5  A    between atoms: C_18  and  O_24
REMARK    6  A    between atoms: C_32  and  C_33
REMARK    7  A    between atoms: C_33  and  C_35
REMARK                            x       y       z     vdW  Elec       q    Type
REMARK                         _______ _______ _______ _____ _____    ______ ____
ROOT
ATOM      1  O   UNL     1     -37.486  23.209   0.534  0.00  0.00    -0.446 OA
ATOM      2  O   UNL     1     -37.978  22.461  -1.602  0.00  0.00    -0.250 OA
ATOM      3  C   UNL     1     -37.287  21.127   1.532  0.00  0.00    +0.147 C 
ATOM      4  C   UNL     1     -38.324  21.052   0.395  0.00  0.00    +0.117 C 
ATOM      5  C   UNL     1     -37.677  22.586   1.812  0.00  0.00    +0.212 C 
ATOM      6  C   UNL     1     -39.200  22.511   2.107  0.00  0.00    +0.065 C 
ATOM      7  C   UNL     1     -39.659  21.450   1.072  0.00  0.00    +0.021 C 
ATOM      8  C   UNL     1     -37.920  22.285  -0.399  0.00  0.00    +0.319 C 
ATOM      9  C   UNL     1     -38.386  19.774  -0.408  0.00  0.00    +0.014 C 
ENDROOT
BRANCH   3  12
ATOM     10  O   UNL     1     -34.024  19.522   1.807  0.00  0.00    -0.456 OA
ATOM     11  O   UNL     1     -35.095  20.700   3.478  0.00  0.00    -0.250 OA
ATOM     12  C   UNL     1     -35.838  20.877   1.142  0.00  0.00    +0.119 C 
ATOM     13  C   UNL     1     -33.680  21.887   0.293  0.00  0.00    +0.029 C 
ATOM     14  C   UNL     1     -34.196  19.401   0.379  0.00  0.00    +0.137 C 
ATOM     15  C   UNL     1     -33.450  20.521  -0.372  0.00  0.00    +0.039 C 
ATOM     16  C   UNL     1     -35.174  22.134   0.509  0.00  0.00    +0.016 C 
ATOM     17  C   UNL     1     -35.691  19.663   0.227  0.00  0.00    +0.053 C 
ATOM     18  C   UNL     1     -32.835  22.814  -0.584  0.00  0.00    +0.088 C 
ATOM     19  C   UNL     1     -34.989  20.379   2.305  0.00  0.00    +0.318 C 
ATOM     20  C   UNL     1     -31.930  20.504  -0.464  0.00  0.00    +0.006 C 
ATOM     21  C   UNL     1     -31.561  21.964  -0.827  0.00  0.00    +0.027 C 
ATOM     22  C   UNL     1     -33.793  18.006  -0.073  0.00  0.00    +0.044 C 
ATOM     23  C   UNL     1     -32.534  24.160   0.060  0.00  0.00    +0.029 C 
BRANCH  18  24
ATOM     24  O   UNL     1     -33.470  23.041  -1.841  0.00  0.00    -0.387 OA
ATOM     25  H   UNL     1     -32.815  23.360  -2.481  0.00  0.00    +0.210 HD
ENDBRANCH  18  24
ENDBRANCH   3  12
BRANCH   6  26
ATOM     26  C   UNL     1     -39.923  23.815   1.982  0.00  0.00    -0.040 C 
ATOM     27  C   UNL     1     -40.714  24.013   0.723  0.00  0.00    +0.026 C 
ATOM     28  C   UNL     1     -39.867  24.751   2.940  0.00  0.00    -0.009 C 
ENDBRANCH   6  26
BRANCH   3  29
ATOM     29  O   UNL     1     -37.623  20.276   2.623  0.00  0.00    -0.382 OA
ATOM     30  H   UNL     1     -36.958  20.369   3.323  0.00  0.00    +0.210 HD
ENDBRANCH   3  29
BRANCH   5  32
ATOM     31  O   UNL     1     -36.991  22.918   4.063  0.00  0.00    -0.292 OA
ATOM     32  C   UNL     1     -36.871  23.249   2.883  0.00  0.00    +0.189 C 
BRANCH  32  33
ATOM     33  C   UNL     1     -35.875  24.315   2.433  0.00  0.00    +0.061 C 
ATOM     34  C   UNL     1     -36.535  25.684   2.574  0.00  0.00    +0.008 C 
BRANCH  33  35
ATOM     35  C   UNL     1     -34.569  24.257   3.240  0.00  0.00    +0.007 C 
ATOM     36  C   UNL     1     -33.836  25.592   3.261  0.00  0.00    +0.000 C 
ENDBRANCH  33  35
ENDBRANCH  32  33
ENDBRANCH   5  32
TORSDOF 7
ENDMDL
MODEL 2
REMARK VINA RESULT:      -6.2      2.137      4.822
REMARK  Name = 56641418
REMARK  7 active torsions:
REMARK  status: ('A' for Active; 'I' for Inactive)
REMARK    1  A    between atoms: C_3  and  C_12
REMARK    2  A    between atoms: C_3  and  O_29
REMARK    3  A    between atoms: C_5  and  C_32
REMARK    4  A    between atoms: C_6  and  C_26
REMARK    5  A    between atoms: C_18  and  O_24
REMARK    6  A    between atoms: C_32  and  C_33
REMARK    7  A    between atoms: C_33  and  C_35
REMARK                            x       y       z     vdW  Elec       q    Type
REMARK                         _______ _______ _______ _____ _____    ______ ____
ROOT
ATOM      1  O   UNL     1     -35.002  22.915  -0.177  0.00  0.00    -0.446 OA
ATOM      2  O   UNL     1     -32.986  21.864   0.271  0.00  0.00    -0.250 OA
ATOM      3  C   UNL     1     -36.270  21.797   1.409  0.00  0.00    +0.147 C 
ATOM      4  C   UNL     1     -35.156  20.865   0.895  0.00  0.00    +0.117 C 
ATOM      5  C   UNL     1     -36.352  22.480   0.036  0.00  0.00    +0.212 C 
ATOM      6  C   UNL     1     -36.659  21.311  -0.940  0.00  0.00    +0.065 C 
ATOM      7  C   UNL     1     -35.775  20.180  -0.348  0.00  0.00    +0.021 C 
ATOM      8  C   UNL     1     -34.202  21.902   0.320  0.00  0.00    +0.319 C 
ATOM      9  C   UNL     1     -34.532  19.913   1.888  0.00  0.00    +0.014 C 
ENDROOT
BRANCH   3  12
ATOM     10  O   UNL     1     -36.767  23.255   4.714  0.00  0.00    -0.456 OA
ATOM     11  O   UNL     1     -38.244  23.384   2.945  0.00  0.00    -0.250 OA
ATOM     12  C   UNL     1     -35.913  22.689   2.588  0.00  0.00    +0.119 C 
ATOM     13  C   UNL     1     -34.905  24.883   3.341  0.00  0.00    +0.029 C 
ATOM     14  C   UNL     1     -35.376  22.896   4.852  0.00  0.00    +0.137 C 
ATOM     15  C   UNL     1     -34.457  24.104   4.587  0.00  0.00    +0.039 C 
ATOM     16  C   UNL     1     -35.091  23.936   2.154  0.00  0.00    +0.016 C 
ATOM     17  C   UNL     1     -35.195  21.919   3.695  0.00  0.00    +0.053 C 
ATOM     18  C   UNL     1     -33.891  26.028   3.300  0.00  0.00    +0.088 C 
ATOM     19  C   UNL     1     -37.134  23.132   3.386  0.00  0.00    +0.318 C 
ATOM     20  C   UNL     1     -34.358  25.232   5.605  0.00  0.00    +0.006 C 
ATOM     21  C   UNL     1     -33.773  26.417   4.797  0.00  0.00    +0.027 C 
ATOM     22  C   UNL     1     -35.142  22.251   6.209  0.00  0.00    +0.044 C 
ATOM     23  C   UNL     1     -34.317  27.194   2.419  0.00  0.00    +0.029 C 
BRANCH  18  24
ATOM     24  O   UNL     1     -32.618  25.563   2.856  0.00  0.00    -0.387 OA
ATOM     25  H   UNL     1     -32.490  25.808   1.926  0.00  0.00    +0.210 HD
ENDBRANCH  18  24
ENDBRANCH   3  12
BRANCH   6  26
ATOM     26  C   UNL     1     -36.362  21.606  -2.376  0.00  0.00    -0.040 C 
ATOM     27  C   UNL     1     -37.489  22.184  -3.179  0.00  0.00    +0.026 C 
ATOM     28  C   UNL     1     -35.157  21.368  -2.915  0.00  0.00    -0.009 C 
ENDBRANCH   6  26
BRANCH   3  29
ATOM     29  O   UNL     1     -37.465  21.087   1.715  0.00  0.00    -0.382 OA
ATOM     30  H   UNL     1     -37.891  20.800   0.891  0.00  0.00    +0.210 HD
ENDBRANCH   3  29
BRANCH   5  32
ATOM     31  O   UNL     1     -38.535  23.420   0.061  0.00  0.00    -0.292 OA
ATOM     32  C   UNL     1     -37.323  23.616  -0.035  0.00  0.00    +0.189 C 
BRANCH  32  33
ATOM     33  C   UNL     1     -36.733  25.015  -0.189  0.00  0.00    +0.061 C 
ATOM     34  C   UNL     1     -36.759  25.391  -1.668  0.00  0.00    +0.008 C 
BRANCH  33  35
ATOM     35  C   UNL     1     -37.495  26.053   0.648  0.00  0.00    +0.007 C 
ATOM     36  C   UNL     1     -37.268  27.478   0.158  0.00  0.00    +0.000 C 
ENDBRANCH  33  35
ENDBRANCH  32  33
ENDBRANCH   5  32
TORSDOF 7
ENDMDL
MODEL 3
REMARK VINA RESULT:      -6.0      3.214      6.513
REMARK  Name = 56641418
REMARK  7 active torsions:
REMARK  status: ('A' for Active; 'I' for Inactive)
REMARK    1  A    between atoms: C_3  and  C_12
REMARK    2  A    between atoms: C_3  and  O_29
REMARK    3  A    between atoms: C_5  and  C_32
REMARK    4  A    between atoms: C_6  and  C_26
REMARK    5  A    between atoms: C_18  and  O_24
REMARK    6  A    between atoms: C_32  and  C_33
REMARK    7  A    between atoms: C_33  and  C_35
REMARK                            x       y       z     vdW  Elec       q    Type
REMARK                         _______ _______ _______ _____ _____    ______ ____
ROOT
ATOM      1  O   UNL     1     -36.443  28.119   2.149  0.00  0.00    -0.446 OA
ATOM      2  O   UNL     1     -34.943  29.530   3.210  0.00  0.00    -0.250 OA
ATOM      3  C   UNL     1     -34.879  26.720   1.165  0.00  0.00    +0.147 C 
ATOM      4  C   UNL     1     -34.297  28.142   1.273  0.00  0.00    +0.117 C 
ATOM      5  C   UNL     1     -36.291  27.296   0.984  0.00  0.00    +0.212 C 
ATOM      6  C   UNL     1     -36.158  28.215  -0.262  0.00  0.00    +0.065 C 
ATOM      7  C   UNL     1     -34.758  28.843  -0.029  0.00  0.00    +0.021 C 
ATOM      8  C   UNL     1     -35.209  28.709   2.351  0.00  0.00    +0.319 C 
ATOM      9  C   UNL     1     -32.819  28.269   1.563  0.00  0.00    +0.014 C 
ENDROOT
BRANCH   3  12
ATOM     10  O   UNL     1     -33.062  25.434   4.052  0.00  0.00    -0.456 OA
ATOM     11  O   UNL     1     -32.280  25.495   1.882  0.00  0.00    -0.250 OA
ATOM     12  C   UNL     1     -34.669  25.811   2.366  0.00  0.00    +0.119 C 
ATOM     13  C   UNL     1     -35.008  23.504   3.348  0.00  0.00    +0.029 C 
ATOM     14  C   UNL     1     -34.359  25.576   4.669  0.00  0.00    +0.137 C 
ATOM     15  C   UNL     1     -35.116  24.233   4.696  0.00  0.00    +0.039 C 
ATOM     16  C   UNL     1     -35.388  24.442   2.199  0.00  0.00    +0.016 C 
ATOM     17  C   UNL     1     -35.074  26.486   3.675  0.00  0.00    +0.053 C 
ATOM     18  C   UNL     1     -35.786  22.215   3.619  0.00  0.00    +0.088 C 
ATOM     19  C   UNL     1     -33.196  25.582   2.684  0.00  0.00    +0.318 C 
ATOM     20  C   UNL     1     -34.685  23.127   5.650  0.00  0.00    +0.006 C 
ATOM     21  C   UNL     1     -35.323  21.848   5.053  0.00  0.00    +0.027 C 
ATOM     22  C   UNL     1     -34.211  26.206   6.044  0.00  0.00    +0.044 C 
ATOM     23  C   UNL     1     -35.513  21.111   2.608  0.00  0.00    +0.029 C 
BRANCH  18  24
ATOM     24  O   UNL     1     -37.190  22.467   3.652  0.00  0.00    -0.387 OA
ATOM     25  H   UNL     1     -37.599  21.927   4.345  0.00  0.00    +0.210 HD
ENDBRANCH  18  24
ENDBRANCH   3  12
BRANCH   6  26
ATOM     26  C   UNL     1     -37.247  29.230  -0.405  0.00  0.00    -0.040 C 
ATOM     27  C   UNL     1     -36.925  30.617   0.069  0.00  0.00    +0.026 C 
ATOM     28  C   UNL     1     -38.443  28.919  -0.926  0.00  0.00    -0.009 C 
ENDBRANCH   6  26
BRANCH   3  29
ATOM     29  O   UNL     1     -34.433  26.045  -0.007  0.00  0.00    -0.382 OA
ATOM     30  H   UNL     1     -34.838  25.164  -0.046  0.00  0.00    +0.210 HD
ENDBRANCH   3  29
BRANCH   5  32
ATOM     31  O   UNL     1     -37.272  25.319   0.103  0.00  0.00    -0.292 OA
ATOM     32  C   UNL     1     -37.373  26.268   0.881  0.00  0.00    +0.189 C 
BRANCH  32  33
ATOM     33  C   UNL     1     -38.571  26.436   1.811  0.00  0.00    +0.061 C 
ATOM     34  C   UNL     1     -39.846  26.210   1.003  0.00  0.00    +0.008 C 
BRANCH  33  35
ATOM     35  C   UNL     1     -38.508  25.473   3.006  0.00  0.00    +0.007 C 
ATOM     36  C   UNL     1     -39.839  24.779   3.267  0.00  0.00    +0.000 C 
ENDBRANCH  33  35
ENDBRANCH  32  33
ENDBRANCH   5  32
TORSDOF 7
ENDMDL
MODEL 4
REMARK VINA RESULT:      -5.8      2.438      5.506
REMARK  Name = 56641418
REMARK  7 active torsions:
REMARK  status: ('A' for Active; 'I' for Inactive)
REMARK    1  A    between atoms: C_3  and  C_12
REMARK    2  A    between atoms: C_3  and  O_29
REMARK    3  A    between atoms: C_5  and  C_32
REMARK    4  A    between atoms: C_6  and  C_26
REMARK    5  A    between atoms: C_18  and  O_24
REMARK    6  A    between atoms: C_32  and  C_33
REMARK    7  A    between atoms: C_33  and  C_35
REMARK                            x       y       z     vdW  Elec       q    Type
REMARK                         _______ _______ _______ _____ _____    ______ ____
ROOT
ATOM      1  O   UNL     1     -34.626  25.234   2.154  0.00  0.00    -0.446 OA
ATOM      2  O   UNL     1     -34.186  25.493  -0.105  0.00  0.00    -0.250 OA
ATOM      3  C   UNL     1     -36.842  25.911   2.097  0.00  0.00    +0.147 C 
ATOM      4  C   UNL     1     -36.048  26.665   1.013  0.00  0.00    +0.117 C 
ATOM      5  C   UNL     1     -35.598  25.868   2.997  0.00  0.00    +0.212 C 
ATOM      6  C   UNL     1     -35.212  27.363   3.167  0.00  0.00    +0.065 C 
ATOM      7  C   UNL     1     -35.495  27.914   1.744  0.00  0.00    +0.021 C 
ATOM      8  C   UNL     1     -34.848  25.739   0.886  0.00  0.00    +0.319 C 
ATOM      9  C   UNL     1     -36.757  26.965  -0.288  0.00  0.00    +0.014 C 
ENDROOT
BRANCH   3  12
ATOM     10  O   UNL     1     -39.499  23.436   1.777  0.00  0.00    -0.456 OA
ATOM     11  O   UNL     1     -38.759  24.375   3.750  0.00  0.00    -0.250 OA
ATOM     12  C   UNL     1     -37.432  24.570   1.691  0.00  0.00    +0.119 C 
ATOM     13  C   UNL     1     -37.037  22.084   1.440  0.00  0.00    +0.029 C 
ATOM     14  C   UNL     1     -38.985  23.364   0.430  0.00  0.00    +0.137 C 
ATOM     15  C   UNL     1     -38.019  22.176   0.262  0.00  0.00    +0.039 C 
ATOM     16  C   UNL     1     -36.365  23.437   1.686  0.00  0.00    +0.016 C 
ATOM     17  C   UNL     1     -38.158  24.643   0.349  0.00  0.00    +0.053 C 
ATOM     18  C   UNL     1     -36.222  20.840   1.079  0.00  0.00    +0.088 C 
ATOM     19  C   UNL     1     -38.615  24.157   2.558  0.00  0.00    +0.318 C 
ATOM     20  C   UNL     1     -38.553  20.750   0.228  0.00  0.00    +0.006 C 
ATOM     21  C   UNL     1     -37.312  19.877   0.542  0.00  0.00    +0.027 C 
ATOM     22  C   UNL     1     -40.137  23.344  -0.562  0.00  0.00    +0.044 C 
ATOM     23  C   UNL     1     -35.443  20.257   2.250  0.00  0.00    +0.029 C 
BRANCH  18  24
ATOM     24  O   UNL     1     -35.309  21.121   0.019  0.00  0.00    -0.387 OA
ATOM     25  H   UNL     1     -34.867  21.967   0.189  0.00  0.00    +0.210 HD
ENDBRANCH  18  24
ENDBRANCH   3  12
BRANCH   6  26
ATOM     26  C   UNL     1     -33.807  27.593   3.624  0.00  0.00    -0.040 C 
ATOM     27  C   UNL     1     -32.855  28.123   2.593  0.00  0.00    +0.026 C 
ATOM     28  C   UNL     1     -33.420  27.342   4.883  0.00  0.00    -0.009 C 
ENDBRANCH   6  26
BRANCH   3  29
ATOM     29  O   UNL     1     -37.872  26.715   2.663  0.00  0.00    -0.382 OA
ATOM     30  H   UNL     1     -37.913  26.560   3.620  0.00  0.00    +0.210 HD
ENDBRANCH   3  29
BRANCH   5  32
ATOM     31  O   UNL     1     -36.535  25.566   5.161  0.00  0.00    -0.292 OA
ATOM     32  C   UNL     1     -35.790  25.128   4.284  0.00  0.00    +0.189 C 
BRANCH  32  33
ATOM     33  C   UNL     1     -35.054  23.799   4.428  0.00  0.00    +0.061 C 
ATOM     34  C   UNL     1     -33.789  24.033   5.250  0.00  0.00    +0.008 C 
BRANCH  33  35
ATOM     35  C   UNL     1     -35.935  22.724   5.082  0.00  0.00    +0.007 C 
ATOM     36  C   UNL     1     -35.295  22.125   6.328  0.00  0.00    +0.000 C 
ENDBRANCH  33  35
ENDBRANCH  32  33
ENDBRANCH   5  32
TORSDOF 7
ENDMDL
MODEL 5
REMARK VINA RESULT:      -5.5      1.920      5.122
REMARK  Name = 56641418
REMARK  7 active torsions:
REMARK  status: ('A' for Active; 'I' for Inactive)
REMARK    1  A    between atoms: C_3  and  C_12
REMARK    2  A    between atoms: C_3  and  O_29
REMARK    3  A    between atoms: C_5  and  C_32
REMARK    4  A    between atoms: C_6  and  C_26
REMARK    5  A    between atoms: C_18  and  O_24
REMARK    6  A    between atoms: C_32  and  C_33
REMARK    7  A    between atoms: C_33  and  C_35
REMARK                            x       y       z     vdW  Elec       q    Type
REMARK                         _______ _______ _______ _____ _____    ______ ____
ROOT
ATOM      1  O   UNL     1     -35.283  21.419   0.922  0.00  0.00    -0.446 OA
ATOM      2  O   UNL     1     -36.320  19.877   2.305  0.00  0.00    -0.250 OA
ATOM      3  C   UNL     1     -36.846  23.114   1.154  0.00  0.00    +0.147 C 
ATOM      4  C   UNL     1     -37.551  21.749   1.269  0.00  0.00    +0.117 C 
ATOM      5  C   UNL     1     -35.822  22.519   0.176  0.00  0.00    +0.212 C 
ATOM      6  C   UNL     1     -36.696  21.958  -0.979  0.00  0.00    +0.065 C 
ATOM      7  C   UNL     1     -37.902  21.377  -0.193  0.00  0.00    +0.021 C 
ATOM      8  C   UNL     1     -36.354  20.872   1.604  0.00  0.00    +0.319 C 
ATOM      9  C   UNL     1     -38.707  21.641   2.236  0.00  0.00    +0.014 C 
ENDROOT
BRANCH   3  12
ATOM     10  O   UNL     1     -36.843  23.795   4.736  0.00  0.00    -0.456 OA
ATOM     11  O   UNL     1     -38.509  24.383   3.251  0.00  0.00    -0.250 OA
ATOM     12  C   UNL     1     -36.291  23.698   2.444  0.00  0.00    +0.119 C 
ATOM     13  C   UNL     1     -35.053  25.621   3.525  0.00  0.00    +0.029 C 
ATOM     14  C   UNL     1     -35.473  23.360   4.606  0.00  0.00    +0.137 C 
ATOM     15  C   UNL     1     -34.513  24.560   4.496  0.00  0.00    +0.039 C 
ATOM     16  C   UNL     1     -35.444  24.978   2.192  0.00  0.00    +0.016 C 
ATOM     17  C   UNL     1     -35.499  22.667   3.247  0.00  0.00    +0.053 C 
ATOM     18  C   UNL     1     -33.975  26.704   3.605  0.00  0.00    +0.088 C 
ATOM     19  C   UNL     1     -37.374  23.993   3.474  0.00  0.00    +0.318 C 
ATOM     20  C   UNL     1     -34.216  25.421   5.717  0.00  0.00    +0.006 C 
ATOM     21  C   UNL     1     -33.653  26.735   5.121  0.00  0.00    +0.027 C 
ATOM     22  C   UNL     1     -35.122  22.414   5.742  0.00  0.00    +0.044 C 
ATOM     23  C   UNL     1     -34.425  28.056   3.068  0.00  0.00    +0.029 C 
BRANCH  18  24
ATOM     24  O   UNL     1     -32.800  26.303   2.904  0.00  0.00    -0.387 OA
ATOM     25  H   UNL     1     -32.263  25.730   3.472  0.00  0.00    +0.210 HD
ENDBRANCH  18  24
ENDBRANCH   3  12
BRANCH   6  26
ATOM     26  C   UNL     1     -36.010  20.950  -1.844  0.00  0.00    -0.040 C 
ATOM     27  C   UNL     1     -35.315  21.486  -3.061  0.00  0.00    +0.026 C 
ATOM     28  C   UNL     1     -36.014  19.641  -1.549  0.00  0.00    -0.009 C 
ENDBRANCH   6  26
BRANCH   3  29
ATOM     29  O   UNL     1     -37.668  24.091   0.523  0.00  0.00    -0.382 OA
ATOM     30  H   UNL     1     -38.027  24.693   1.194  0.00  0.00    +0.210 HD
ENDBRANCH   3  29
BRANCH   5  32
ATOM     31  O   UNL     1     -35.028  24.449  -0.962  0.00  0.00    -0.292 OA
ATOM     32  C   UNL     1     -34.756  23.474  -0.262  0.00  0.00    +0.189 C 
BRANCH  32  33
ATOM     33  C   UNL     1     -33.340  23.197   0.236  0.00  0.00    +0.061 C 
ATOM     34  C   UNL     1     -32.783  22.000  -0.531  0.00  0.00    +0.008 C 
BRANCH  33  35
ATOM     35  C   UNL     1     -32.426  24.420   0.071  0.00  0.00    +0.007 C 
ATOM     36  C   UNL     1     -31.438  24.259  -1.078  0.00  0.00    +0.000 C 
ENDBRANCH  33  35
ENDBRANCH  32  33
ENDBRANCH   5  32
TORSDOF 7
ENDMDL
MODEL 6
REMARK VINA RESULT:      -5.5      1.759      4.250
REMARK  Name = 56641418
REMARK  7 active torsions:
REMARK  status: ('A' for Active; 'I' for Inactive)
REMARK    1  A    between atoms: C_3  and  C_12
REMARK    2  A    between atoms: C_3  and  O_29
REMARK    3  A    between atoms: C_5  and  C_32
REMARK    4  A    between atoms: C_6  and  C_26
REMARK    5  A    between atoms: C_18  and  O_24
REMARK    6  A    between atoms: C_32  and  C_33
REMARK    7  A    between atoms: C_33  and  C_35
REMARK                            x       y       z     vdW  Elec       q    Type
REMARK                         _______ _______ _______ _____ _____    ______ ____
ROOT
ATOM      1  O   UNL     1     -38.243  22.524  -0.739  0.00  0.00    -0.446 OA
ATOM      2  O   UNL     1     -36.690  22.426  -2.455  0.00  0.00    -0.250 OA
ATOM      3  C   UNL     1     -37.218  20.994   0.667  0.00  0.00    +0.147 C 
ATOM      4  C   UNL     1     -36.932  20.613  -0.798  0.00  0.00    +0.117 C 
ATOM      5  C   UNL     1     -38.587  21.563   0.268  0.00  0.00    +0.212 C 
ATOM      6  C   UNL     1     -39.302  20.363  -0.411  0.00  0.00    +0.065 C 
ATOM      7  C   UNL     1     -38.130  19.717  -1.198  0.00  0.00    +0.021 C 
ATOM      8  C   UNL     1     -37.219  21.948  -1.468  0.00  0.00    +0.319 C 
ATOM      9  C   UNL     1     -35.577  20.024  -1.113  0.00  0.00    +0.014 C 
ENDROOT
BRANCH   3  12
ATOM     10  O   UNL     1     -34.034  22.737   1.012  0.00  0.00    -0.456 OA
ATOM     11  O   UNL     1     -34.330  20.449   1.038  0.00  0.00    -0.250 OA
ATOM     12  C   UNL     1     -36.243  21.966   1.314  0.00  0.00    +0.119 C 
ATOM     13  C   UNL     1     -35.409  22.992   3.471  0.00  0.00    +0.029 C 
ATOM     14  C   UNL     1     -34.910  23.877   1.142  0.00  0.00    +0.137 C 
ATOM     15  C   UNL     1     -35.136  24.243   2.622  0.00  0.00    +0.039 C 
ATOM     16  C   UNL     1     -36.513  22.143   2.836  0.00  0.00    +0.016 C 
ATOM     17  C   UNL     1     -36.222  23.318   0.602  0.00  0.00    +0.053 C 
ATOM     18  C   UNL     1     -35.563  23.586   4.873  0.00  0.00    +0.088 C 
ATOM     19  C   UNL     1     -34.786  21.579   1.093  0.00  0.00    +0.318 C 
ATOM     20  C   UNL     1     -34.022  24.895   3.431  0.00  0.00    +0.006 C 
ATOM     21  C   UNL     1     -34.437  24.651   4.903  0.00  0.00    +0.027 C 
ATOM     22  C   UNL     1     -34.377  25.035   0.314  0.00  0.00    +0.044 C 
ATOM     23  C   UNL     1     -35.437  22.560   5.990  0.00  0.00    +0.029 C 
BRANCH  18  24
ATOM     24  O   UNL     1     -36.816  24.253   5.006  0.00  0.00    -0.387 OA
ATOM     25  H   UNL     1     -37.358  24.085   4.220  0.00  0.00    +0.210 HD
ENDBRANCH  18  24
ENDBRANCH   3  12
BRANCH   6  26
ATOM     26  C   UNL     1     -40.462  20.740  -1.277  0.00  0.00    -0.040 C 
ATOM     27  C   UNL     1     -40.187  20.830  -2.749  0.00  0.00    +0.026 C 
ATOM     28  C   UNL     1     -41.678  20.983  -0.767  0.00  0.00    -0.009 C 
ENDBRANCH   6  26
BRANCH   3  29
ATOM     29  O   UNL     1     -37.348  19.849   1.504  0.00  0.00    -0.382 OA
ATOM     30  H   UNL     1     -38.246  19.817   1.870  0.00  0.00    +0.210 HD
ENDBRANCH   3  29
BRANCH   5  32
ATOM     31  O   UNL     1     -39.786  21.495   2.320  0.00  0.00    -0.292 OA
ATOM     32  C   UNL     1     -39.353  22.182   1.394  0.00  0.00    +0.189 C 
BRANCH  32  33
ATOM     33  C   UNL     1     -39.530  23.698   1.352  0.00  0.00    +0.061 C 
ATOM     34  C   UNL     1     -40.939  24.007   0.854  0.00  0.00    +0.008 C 
BRANCH  33  35
ATOM     35  C   UNL     1     -39.287  24.341   2.726  0.00  0.00    +0.007 C 
ATOM     36  C   UNL     1     -38.656  25.724   2.619  0.00  0.00    +0.000 C 
ENDBRANCH  33  35
ENDBRANCH  32  33
ENDBRANCH   5  32
TORSDOF 7
ENDMDL
MODEL 7
REMARK VINA RESULT:      -5.4      2.632      5.852
REMARK  Name = 56641418
REMARK  7 active torsions:
REMARK  status: ('A' for Active; 'I' for Inactive)
REMARK    1  A    between atoms: C_3  and  C_12
REMARK    2  A    between atoms: C_3  and  O_29
REMARK    3  A    between atoms: C_5  and  C_32
REMARK    4  A    between atoms: C_6  and  C_26
REMARK    5  A    between atoms: C_18  and  O_24
REMARK    6  A    between atoms: C_32  and  C_33
REMARK    7  A    between atoms: C_33  and  C_35
REMARK                            x       y       z     vdW  Elec       q    Type
REMARK                         _______ _______ _______ _____ _____    ______ ____
ROOT
ATOM      1  O   UNL     1     -38.446  24.699   1.677  0.00  0.00    -0.446 OA
ATOM      2  O   UNL     1     -39.491  26.658   2.338  0.00  0.00    -0.250 OA
ATOM      3  C   UNL     1     -36.885  25.665   0.264  0.00  0.00    +0.147 C 
ATOM      4  C   UNL     1     -38.173  26.509   0.256  0.00  0.00    +0.117 C 
ATOM      5  C   UNL     1     -37.706  24.387   0.489  0.00  0.00    +0.212 C 
ATOM      6  C   UNL     1     -38.685  24.360  -0.716  0.00  0.00    +0.065 C 
ATOM      7  C   UNL     1     -39.044  25.864  -0.851  0.00  0.00    +0.021 C 
ATOM      8  C   UNL     1     -38.799  26.030   1.557  0.00  0.00    +0.319 C 
ATOM      9  C   UNL     1     -38.023  28.008   0.139  0.00  0.00    +0.014 C 
ENDROOT
BRANCH   3  12
ATOM     10  O   UNL     1     -33.564  26.529   1.496  0.00  0.00    -0.456 OA
ATOM     11  O   UNL     1     -34.106  24.640   0.288  0.00  0.00    -0.250 OA
ATOM     12  C   UNL     1     -35.859  26.008   1.333  0.00  0.00    +0.119 C 
ATOM     13  C   UNL     1     -35.074  25.610   3.705  0.00  0.00    +0.029 C 
ATOM     14  C   UNL     1     -34.319  27.526   2.217  0.00  0.00    +0.137 C 
ATOM     15  C   UNL     1     -34.608  27.073   3.661  0.00  0.00    +0.039 C 
ATOM     16  C   UNL     1     -36.215  25.380   2.711  0.00  0.00    +0.016 C 
ATOM     17  C   UNL     1     -35.643  27.515   1.459  0.00  0.00    +0.053 C 
ATOM     18  C   UNL     1     -35.262  25.380   5.206  0.00  0.00    +0.088 C 
ATOM     19  C   UNL     1     -34.440  25.615   0.941  0.00  0.00    +0.318 C 
ATOM     20  C   UNL     1     -33.491  27.044   4.696  0.00  0.00    +0.006 C 
ATOM     21  C   UNL     1     -34.032  26.110   5.806  0.00  0.00    +0.027 C 
ATOM     22  C   UNL     1     -33.608  28.867   2.141  0.00  0.00    +0.044 C 
ATOM     23  C   UNL     1     -35.326  23.910   5.597  0.00  0.00    +0.029 C 
BRANCH  18  24
ATOM     24  O   UNL     1     -36.442  26.029   5.675  0.00  0.00    -0.387 OA
ATOM     25  H   UNL     1     -37.118  25.364   5.877  0.00  0.00    +0.210 HD
ENDBRANCH  18  24
ENDBRANCH   3  12
BRANCH   6  26
ATOM     26  C   UNL     1     -39.880  23.479  -0.527  0.00  0.00    -0.040 C 
ATOM     27  C   UNL     1     -39.749  22.072  -1.030  0.00  0.00    +0.026 C 
ATOM     28  C   UNL     1     -41.002  23.922   0.059  0.00  0.00    -0.009 C 
ENDBRANCH   6  26
BRANCH   3  29
ATOM     29  O   UNL     1     -36.240  25.658  -1.006  0.00  0.00    -0.382 OA
ATOM     30  H   UNL     1     -36.092  24.741  -1.288  0.00  0.00    +0.210 HD
ENDBRANCH   3  29
BRANCH   5  32
ATOM     31  O   UNL     1     -36.203  22.713  -0.278  0.00  0.00    -0.292 OA
ATOM     32  C   UNL     1     -36.888  23.144   0.649  0.00  0.00    +0.189 C 
BRANCH  32  33
ATOM     33  C   UNL     1     -36.918  22.475   2.021  0.00  0.00    +0.061 C 
ATOM     34  C   UNL     1     -37.921  21.326   1.976  0.00  0.00    +0.008 C 
BRANCH  33  35
ATOM     35  C   UNL     1     -35.530  21.969   2.441  0.00  0.00    +0.007 C 
ATOM     36  C   UNL     1     -35.417  20.451   2.371  0.00  0.00    +0.000 C 
ENDBRANCH  33  35
ENDBRANCH  32  33
ENDBRANCH   5  32
TORSDOF 7
ENDMDL
MODEL 8
REMARK VINA RESULT:      -5.4      9.322     13.659
REMARK  Name = 56641418
REMARK  7 active torsions:
REMARK  status: ('A' for Active; 'I' for Inactive)
REMARK    1  A    between atoms: C_3  and  C_12
REMARK    2  A    between atoms: C_3  and  O_29
REMARK    3  A    between atoms: C_5  and  C_32
REMARK    4  A    between atoms: C_6  and  C_26
REMARK    5  A    between atoms: C_18  and  O_24
REMARK    6  A    between atoms: C_32  and  C_33
REMARK    7  A    between atoms: C_33  and  C_35
REMARK                            x       y       z     vdW  Elec       q    Type
REMARK                         _______ _______ _______ _____ _____    ______ ____
ROOT
ATOM      1  O   UNL     1     -46.455  30.117   2.715  0.00  0.00    -0.446 OA
ATOM      2  O   UNL     1     -48.415  31.051   3.520  0.00  0.00    -0.250 OA
ATOM      3  C   UNL     1     -44.994  31.276   4.091  0.00  0.00    +0.147 C 
ATOM      4  C   UNL     1     -46.225  32.155   3.795  0.00  0.00    +0.117 C 
ATOM      5  C   UNL     1     -45.111  30.620   2.708  0.00  0.00    +0.212 C 
ATOM      6  C   UNL     1     -45.033  31.819   1.722  0.00  0.00    +0.065 C 
ATOM      7  C   UNL     1     -45.859  32.891   2.482  0.00  0.00    +0.021 C 
ATOM      8  C   UNL     1     -47.208  31.078   3.363  0.00  0.00    +0.319 C 
ATOM      9  C   UNL     1     -46.719  33.058   4.901  0.00  0.00    +0.014 C 
ENDROOT
BRANCH   3  12
ATOM     10  O   UNL     1     -43.875  29.801   7.231  0.00  0.00    -0.456 OA
ATOM     11  O   UNL     1     -42.711  29.780   5.239  0.00  0.00    -0.250 OA
ATOM     12  C   UNL     1     -45.101  30.349   5.292  0.00  0.00    +0.119 C 
ATOM     13  C   UNL     1     -45.852  28.091   6.150  0.00  0.00    +0.029 C 
ATOM     14  C   UNL     1     -45.240  30.080   7.608  0.00  0.00    +0.137 C 
ATOM     15  C   UNL     1     -46.125  28.826   7.471  0.00  0.00    +0.039 C 
ATOM     16  C   UNL     1     -45.918  29.064   4.971  0.00  0.00    +0.016 C 
ATOM     17  C   UNL     1     -45.663  31.062   6.520  0.00  0.00    +0.053 C 
ATOM     18  C   UNL     1     -46.797  26.892   6.251  0.00  0.00    +0.088 C 
ATOM     19  C   UNL     1     -43.742  29.964   5.864  0.00  0.00    +0.318 C 
ATOM     20  C   UNL     1     -45.993  27.679   8.464  0.00  0.00    +0.006 C 
ATOM     21  C   UNL     1     -46.642  26.476   7.736  0.00  0.00    +0.027 C 
ATOM     22  C   UNL     1     -45.277  30.690   9.000  0.00  0.00    +0.044 C 
ATOM     23  C   UNL     1     -46.463  25.765   5.283  0.00  0.00    +0.029 C 
BRANCH  18  24
ATOM     24  O   UNL     1     -48.149  27.292   6.035  0.00  0.00    -0.387 OA
ATOM     25  H   UNL     1     -48.171  28.043   5.423  0.00  0.00    +0.210 HD
ENDBRANCH  18  24
ENDBRANCH   3  12
BRANCH   6  26
ATOM     26  C   UNL     1     -45.554  31.530   0.350  0.00  0.00    -0.040 C 
ATOM     27  C   UNL     1     -44.556  31.002  -0.638  0.00  0.00    +0.026 C 
ATOM     28  C   UNL     1     -46.839  31.732   0.022  0.00  0.00    -0.009 C 
ENDBRANCH   6  26
BRANCH   3  29
ATOM     29  O   UNL     1     -43.801  32.045   4.208  0.00  0.00    -0.382 OA
ATOM     30  H   UNL     1     -43.809  32.756   3.548  0.00  0.00    +0.210 HD
ENDBRANCH   3  29
BRANCH   5  32
ATOM     31  O   UNL     1     -42.913  29.800   2.332  0.00  0.00    -0.292 OA
ATOM     32  C   UNL     1     -44.110  29.539   2.447  0.00  0.00    +0.189 C 
BRANCH  32  33
ATOM     33  C   UNL     1     -44.645  28.111   2.376  0.00  0.00    +0.061 C 
ATOM     34  C   UNL     1     -44.803  27.727   0.907  0.00  0.00    +0.008 C 
BRANCH  33  35
ATOM     35  C   UNL     1     -43.724  27.118   3.101  0.00  0.00    +0.007 C 
ATOM     36  C   UNL     1     -42.948  26.231   2.135  0.00  0.00    +0.000 C 
ENDBRANCH  33  35
ENDBRANCH  32  33
ENDBRANCH   5  32
TORSDOF 7
ENDMDL
MODEL 9
REMARK VINA RESULT:      -5.4      2.253      5.624
REMARK  Name = 56641418
REMARK  7 active torsions:
REMARK  status: ('A' for Active; 'I' for Inactive)
REMARK    1  A    between atoms: C_3  and  C_12
REMARK    2  A    between atoms: C_3  and  O_29
REMARK    3  A    between atoms: C_5  and  C_32
REMARK    4  A    between atoms: C_6  and  C_26
REMARK    5  A    between atoms: C_18  and  O_24
REMARK    6  A    between atoms: C_32  and  C_33
REMARK    7  A    between atoms: C_33  and  C_35
REMARK                            x       y       z     vdW  Elec       q    Type
REMARK                         _______ _______ _______ _____ _____    ______ ____
ROOT
ATOM      1  O   UNL     1     -34.098  24.784   2.702  0.00  0.00    -0.446 OA
ATOM      2  O   UNL     1     -32.743  25.533   0.978  0.00  0.00    -0.250 OA
ATOM      3  C   UNL     1     -36.100  25.608   1.876  0.00  0.00    +0.147 C 
ATOM      4  C   UNL     1     -34.949  26.538   1.447  0.00  0.00    +0.117 C 
ATOM      5  C   UNL     1     -35.361  25.268   3.179  0.00  0.00    +0.212 C 
ATOM      6  C   UNL     1     -35.142  26.651   3.851  0.00  0.00    +0.065 C 
ATOM      7  C   UNL     1     -34.811  27.539   2.622  0.00  0.00    +0.021 C 
ATOM      8  C   UNL     1     -33.775  25.586   1.623  0.00  0.00    +0.319 C 
ATOM      9  C   UNL     1     -35.044  27.182   0.084  0.00  0.00    +0.014 C 
ENDROOT
BRANCH   3  12
ATOM     10  O   UNL     1     -36.292  23.918  -1.349  0.00  0.00    -0.456 OA
ATOM     11  O   UNL     1     -37.340  25.899  -0.798  0.00  0.00    -0.250 OA
ATOM     12  C   UNL     1     -36.407  24.443   0.948  0.00  0.00    +0.119 C 
ATOM     13  C   UNL     1     -37.937  22.489   0.455  0.00  0.00    +0.029 C 
ATOM     14  C   UNL     1     -35.655  22.862  -0.599  0.00  0.00    +0.137 C 
ATOM     15  C   UNL     1     -36.682  21.817  -0.123  0.00  0.00    +0.039 C 
ATOM     16  C   UNL     1     -37.550  23.541   1.497  0.00  0.00    +0.016 C 
ATOM     17  C   UNL     1     -35.162  23.616   0.633  0.00  0.00    +0.053 C 
ATOM     18  C   UNL     1     -38.805  21.283   0.820  0.00  0.00    +0.088 C 
ATOM     19  C   UNL     1     -36.740  24.888  -0.471  0.00  0.00    +0.318 C 
ATOM     20  C   UNL     1     -37.312  20.851  -1.117  0.00  0.00    +0.006 C 
ATOM     21  C   UNL     1     -38.581  20.340  -0.390  0.00  0.00    +0.027 C 
ATOM     22  C   UNL     1     -34.522  22.261  -1.414  0.00  0.00    +0.044 C 
ATOM     23  C   UNL     1     -40.272  21.628   1.037  0.00  0.00    +0.029 C 
BRANCH  18  24
ATOM     24  O   UNL     1     -38.310  20.637   1.991  0.00  0.00    -0.387 OA
ATOM     25  H   UNL     1     -37.618  20.006   1.744  0.00  0.00    +0.210 HD
ENDBRANCH  18  24
ENDBRANCH   3  12
BRANCH   6  26
ATOM     26  C   UNL     1     -34.078  26.671   4.902  0.00  0.00    -0.040 C 
ATOM     27  C   UNL     1     -32.829  27.430   4.563  0.00  0.00    +0.026 C 
ATOM     28  C   UNL     1     -34.230  26.045   6.078  0.00  0.00    -0.009 C 
ENDBRANCH   6  26
BRANCH   3  29
ATOM     29  O   UNL     1     -37.304  26.326   2.127  0.00  0.00    -0.382 OA
ATOM     30  H   UNL     1     -37.291  27.161   1.634  0.00  0.00    +0.210 HD
ENDBRANCH   3  29
BRANCH   5  32
ATOM     31  O   UNL     1     -37.199  24.464   4.452  0.00  0.00    -0.292 OA
ATOM     32  C   UNL     1     -36.056  24.263   4.042  0.00  0.00    +0.189 C 
BRANCH  32  33
ATOM     33  C   UNL     1     -35.294  22.976   4.346  0.00  0.00    +0.061 C 
ATOM     34  C   UNL     1     -35.204  22.814   5.861  0.00  0.00    +0.008 C 
BRANCH  33  35
ATOM     35  C   UNL     1     -35.964  21.750   3.709  0.00  0.00    +0.007 C 
ATOM     36  C   UNL     1     -34.971  20.859   2.973  0.00  0.00    +0.000 C 
ENDBRANCH  33  35
ENDBRANCH  32  33
ENDBRANCH   5  32
TORSDOF 7
ENDMDL
