MODEL 1
REMARK VINA RESULT:      -6.4      0.000      0.000
REMARK  Name = 195460
REMARK  6 active torsions:
REMARK  status: ('A' for Active; 'I' for Inactive)
REMARK    1  A    between atoms: C_9  and  C_28
REMARK    2  A    between atoms: C_12  and  O_21
REMARK    3  A    between atoms: C_19  and  O_23
REMARK    4  A    between atoms: C_20  and  O_25
REMARK    5  A    between atoms: C_28  and  C_29
REMARK    6  A    between atoms: C_29  and  O_30
REMARK                            x       y       z     vdW  Elec       q    Type
REMARK                         _______ _______ _______ _____ _____    ______ ____
ROOT
ATOM      1  O   UNL     1     -34.662  24.158   5.318  0.00  0.00    -0.333 OA
ATOM      2  C   UNL     1     -35.757  23.823   3.231  0.00  0.00    +0.061 C 
ATOM      3  C   UNL     1     -33.664  25.755   3.833  0.00  0.00    +0.027 C 
ATOM      4  C   UNL     1     -34.610  24.050   2.190  0.00  0.00    +0.005 C 
ATOM      5  C   UNL     1     -33.926  25.429   2.336  0.00  0.00    +0.003 C 
ATOM      6  C   UNL     1     -33.066  27.197   4.013  0.00  0.00    +0.005 C 
ATOM      7  C   UNL     1     -34.923  25.436   4.686  0.00  0.00    +0.118 C 
ATOM      8  C   UNL     1     -36.163  25.165   3.846  0.00  0.00    +0.035 C 
ATOM      9  C   UNL     1     -36.883  23.141   2.454  0.00  0.00    +0.065 C 
ATOM     10  C   UNL     1     -31.760  27.263   3.153  0.00  0.00    +0.003 C 
ATOM     11  C   UNL     1     -35.273  23.869   0.809  0.00  0.00    +0.001 C 
ATOM     12  C   UNL     1     -35.254  23.125   4.508  0.00  0.00    +0.232 C 
ATOM     13  C   UNL     1     -32.636  25.548   1.514  0.00  0.00    +0.000 C 
ATOM     14  C   UNL     1     -36.774  23.753   1.063  0.00  0.00    +0.008 C 
ATOM     15  C   UNL     1     -31.999  26.931   1.673  0.00  0.00    +0.000 C 
ATOM     16  C   UNL     1     -32.659  27.442   5.496  0.00  0.00    +0.032 C 
ATOM     17  C   UNL     1     -31.000  28.591   3.321  0.00  0.00    +0.032 C 
ATOM     18  C   UNL     1     -34.101  28.272   3.599  0.00  0.00    +0.000 C 
ATOM     19  C   UNL     1     -31.871  28.743   5.703  0.00  0.00    +0.137 C 
ATOM     20  C   UNL     1     -30.651  28.862   4.787  0.00  0.00    +0.137 C 
ENDROOT
BRANCH  12  21
ATOM     21  O   UNL     1     -36.341  22.532   5.213  0.00  0.00    -0.360 OA
ATOM     22  H   UNL     1     -36.189  21.577   5.299  0.00  0.00    +0.213 HD
ENDBRANCH  12  21
BRANCH  19  23
ATOM     23  O   UNL     1     -31.447  28.836   7.061  0.00  0.00    -0.382 OA
ATOM     24  H   UNL     1     -32.081  29.374   7.562  0.00  0.00    +0.210 HD
ENDBRANCH  19  23
BRANCH  20  25
ATOM     25  O   UNL     1     -29.619  27.963   5.201  0.00  0.00    -0.382 OA
ATOM     26  H   UNL     1     -29.934  27.431   5.948  0.00  0.00    +0.210 HD
ENDBRANCH  20  25
BRANCH   9  28
ATOM     27  O   UNL     1     -35.788  21.070   2.904  0.00  0.00    -0.293 OA
ATOM     28  C   UNL     1     -36.724  21.651   2.356  0.00  0.00    +0.180 C 
BRANCH  28  29
ATOM     29  C   UNL     1     -37.773  20.916   1.549  0.00  0.00    +0.202 C 
BRANCH  29  30
ATOM     30  O   UNL     1     -39.020  20.944   2.209  0.00  0.00    -0.375 OA
ATOM     31  H   UNL     1     -39.258  21.863   2.412  0.00  0.00    +0.211 HD
ENDBRANCH  29  30
ENDBRANCH  28  29
ENDBRANCH   9  28
TORSDOF 6
ENDMDL
MODEL 2
REMARK VINA RESULT:      -6.1      1.843      7.319
REMARK  Name = 195460
REMARK  6 active torsions:
REMARK  status: ('A' for Active; 'I' for Inactive)
REMARK    1  A    between atoms: C_9  and  C_28
REMARK    2  A    between atoms: C_12  and  O_21
REMARK    3  A    between atoms: C_19  and  O_23
REMARK    4  A    between atoms: C_20  and  O_25
REMARK    5  A    between atoms: C_28  and  C_29
REMARK    6  A    between atoms: C_29  and  O_30
REMARK                            x       y       z     vdW  Elec       q    Type
REMARK                         _______ _______ _______ _____ _____    ______ ____
ROOT
ATOM      1  O   UNL     1     -36.563  25.032   4.550  0.00  0.00    -0.333 OA
ATOM      2  C   UNL     1     -34.539  25.789   3.554  0.00  0.00    +0.061 C 
ATOM      3  C   UNL     1     -36.716  24.359   2.253  0.00  0.00    +0.027 C 
ATOM      4  C   UNL     1     -34.993  26.235   2.124  0.00  0.00    +0.005 C 
ATOM      5  C   UNL     1     -35.708  25.111   1.338  0.00  0.00    +0.003 C 
ATOM      6  C   UNL     1     -37.377  23.145   1.506  0.00  0.00    +0.005 C 
ATOM      7  C   UNL     1     -36.064  24.033   3.625  0.00  0.00    +0.118 C 
ATOM      8  C   UNL     1     -34.559  24.261   3.643  0.00  0.00    +0.035 C 
ATOM      9  C   UNL     1     -33.147  26.393   3.745  0.00  0.00    +0.065 C 
ATOM     10  C   UNL     1     -38.055  23.713   0.216  0.00  0.00    +0.003 C 
ATOM     11  C   UNL     1     -33.708  26.714   1.419  0.00  0.00    +0.001 C 
ATOM     12  C   UNL     1     -35.600  26.099   4.625  0.00  0.00    +0.232 C 
ATOM     13  C   UNL     1     -36.394  25.615   0.062  0.00  0.00    +0.000 C 
ATOM     14  C   UNL     1     -32.549  26.354   2.344  0.00  0.00    +0.008 C 
ATOM     15  C   UNL     1     -37.075  24.470  -0.693  0.00  0.00    +0.000 C 
ATOM     16  C   UNL     1     -38.498  22.508   2.379  0.00  0.00    +0.032 C 
ATOM     17  C   UNL     1     -38.844  22.646  -0.564  0.00  0.00    +0.032 C 
ATOM     18  C   UNL     1     -36.318  22.059   1.189  0.00  0.00    +0.000 C 
ATOM     19  C   UNL     1     -39.330  21.459   1.628  0.00  0.00    +0.137 C 
ATOM     20  C   UNL     1     -39.909  21.977   0.310  0.00  0.00    +0.137 C 
ENDROOT
BRANCH  12  21
ATOM     21  O   UNL     1     -35.009  26.115   5.922  0.00  0.00    -0.360 OA
ATOM     22  H   UNL     1     -34.238  25.525   5.933  0.00  0.00    +0.213 HD
ENDBRANCH  12  21
BRANCH  19  23
ATOM     23  O   UNL     1     -40.396  21.006   2.460  0.00  0.00    -0.382 OA
ATOM     24  H   UNL     1     -40.193  20.117   2.791  0.00  0.00    +0.210 HD
ENDBRANCH  19  23
BRANCH  20  25
ATOM     25  O   UNL     1     -40.970  22.903   0.554  0.00  0.00    -0.382 OA
ATOM     26  H   UNL     1     -41.568  22.919  -0.210  0.00  0.00    +0.210 HD
ENDBRANCH  20  25
BRANCH   9  28
ATOM     27  O   UNL     1     -33.939  28.644   3.745  0.00  0.00    -0.293 OA
ATOM     28  C   UNL     1     -33.175  27.813   4.235  0.00  0.00    +0.180 C 
BRANCH  28  29
ATOM     29  C   UNL     1     -32.216  28.155   5.355  0.00  0.00    +0.202 C 
BRANCH  29  30
ATOM     30  O   UNL     1     -32.302  27.203   6.394  0.00  0.00    -0.375 OA
ATOM     31  H   UNL     1     -32.962  26.531   6.162  0.00  0.00    +0.211 HD
ENDBRANCH  29  30
ENDBRANCH  28  29
ENDBRANCH   9  28
TORSDOF 6
ENDMDL
MODEL 3
REMARK VINA RESULT:      -6.1      2.725      7.808
REMARK  Name = 195460
REMARK  6 active torsions:
REMARK  status: ('A' for Active; 'I' for Inactive)
REMARK    1  A    between atoms: C_9  and  C_28
REMARK    2  A    between atoms: C_12  and  O_21
REMARK    3  A    between atoms: C_19  and  O_23
REMARK    4  A    between atoms: C_20  and  O_25
REMARK    5  A    between atoms: C_28  and  C_29
REMARK    6  A    between atoms: C_29  and  O_30
REMARK                            x       y       z     vdW  Elec       q    Type
REMARK                         _______ _______ _______ _____ _____    ______ ____
ROOT
ATOM      1  O   UNL     1     -36.691  25.537   1.705  0.00  0.00    -0.333 OA
ATOM      2  C   UNL     1     -35.899  24.793   3.822  0.00  0.00    +0.061 C 
ATOM      3  C   UNL     1     -37.097  23.174   1.720  0.00  0.00    +0.027 C 
ATOM      4  C   UNL     1     -35.280  23.393   3.496  0.00  0.00    +0.005 C 
ATOM      5  C   UNL     1     -36.284  22.432   2.817  0.00  0.00    +0.003 C 
ATOM      6  C   UNL     1     -38.196  22.245   1.090  0.00  0.00    +0.005 C 
ATOM      7  C   UNL     1     -37.597  24.546   2.251  0.00  0.00    +0.118 C 
ATOM      8  C   UNL     1     -37.426  24.706   3.755  0.00  0.00    +0.035 C 
ATOM      9  C   UNL     1     -35.369  25.159   5.209  0.00  0.00    +0.065 C 
ATOM     10  C   UNL     1     -37.464  20.979   0.532  0.00  0.00    +0.003 C 
ATOM     11  C   UNL     1     -34.770  22.849   4.846  0.00  0.00    +0.001 C 
ATOM     12  C   UNL     1     -35.673  25.808   2.687  0.00  0.00    +0.232 C 
ATOM     13  C   UNL     1     -35.617  21.172   2.249  0.00  0.00    +0.000 C 
ATOM     14  C   UNL     1     -35.272  23.813   5.917  0.00  0.00    +0.008 C 
ATOM     15  C   UNL     1     -36.646  20.241   1.602  0.00  0.00    +0.000 C 
ATOM     16  C   UNL     1     -38.888  22.950  -0.114  0.00  0.00    +0.032 C 
ATOM     17  C   UNL     1     -38.409  20.024  -0.218  0.00  0.00    +0.032 C 
ATOM     18  C   UNL     1     -39.276  21.888   2.142  0.00  0.00    +0.000 C 
ATOM     19  C   UNL     1     -39.816  22.022  -0.910  0.00  0.00    +0.137 C 
ATOM     20  C   UNL     1     -39.134  20.731  -1.367  0.00  0.00    +0.137 C 
ENDROOT
BRANCH  12  21
ATOM     21  O   UNL     1     -35.823  27.140   3.172  0.00  0.00    -0.360 OA
ATOM     22  H   UNL     1     -36.752  27.411   3.089  0.00  0.00    +0.213 HD
ENDBRANCH  12  21
BRANCH  19  23
ATOM     23  O   UNL     1     -40.321  22.713  -2.051  0.00  0.00    -0.382 OA
ATOM     24  H   UNL     1     -39.708  23.424  -2.297  0.00  0.00    +0.210 HD
ENDBRANCH  19  23
BRANCH  20  25
ATOM     25  O   UNL     1     -38.204  20.997  -2.420  0.00  0.00    -0.382 OA
ATOM     26  H   UNL     1     -38.513  20.578  -3.238  0.00  0.00    +0.210 HD
ENDBRANCH  20  25
BRANCH   9  28
ATOM     27  O   UNL     1     -33.287  25.721   4.188  0.00  0.00    -0.293 OA
ATOM     28  C   UNL     1     -34.013  25.804   5.178  0.00  0.00    +0.180 C 
BRANCH  28  29
ATOM     29  C   UNL     1     -33.597  26.552   6.428  0.00  0.00    +0.202 C 
BRANCH  29  30
ATOM     30  O   UNL     1     -32.254  26.977   6.331  0.00  0.00    -0.375 OA
ATOM     31  H   UNL     1     -32.222  27.851   5.913  0.00  0.00    +0.211 HD
ENDBRANCH  29  30
ENDBRANCH  28  29
ENDBRANCH   9  28
TORSDOF 6
ENDMDL
MODEL 4
REMARK VINA RESULT:      -6.1      2.050      3.153
REMARK  Name = 195460
REMARK  6 active torsions:
REMARK  status: ('A' for Active; 'I' for Inactive)
REMARK    1  A    between atoms: C_9  and  C_28
REMARK    2  A    between atoms: C_12  and  O_21
REMARK    3  A    between atoms: C_19  and  O_23
REMARK    4  A    between atoms: C_20  and  O_25
REMARK    5  A    between atoms: C_28  and  C_29
REMARK    6  A    between atoms: C_29  and  O_30
REMARK                            x       y       z     vdW  Elec       q    Type
REMARK                         _______ _______ _______ _____ _____    ______ ____
ROOT
ATOM      1  O   UNL     1     -36.378  26.460   1.466  0.00  0.00    -0.333 OA
ATOM      2  C   UNL     1     -36.302  24.210   2.238  0.00  0.00    +0.061 C 
ATOM      3  C   UNL     1     -34.689  26.448   3.168  0.00  0.00    +0.027 C 
ATOM      4  C   UNL     1     -36.041  24.372   3.773  0.00  0.00    +0.005 C 
ATOM      5  C   UNL     1     -34.770  25.196   4.086  0.00  0.00    +0.003 C 
ATOM      6  C   UNL     1     -33.354  27.244   3.395  0.00  0.00    +0.005 C 
ATOM      7  C   UNL     1     -35.003  26.063   1.696  0.00  0.00    +0.118 C 
ATOM      8  C   UNL     1     -35.029  24.559   1.463  0.00  0.00    +0.035 C 
ATOM      9  C   UNL     1     -36.752  22.760   2.053  0.00  0.00    +0.065 C 
ATOM     10  C   UNL     1     -33.292  27.616   4.914  0.00  0.00    +0.003 C 
ATOM     11  C   UNL     1     -35.955  22.934   4.325  0.00  0.00    +0.001 C 
ATOM     12  C   UNL     1     -37.222  25.314   1.685  0.00  0.00    +0.232 C 
ATOM     13  C   UNL     1     -34.660  25.590   5.565  0.00  0.00    +0.000 C 
ATOM     14  C   UNL     1     -35.960  22.006   3.114  0.00  0.00    +0.008 C 
ATOM     15  C   UNL     1     -33.383  26.390   5.835  0.00  0.00    +0.000 C 
ATOM     16  C   UNL     1     -33.365  28.577   2.590  0.00  0.00    +0.032 C 
ATOM     17  C   UNL     1     -32.082  28.500   5.265  0.00  0.00    +0.032 C 
ATOM     18  C   UNL     1     -32.135  26.402   2.943  0.00  0.00    +0.000 C 
ATOM     19  C   UNL     1     -32.190  29.504   2.933  0.00  0.00    +0.137 C 
ATOM     20  C   UNL     1     -32.060  29.785   4.432  0.00  0.00    +0.137 C 
ENDROOT
BRANCH  12  21
ATOM     21  O   UNL     1     -37.801  24.907   0.448  0.00  0.00    -0.360 OA
ATOM     22  H   UNL     1     -38.316  24.095   0.584  0.00  0.00    +0.213 HD
ENDBRANCH  12  21
BRANCH  19  23
ATOM     23  O   UNL     1     -32.335  30.740   2.237  0.00  0.00    -0.382 OA
ATOM     24  H   UNL     1     -33.245  31.061   2.334  0.00  0.00    +0.210 HD
ENDBRANCH  19  23
BRANCH  20  25
ATOM     25  O   UNL     1     -33.106  30.654   4.875  0.00  0.00    -0.382 OA
ATOM     26  H   UNL     1     -33.890  30.525   4.320  0.00  0.00    +0.210 HD
ENDBRANCH  20  25
BRANCH   9  28
ATOM     27  O   UNL     1     -38.868  23.326   3.000  0.00  0.00    -0.293 OA
ATOM     28  C   UNL     1     -38.222  22.557   2.290  0.00  0.00    +0.180 C 
BRANCH  28  29
ATOM     29  C   UNL     1     -38.850  21.359   1.611  0.00  0.00    +0.202 C 
BRANCH  29  30
ATOM     30  O   UNL     1     -40.057  21.000   2.250  0.00  0.00    -0.375 OA
ATOM     31  H   UNL     1     -40.181  20.040   2.190  0.00  0.00    +0.211 HD
ENDBRANCH  29  30
ENDBRANCH  28  29
ENDBRANCH   9  28
TORSDOF 6
ENDMDL
MODEL 5
REMARK VINA RESULT:      -6.1     12.681     16.543
REMARK  Name = 195460
REMARK  6 active torsions:
REMARK  status: ('A' for Active; 'I' for Inactive)
REMARK    1  A    between atoms: C_9  and  C_28
REMARK    2  A    between atoms: C_12  and  O_21
REMARK    3  A    between atoms: C_19  and  O_23
REMARK    4  A    between atoms: C_20  and  O_25
REMARK    5  A    between atoms: C_28  and  C_29
REMARK    6  A    between atoms: C_29  and  O_30
REMARK                            x       y       z     vdW  Elec       q    Type
REMARK                         _______ _______ _______ _____ _____    ______ ____
ROOT
ATOM      1  O   UNL     1     -31.101  38.556   4.882  0.00  0.00    -0.333 OA
ATOM      2  C   UNL     1     -30.910  40.911   5.171  0.00  0.00    +0.061 C 
ATOM      3  C   UNL     1     -32.200  39.505   2.973  0.00  0.00    +0.027 C 
ATOM      4  C   UNL     1     -32.275  41.447   4.624  0.00  0.00    +0.005 C 
ATOM      5  C   UNL     1     -32.559  41.005   3.169  0.00  0.00    +0.003 C 
ATOM      6  C   UNL     1     -32.380  39.060   1.476  0.00  0.00    +0.005 C 
ATOM      7  C   UNL     1     -30.818  39.190   3.609  0.00  0.00    +0.118 C 
ATOM      8  C   UNL     1     -30.041  40.438   4.003  0.00  0.00    +0.035 C 
ATOM      9  C   UNL     1     -30.300  42.075   5.953  0.00  0.00    +0.065 C 
ATOM     10  C   UNL     1     -33.860  39.375   1.078  0.00  0.00    +0.003 C 
ATOM     11  C   UNL     1     -32.196  42.981   4.764  0.00  0.00    +0.001 C 
ATOM     12  C   UNL     1     -31.064  39.567   5.907  0.00  0.00    +0.232 C 
ATOM     13  C   UNL     1     -34.000  41.288   2.727  0.00  0.00    +0.000 C 
ATOM     14  C   UNL     1     -30.763  43.303   5.178  0.00  0.00    +0.008 C 
ATOM     15  C   UNL     1     -34.234  40.851   1.278  0.00  0.00    +0.000 C 
ATOM     16  C   UNL     1     -32.175  37.524   1.331  0.00  0.00    +0.032 C 
ATOM     17  C   UNL     1     -34.215  38.887  -0.338  0.00  0.00    +0.032 C 
ATOM     18  C   UNL     1     -31.356  39.785   0.567  0.00  0.00    +0.000 C 
ATOM     19  C   UNL     1     -32.548  36.990  -0.059  0.00  0.00    +0.137 C 
ATOM     20  C   UNL     1     -33.959  37.386  -0.500  0.00  0.00    +0.137 C 
ENDROOT
BRANCH  12  21
ATOM     21  O   UNL     1     -29.948  39.336   6.762  0.00  0.00    -0.360 OA
ATOM     22  H   UNL     1     -30.145  39.676   7.649  0.00  0.00    +0.213 HD
ENDBRANCH  12  21
BRANCH  19  23
ATOM     23  O   UNL     1     -32.435  35.568  -0.074  0.00  0.00    -0.382 OA
ATOM     24  H   UNL     1     -31.911  35.293  -0.841  0.00  0.00    +0.210 HD
ENDBRANCH  19  23
BRANCH  20  25
ATOM     25  O   UNL     1     -34.942  36.656   0.239  0.00  0.00    -0.382 OA
ATOM     26  H   UNL     1     -35.668  37.250   0.486  0.00  0.00    +0.210 HD
ENDBRANCH  20  25
BRANCH   9  28
ATOM     27  O   UNL     1     -31.741  41.487   7.761  0.00  0.00    -0.293 OA
ATOM     28  C   UNL     1     -30.793  42.166   7.369  0.00  0.00    +0.180 C 
BRANCH  28  29
ATOM     29  C   UNL     1     -30.061  43.135   8.273  0.00  0.00    +0.202 C 
BRANCH  29  30
ATOM     30  O   UNL     1     -30.976  43.927   9.000  0.00  0.00    -0.375 OA
ATOM     31  H   UNL     1     -31.735  43.385   9.263  0.00  0.00    +0.211 HD
ENDBRANCH  29  30
ENDBRANCH  28  29
ENDBRANCH   9  28
TORSDOF 6
ENDMDL
MODEL 6
REMARK VINA RESULT:      -6.0      6.228      8.980
REMARK  Name = 195460
REMARK  6 active torsions:
REMARK  status: ('A' for Active; 'I' for Inactive)
REMARK    1  A    between atoms: C_9  and  C_28
REMARK    2  A    between atoms: C_12  and  O_21
REMARK    3  A    between atoms: C_19  and  O_23
REMARK    4  A    between atoms: C_20  and  O_25
REMARK    5  A    between atoms: C_28  and  C_29
REMARK    6  A    between atoms: C_29  and  O_30
REMARK                            x       y       z     vdW  Elec       q    Type
REMARK                         _______ _______ _______ _____ _____    ______ ____
ROOT
ATOM      1  O   UNL     1     -36.178  17.303  -0.642  0.00  0.00    -0.333 OA
ATOM      2  C   UNL     1     -33.891  17.953  -0.533  0.00  0.00    +0.061 C 
ATOM      3  C   UNL     1     -36.196  19.445   0.436  0.00  0.00    +0.027 C 
ATOM      4  C   UNL     1     -33.797  18.684   0.849  0.00  0.00    +0.005 C 
ATOM      5  C   UNL     1     -34.799  19.854   0.983  0.00  0.00    +0.003 C 
ATOM      6  C   UNL     1     -37.202  20.651   0.464  0.00  0.00    +0.005 C 
ATOM      7  C   UNL     1     -36.052  18.718  -0.930  0.00  0.00    +0.118 C 
ATOM      8  C   UNL     1     -34.656  18.832  -1.525  0.00  0.00    +0.035 C 
ATOM      9  C   UNL     1     -32.445  17.680  -0.947  0.00  0.00    +0.065 C 
ATOM     10  C   UNL     1     -37.268  21.160   1.943  0.00  0.00    +0.003 C 
ATOM     11  C   UNL     1     -32.332  19.153   0.962  0.00  0.00    +0.001 C 
ATOM     12  C   UNL     1     -34.855  16.753  -0.492  0.00  0.00    +0.232 C 
ATOM     13  C   UNL     1     -34.906  20.391   2.416  0.00  0.00    +0.000 C 
ATOM     14  C   UNL     1     -31.685  18.879  -0.392  0.00  0.00    +0.008 C 
ATOM     15  C   UNL     1     -35.894  21.557   2.502  0.00  0.00    +0.000 C 
ATOM     16  C   UNL     1     -38.633  20.183   0.069  0.00  0.00    +0.032 C 
ATOM     17  C   UNL     1     -38.307  22.278   2.144  0.00  0.00    +0.032 C 
ATOM     18  C   UNL     1     -36.753  21.758  -0.522  0.00  0.00    +0.000 C 
ATOM     19  C   UNL     1     -39.706  21.259   0.285  0.00  0.00    +0.137 C 
ATOM     20  C   UNL     1     -39.705  21.838   1.702  0.00  0.00    +0.137 C 
ENDROOT
BRANCH  12  21
ATOM     21  O   UNL     1     -34.586  15.861  -1.570  0.00  0.00    -0.360 OA
ATOM     22  H   UNL     1     -34.335  14.993  -1.216  0.00  0.00    +0.213 HD
ENDBRANCH  12  21
BRANCH  19  23
ATOM     23  O   UNL     1     -40.995  20.716   0.003  0.00  0.00    -0.382 OA
ATOM     24  H   UNL     1     -41.644  21.434  -0.050  0.00  0.00    +0.210 HD
ENDBRANCH  19  23
BRANCH  20  25
ATOM     25  O   UNL     1     -40.220  20.886   2.636  0.00  0.00    -0.382 OA
ATOM     26  H   UNL     1     -39.594  20.782   3.369  0.00  0.00    +0.210 HD
ENDBRANCH  20  25
BRANCH   9  28
ATOM     27  O   UNL     1     -32.568  15.685   0.357  0.00  0.00    -0.293 OA
ATOM     28  C   UNL     1     -31.883  16.418  -0.356  0.00  0.00    +0.180 C 
BRANCH  28  29
ATOM     29  C   UNL     1     -30.439  16.107  -0.687  0.00  0.00    +0.202 C 
BRANCH  29  30
ATOM     30  O   UNL     1     -29.794  15.504   0.414  0.00  0.00    -0.375 OA
ATOM     31  H   UNL     1     -29.480  16.192   1.022  0.00  0.00    +0.211 HD
ENDBRANCH  29  30
ENDBRANCH  28  29
ENDBRANCH   9  28
TORSDOF 6
ENDMDL
MODEL 7
REMARK VINA RESULT:      -6.0      1.770      7.184
REMARK  Name = 195460
REMARK  6 active torsions:
REMARK  status: ('A' for Active; 'I' for Inactive)
REMARK    1  A    between atoms: C_9  and  C_28
REMARK    2  A    between atoms: C_12  and  O_21
REMARK    3  A    between atoms: C_19  and  O_23
REMARK    4  A    between atoms: C_20  and  O_25
REMARK    5  A    between atoms: C_28  and  C_29
REMARK    6  A    between atoms: C_29  and  O_30
REMARK                            x       y       z     vdW  Elec       q    Type
REMARK                         _______ _______ _______ _____ _____    ______ ____
ROOT
ATOM      1  O   UNL     1     -34.373  25.150   4.420  0.00  0.00    -0.333 OA
ATOM      2  C   UNL     1     -33.768  26.937   2.969  0.00  0.00    +0.061 C 
ATOM      3  C   UNL     1     -35.441  24.640   2.334  0.00  0.00    +0.027 C 
ATOM      4  C   UNL     1     -35.063  27.152   2.115  0.00  0.00    +0.005 C 
ATOM      5  C   UNL     1     -35.527  25.869   1.387  0.00  0.00    +0.003 C 
ATOM      6  C   UNL     1     -35.806  23.308   1.585  0.00  0.00    +0.005 C 
ATOM      7  C   UNL     1     -34.086  24.636   3.096  0.00  0.00    +0.118 C 
ATOM      8  C   UNL     1     -33.083  25.637   2.540  0.00  0.00    +0.035 C 
ATOM      9  C   UNL     1     -32.914  28.183   2.734  0.00  0.00    +0.065 C 
ATOM     10  C   UNL     1     -37.239  23.497   0.985  0.00  0.00    +0.003 C 
ATOM     11  C   UNL     1     -34.718  28.290   1.133  0.00  0.00    +0.001 C 
ATOM     12  C   UNL     1     -34.089  26.562   4.427  0.00  0.00    +0.232 C 
ATOM     13  C   UNL     1     -36.930  25.999   0.780  0.00  0.00    +0.000 C 
ATOM     14  C   UNL     1     -33.223  28.557   1.290  0.00  0.00    +0.008 C 
ATOM     15  C   UNL     1     -37.344  24.715   0.056  0.00  0.00    +0.000 C 
ATOM     16  C   UNL     1     -35.874  22.116   2.585  0.00  0.00    +0.032 C 
ATOM     17  C   UNL     1     -37.778  22.222   0.312  0.00  0.00    +0.032 C 
ATOM     18  C   UNL     1     -34.749  22.986   0.500  0.00  0.00    +0.000 C 
ATOM     19  C   UNL     1     -36.436  20.831   1.961  0.00  0.00    +0.137 C 
ATOM     20  C   UNL     1     -37.791  21.033   1.278  0.00  0.00    +0.137 C 
ENDROOT
BRANCH  12  21
ATOM     21  O   UNL     1     -32.965  26.816   5.266  0.00  0.00    -0.360 OA
ATOM     22  H   UNL     1     -32.864  26.089   5.901  0.00  0.00    +0.213 HD
ENDBRANCH  12  21
BRANCH  19  23
ATOM     23  O   UNL     1     -36.565  19.826   2.965  0.00  0.00    -0.382 OA
ATOM     24  H   UNL     1     -36.750  20.246   3.820  0.00  0.00    +0.210 HD
ENDBRANCH  19  23
BRANCH  20  25
ATOM     25  O   UNL     1     -38.822  21.224   2.250  0.00  0.00    -0.382 OA
ATOM     26  H   UNL     1     -39.104  20.364   2.596  0.00  0.00    +0.210 HD
ENDBRANCH  20  25
BRANCH   9  28
ATOM     27  O   UNL     1     -34.423  29.772   3.680  0.00  0.00    -0.293 OA
ATOM     28  C   UNL     1     -33.275  29.332   3.633  0.00  0.00    +0.180 C 
BRANCH  28  29
ATOM     29  C   UNL     1     -32.151  29.909   4.467  0.00  0.00    +0.202 C 
BRANCH  29  30
ATOM     30  O   UNL     1     -32.320  29.578   5.829  0.00  0.00    -0.375 OA
ATOM     31  H   UNL     1     -32.266  30.384   6.366  0.00  0.00    +0.211 HD
ENDBRANCH  29  30
ENDBRANCH  28  29
ENDBRANCH   9  28
TORSDOF 6
ENDMDL
MODEL 8
REMARK VINA RESULT:      -5.9      3.950      6.240
REMARK  Name = 195460
REMARK  6 active torsions:
REMARK  status: ('A' for Active; 'I' for Inactive)
REMARK    1  A    between atoms: C_9  and  C_28
REMARK    2  A    between atoms: C_12  and  O_21
REMARK    3  A    between atoms: C_19  and  O_23
REMARK    4  A    between atoms: C_20  and  O_25
REMARK    5  A    between atoms: C_28  and  C_29
REMARK    6  A    between atoms: C_29  and  O_30
REMARK                            x       y       z     vdW  Elec       q    Type
REMARK                         _______ _______ _______ _____ _____    ______ ____
ROOT
ATOM      1  O   UNL     1     -36.226  22.097  -0.851  0.00  0.00    -0.333 OA
ATOM      2  C   UNL     1     -34.452  20.589  -0.357  0.00  0.00    +0.061 C 
ATOM      3  C   UNL     1     -35.678  22.520   1.445  0.00  0.00    +0.027 C 
ATOM      4  C   UNL     1     -34.748  20.167   1.122  0.00  0.00    +0.005 C 
ATOM      5  C   UNL     1     -34.847  21.372   2.086  0.00  0.00    +0.003 C 
ATOM      6  C   UNL     1     -35.703  23.795   2.363  0.00  0.00    +0.005 C 
ATOM      7  C   UNL     1     -35.233  22.755  -0.025  0.00  0.00    +0.118 C 
ATOM      8  C   UNL     1     -33.943  22.032  -0.384  0.00  0.00    +0.035 C 
ATOM      9  C   UNL     1     -33.434  19.572  -0.873  0.00  0.00    +0.065 C 
ATOM     10  C   UNL     1     -36.274  23.351   3.751  0.00  0.00    +0.003 C 
ATOM     11  C   UNL     1     -33.607  19.203   1.506  0.00  0.00    +0.001 C 
ATOM     12  C   UNL     1     -35.741  20.780  -1.177  0.00  0.00    +0.232 C 
ATOM     13  C   UNL     1     -35.405  20.993   3.464  0.00  0.00    +0.000 C 
ATOM     14  C   UNL     1     -32.600  19.248   0.360  0.00  0.00    +0.008 C 
ATOM     15  C   UNL     1     -35.471  22.209   4.392  0.00  0.00    +0.000 C 
ATOM     16  C   UNL     1     -36.669  24.869   1.784  0.00  0.00    +0.032 C 
ATOM     17  C   UNL     1     -36.461  24.528   4.724  0.00  0.00    +0.032 C 
ATOM     18  C   UNL     1     -34.286  24.412   2.477  0.00  0.00    +0.000 C 
ATOM     19  C   UNL     1     -36.909  26.048   2.738  0.00  0.00    +0.137 C 
ATOM     20  C   UNL     1     -37.366  25.613   4.133  0.00  0.00    +0.137 C 
ENDROOT
BRANCH  12  21
ATOM     21  O   UNL     1     -35.460  20.710  -2.572  0.00  0.00    -0.360 OA
ATOM     22  H   UNL     1     -36.279  20.524  -3.058  0.00  0.00    +0.213 HD
ENDBRANCH  12  21
BRANCH  19  23
ATOM     23  O   UNL     1     -37.884  26.927   2.180  0.00  0.00    -0.382 OA
ATOM     24  H   UNL     1     -38.075  27.640   2.810  0.00  0.00    +0.210 HD
ENDBRANCH  19  23
BRANCH  20  25
ATOM     25  O   UNL     1     -38.714  25.138   4.097  0.00  0.00    -0.382 OA
ATOM     26  H   UNL     1     -39.280  25.733   4.612  0.00  0.00    +0.210 HD
ENDBRANCH  20  25
BRANCH   9  28
ATOM     27  O   UNL     1     -34.896  17.692  -0.737  0.00  0.00    -0.293 OA
ATOM     28  C   UNL     1     -34.062  18.311  -1.396  0.00  0.00    +0.180 C 
BRANCH  28  29
ATOM     29  C   UNL     1     -33.608  17.853  -2.765  0.00  0.00    +0.202 C 
BRANCH  29  30
ATOM     30  O   UNL     1     -33.277  18.960  -3.576  0.00  0.00    -0.375 OA
ATOM     31  H   UNL     1     -32.413  18.809  -3.991  0.00  0.00    +0.211 HD
ENDBRANCH  29  30
ENDBRANCH  28  29
ENDBRANCH   9  28
TORSDOF 6
ENDMDL
MODEL 9
REMARK VINA RESULT:      -5.9      4.027      7.921
REMARK  Name = 195460
REMARK  6 active torsions:
REMARK  status: ('A' for Active; 'I' for Inactive)
REMARK    1  A    between atoms: C_9  and  C_28
REMARK    2  A    between atoms: C_12  and  O_21
REMARK    3  A    between atoms: C_19  and  O_23
REMARK    4  A    between atoms: C_20  and  O_25
REMARK    5  A    between atoms: C_28  and  C_29
REMARK    6  A    between atoms: C_29  and  O_30
REMARK                            x       y       z     vdW  Elec       q    Type
REMARK                         _______ _______ _______ _____ _____    ______ ____
ROOT
ATOM      1  O   UNL     1     -37.133  20.329   1.180  0.00  0.00    -0.333 OA
ATOM      2  C   UNL     1     -36.110  22.198   2.241  0.00  0.00    +0.061 C 
ATOM      3  C   UNL     1     -34.822  20.207   0.551  0.00  0.00    +0.027 C 
ATOM      4  C   UNL     1     -35.050  22.666   1.187  0.00  0.00    +0.005 C 
ATOM      5  C   UNL     1     -34.065  21.545   0.782  0.00  0.00    +0.003 C 
ATOM      6  C   UNL     1     -33.829  19.029   0.242  0.00  0.00    +0.005 C 
ATOM      7  C   UNL     1     -35.834  19.951   1.702  0.00  0.00    +0.118 C 
ATOM      8  C   UNL     1     -35.646  20.889   2.886  0.00  0.00    +0.035 C 
ATOM      9  C   UNL     1     -36.237  23.356   3.232  0.00  0.00    +0.065 C 
ATOM     10  C   UNL     1     -32.984  19.456  -1.004  0.00  0.00    +0.003 C 
ATOM     11  C   UNL     1     -34.334  23.868   1.837  0.00  0.00    +0.001 C 
ATOM     12  C   UNL     1     -37.402  21.686   1.579  0.00  0.00    +0.232 C 
ATOM     13  C   UNL     1     -33.210  21.910  -0.439  0.00  0.00    +0.000 C 
ATOM     14  C   UNL     1     -34.829  23.937   3.279  0.00  0.00    +0.008 C 
ATOM     15  C   UNL     1     -32.239  20.783  -0.796  0.00  0.00    +0.000 C 
ATOM     16  C   UNL     1     -34.611  17.739  -0.146  0.00  0.00    +0.032 C 
ATOM     17  C   UNL     1     -32.037  18.345  -1.493  0.00  0.00    +0.032 C 
ATOM     18  C   UNL     1     -32.947  18.721   1.478  0.00  0.00    +0.000 C 
ATOM     19  C   UNL     1     -33.706  16.615  -0.669  0.00  0.00    +0.137 C 
ATOM     20  C   UNL     1     -32.798  17.056  -1.820  0.00  0.00    +0.137 C 
ENDROOT
BRANCH  12  21
ATOM     21  O   UNL     1     -38.480  21.703   2.511  0.00  0.00    -0.360 OA
ATOM     22  H   UNL     1     -38.909  20.833   2.524  0.00  0.00    +0.213 HD
ENDBRANCH  12  21
BRANCH  19  23
ATOM     23  O   UNL     1     -34.507  15.516  -1.101  0.00  0.00    -0.382 OA
ATOM     24  H   UNL     1     -34.198  15.213  -1.969  0.00  0.00    +0.210 HD
ENDBRANCH  19  23
BRANCH  20  25
ATOM     25  O   UNL     1     -33.556  17.246  -3.017  0.00  0.00    -0.382 OA
ATOM     26  H   UNL     1     -34.167  17.989  -2.899  0.00  0.00    +0.210 HD
ENDBRANCH  20  25
BRANCH   9  28
ATOM     27  O   UNL     1     -37.774  24.348   1.700  0.00  0.00    -0.293 OA
ATOM     28  C   UNL     1     -37.200  24.419   2.786  0.00  0.00    +0.180 C 
BRANCH  28  29
ATOM     29  C   UNL     1     -37.417  25.571   3.744  0.00  0.00    +0.202 C 
BRANCH  29  30
ATOM     30  O   UNL     1     -38.543  26.332   3.361  0.00  0.00    -0.375 OA
ATOM     31  H   UNL     1     -38.700  26.221   2.411  0.00  0.00    +0.211 HD
ENDBRANCH  29  30
ENDBRANCH  28  29
ENDBRANCH   9  28
TORSDOF 6
ENDMDL
