MODEL 1
REMARK VINA RESULT:      -6.2      0.000      0.000
REMARK  Name = 189844
REMARK  5 active torsions:
REMARK  status: ('A' for Active; 'I' for Inactive)
REMARK    1  A    between atoms: C_5  and  N_16
REMARK    2  A    between atoms: C_10  and  O_19
REMARK    3  A    between atoms: O_19  and  P_20
REMARK    4  A    between atoms: P_20  and  O_22
REMARK    5  A    between atoms: P_20  and  O_24
REMARK                            x       y       z     vdW  Elec       q    Type
REMARK                         _______ _______ _______ _____ _____    ______ ____
ROOT
ATOM      1 CL   UNL     1     -31.198  29.677   7.004  0.00  0.00    -0.086 Cl
ATOM      2  N   UNL     1     -33.886  25.486   6.025  0.00  0.00    -0.410 NA
ATOM      3  C   UNL     1     -34.601  24.862   3.813  0.00  0.00    +0.025 C 
ATOM      4  C   UNL     1     -33.316  26.894   4.159  0.00  0.00    +0.022 C 
ATOM      5  C   UNL     1     -33.982  26.009   3.306  0.00  0.00    +0.101 C 
ATOM      6  C   UNL     1     -34.527  24.637   5.198  0.00  0.00    +0.111 C 
ATOM      7  C   UNL     1     -33.292  26.590   5.530  0.00  0.00    +0.111 C 
ATOM      8  C   UNL     1     -35.277  23.955   2.979  0.00  0.00    +0.037 C 
ATOM      9  C   UNL     1     -35.142  23.497   5.710  0.00  0.00    +0.088 C 
ATOM     10  C   UNL     1     -35.883  22.822   3.515  0.00  0.00    +0.145 C 
ATOM     11  C   UNL     1     -32.685  28.055   3.676  0.00  0.00    +0.000 C 
ATOM     12  C   UNL     1     -35.814  22.593   4.884  0.00  0.00    +0.019 C 
ATOM     13  C   UNL     1     -32.631  27.468   6.385  0.00  0.00    +0.096 C 
ATOM     14  C   UNL     1     -32.031  28.917   4.552  0.00  0.00    +0.007 C 
ATOM     15  C   UNL     1     -32.004  28.621   5.908  0.00  0.00    +0.042 C 
ENDROOT
BRANCH   5  16
ATOM     16  N   UNL     1     -34.032  26.278   1.911  0.00  0.00    -0.315 NA
ATOM     17  H   UNL     1     -33.374  26.887   1.504  0.00  0.00    +0.119 HD
ATOM     18  H   UNL     1     -34.723  25.855   1.352  0.00  0.00    +0.119 HD
ENDBRANCH   5  16
BRANCH  10  19
ATOM     19  O   UNL     1     -36.535  21.946   2.707  0.00  0.00    -0.403 OA
BRANCH  19  20
ATOM     20  P   UNL     1     -35.866  20.656   1.993  0.00  0.00    +0.528 P 
ATOM     21  O   UNL     1     -35.523  20.834   0.541  0.00  0.00    -0.216 OA
BRANCH  20  22
ATOM     22  O   UNL     1     -34.632  20.263   2.961  0.00  0.00    -0.293 OA
ATOM     23  H   UNL     1     -34.976  19.893   3.789  0.00  0.00    +0.223 HD
ENDBRANCH  20  22
BRANCH  20  24
ATOM     24  O   UNL     1     -36.943  19.484   2.286  0.00  0.00    -0.293 OA
ATOM     25  H   UNL     1     -37.284  19.140   1.445  0.00  0.00    +0.223 HD
ENDBRANCH  20  24
ENDBRANCH  19  20
ENDBRANCH  10  19
TORSDOF 5
ENDMDL
MODEL 2
REMARK VINA RESULT:      -5.9      5.531      7.193
REMARK  Name = 189844
REMARK  5 active torsions:
REMARK  status: ('A' for Active; 'I' for Inactive)
REMARK    1  A    between atoms: C_5  and  N_16
REMARK    2  A    between atoms: C_10  and  O_19
REMARK    3  A    between atoms: O_19  and  P_20
REMARK    4  A    between atoms: P_20  and  O_22
REMARK    5  A    between atoms: P_20  and  O_24
REMARK                            x       y       z     vdW  Elec       q    Type
REMARK                         _______ _______ _______ _____ _____    ______ ____
ROOT
ATOM      1 CL   UNL     1     -40.609  21.312   0.491  0.00  0.00    -0.086 Cl
ATOM      2  N   UNL     1     -36.975  23.051   3.576  0.00  0.00    -0.410 NA
ATOM      3  C   UNL     1     -36.326  25.367   3.679  0.00  0.00    +0.025 C 
ATOM      4  C   UNL     1     -38.082  24.651   2.161  0.00  0.00    +0.022 C 
ATOM      5  C   UNL     1     -37.281  25.662   2.700  0.00  0.00    +0.101 C 
ATOM      6  C   UNL     1     -36.206  24.029   4.092  0.00  0.00    +0.111 C 
ATOM      7  C   UNL     1     -37.893  23.342   2.633  0.00  0.00    +0.111 C 
ATOM      8  C   UNL     1     -35.507  26.362   4.239  0.00  0.00    +0.037 C 
ATOM      9  C   UNL     1     -35.256  23.728   5.066  0.00  0.00    +0.088 C 
ATOM     10  C   UNL     1     -34.566  26.036   5.211  0.00  0.00    +0.145 C 
ATOM     11  C   UNL     1     -39.050  24.920   1.175  0.00  0.00    +0.000 C 
ATOM     12  C   UNL     1     -34.442  24.715   5.625  0.00  0.00    +0.019 C 
ATOM     13  C   UNL     1     -38.688  22.331   2.099  0.00  0.00    +0.096 C 
ATOM     14  C   UNL     1     -39.831  23.891   0.658  0.00  0.00    +0.007 C 
ATOM     15  C   UNL     1     -39.650  22.595   1.121  0.00  0.00    +0.042 C 
ENDROOT
BRANCH   5  16
ATOM     16  N   UNL     1     -37.437  27.001   2.250  0.00  0.00    -0.315 NA
ATOM     17  H   UNL     1     -38.298  27.296   1.874  0.00  0.00    +0.119 HD
ATOM     18  H   UNL     1     -36.686  27.633   2.315  0.00  0.00    +0.119 HD
ENDBRANCH   5  16
BRANCH  10  19
ATOM     19  O   UNL     1     -33.776  27.000   5.752  0.00  0.00    -0.403 OA
BRANCH  19  20
ATOM     20  P   UNL     1     -32.505  27.688   5.020  0.00  0.00    +0.528 P 
ATOM     21  O   UNL     1     -32.039  27.001   3.769  0.00  0.00    -0.216 OA
BRANCH  20  22
ATOM     22  O   UNL     1     -32.937  29.236   4.851  0.00  0.00    -0.293 OA
ATOM     23  H   UNL     1     -32.933  29.473   3.911  0.00  0.00    +0.223 HD
ENDBRANCH  20  22
BRANCH  20  24
ATOM     24  O   UNL     1     -31.400  27.747   6.201  0.00  0.00    -0.293 OA
ATOM     25  H   UNL     1     -30.620  27.233   5.939  0.00  0.00    +0.223 HD
ENDBRANCH  20  24
ENDBRANCH  19  20
ENDBRANCH  10  19
TORSDOF 5
ENDMDL
MODEL 3
REMARK VINA RESULT:      -5.9      5.785      7.341
REMARK  Name = 189844
REMARK  5 active torsions:
REMARK  status: ('A' for Active; 'I' for Inactive)
REMARK    1  A    between atoms: C_5  and  N_16
REMARK    2  A    between atoms: C_10  and  O_19
REMARK    3  A    between atoms: O_19  and  P_20
REMARK    4  A    between atoms: P_20  and  O_22
REMARK    5  A    between atoms: P_20  and  O_24
REMARK                            x       y       z     vdW  Elec       q    Type
REMARK                         _______ _______ _______ _____ _____    ______ ____
ROOT
ATOM      1 CL   UNL     1     -29.870  18.384  -0.492  0.00  0.00    -0.086 Cl
ATOM      2  N   UNL     1     -33.297  22.093   0.002  0.00  0.00    -0.410 NA
ATOM      3  C   UNL     1     -35.291  21.881   1.334  0.00  0.00    +0.025 C 
ATOM      4  C   UNL     1     -33.721  20.035   1.173  0.00  0.00    +0.022 C 
ATOM      5  C   UNL     1     -34.908  20.579   1.671  0.00  0.00    +0.101 C 
ATOM      6  C   UNL     1     -34.443  22.612   0.485  0.00  0.00    +0.111 C 
ATOM      7  C   UNL     1     -32.934  20.838   0.330  0.00  0.00    +0.111 C 
ATOM      8  C   UNL     1     -36.479  22.454   1.819  0.00  0.00    +0.037 C 
ATOM      9  C   UNL     1     -34.818  23.910   0.144  0.00  0.00    +0.088 C 
ATOM     10  C   UNL     1     -36.831  23.753   1.465  0.00  0.00    +0.145 C 
ATOM     11  C   UNL     1     -33.312  18.728   1.495  0.00  0.00    +0.000 C 
ATOM     12  C   UNL     1     -35.997  24.482   0.626  0.00  0.00    +0.019 C 
ATOM     13  C   UNL     1     -31.751  20.302  -0.169  0.00  0.00    +0.096 C 
ATOM     14  C   UNL     1     -32.124  18.215   0.982  0.00  0.00    +0.007 C 
ATOM     15  C   UNL     1     -31.342  19.004   0.150  0.00  0.00    +0.042 C 
ENDROOT
BRANCH   5  16
ATOM     16  N   UNL     1     -35.735  19.801   2.526  0.00  0.00    -0.315 NA
ATOM     17  H   UNL     1     -35.546  19.762   3.491  0.00  0.00    +0.119 HD
ATOM     18  H   UNL     1     -36.498  19.302   2.153  0.00  0.00    +0.119 HD
ENDBRANCH   5  16
BRANCH  10  19
ATOM     19  O   UNL     1     -37.980  24.304   1.937  0.00  0.00    -0.403 OA
BRANCH  19  20
ATOM     20  P   UNL     1     -38.141  25.052   3.364  0.00  0.00    +0.528 P 
ATOM     21  O   UNL     1     -37.132  24.666   4.406  0.00  0.00    -0.216 OA
BRANCH  20  22
ATOM     22  O   UNL     1     -38.189  26.623   2.983  0.00  0.00    -0.293 OA
ATOM     23  H   UNL     1     -37.902  26.742   2.065  0.00  0.00    +0.223 HD
ENDBRANCH  20  22
BRANCH  20  24
ATOM     24  O   UNL     1     -39.675  24.730   3.767  0.00  0.00    -0.293 OA
ATOM     25  H   UNL     1     -39.940  25.296   4.510  0.00  0.00    +0.223 HD
ENDBRANCH  20  24
ENDBRANCH  19  20
ENDBRANCH  10  19
TORSDOF 5
ENDMDL
MODEL 4
REMARK VINA RESULT:      -5.9      2.316      3.583
REMARK  Name = 189844
REMARK  5 active torsions:
REMARK  status: ('A' for Active; 'I' for Inactive)
REMARK    1  A    between atoms: C_5  and  N_16
REMARK    2  A    between atoms: C_10  and  O_19
REMARK    3  A    between atoms: O_19  and  P_20
REMARK    4  A    between atoms: P_20  and  O_22
REMARK    5  A    between atoms: P_20  and  O_24
REMARK                            x       y       z     vdW  Elec       q    Type
REMARK                         _______ _______ _______ _____ _____    ______ ____
ROOT
ATOM      1 CL   UNL     1     -29.587  32.366   4.118  0.00  0.00    -0.086 Cl
ATOM      2  N   UNL     1     -33.176  28.840   3.456  0.00  0.00    -0.410 NA
ATOM      3  C   UNL     1     -33.597  27.072   5.034  0.00  0.00    +0.025 C 
ATOM      4  C   UNL     1     -31.850  28.705   5.460  0.00  0.00    +0.022 C 
ATOM      5  C   UNL     1     -32.573  27.572   5.844  0.00  0.00    +0.101 C 
ATOM      6  C   UNL     1     -33.869  27.748   3.832  0.00  0.00    +0.111 C 
ATOM      7  C   UNL     1     -32.189  29.316   4.241  0.00  0.00    +0.111 C 
ATOM      8  C   UNL     1     -34.340  25.935   5.395  0.00  0.00    +0.037 C 
ATOM      9  C   UNL     1     -34.887  27.255   3.020  0.00  0.00    +0.088 C 
ATOM     10  C   UNL     1     -35.354  25.463   4.567  0.00  0.00    +0.145 C 
ATOM     11  C   UNL     1     -30.814  29.228   6.255  0.00  0.00    +0.000 C 
ATOM     12  C   UNL     1     -35.628  26.126   3.376  0.00  0.00    +0.019 C 
ATOM     13  C   UNL     1     -31.473  30.445   3.852  0.00  0.00    +0.096 C 
ATOM     14  C   UNL     1     -30.113  30.358   5.843  0.00  0.00    +0.007 C 
ATOM     15  C   UNL     1     -30.444  30.968   4.640  0.00  0.00    +0.042 C 
ENDROOT
BRANCH   5  16
ATOM     16  N   UNL     1     -32.262  26.920   7.069  0.00  0.00    -0.315 NA
ATOM     17  H   UNL     1     -31.432  26.397   7.151  0.00  0.00    +0.119 HD
ATOM     18  H   UNL     1     -32.875  26.993   7.835  0.00  0.00    +0.119 HD
ENDBRANCH   5  16
BRANCH  10  19
ATOM     19  O   UNL     1     -36.071  24.364   4.919  0.00  0.00    -0.403 OA
BRANCH  19  20
ATOM     20  P   UNL     1     -36.016  22.930   4.168  0.00  0.00    +0.528 P 
ATOM     21  O   UNL     1     -34.911  22.778   3.162  0.00  0.00    -0.216 OA
BRANCH  20  22
ATOM     22  O   UNL     1     -36.021  21.853   5.373  0.00  0.00    -0.293 OA
ATOM     23  H   UNL     1     -35.730  20.991   5.037  0.00  0.00    +0.223 HD
ENDBRANCH  20  22
BRANCH  20  24
ATOM     24  O   UNL     1     -37.505  22.790   3.551  0.00  0.00    -0.293 OA
ATOM     25  H   UNL     1     -38.155  22.793   4.271  0.00  0.00    +0.223 HD
ENDBRANCH  20  24
ENDBRANCH  19  20
ENDBRANCH  10  19
TORSDOF 5
ENDMDL
MODEL 5
REMARK VINA RESULT:      -5.8      5.669      7.391
REMARK  Name = 189844
REMARK  5 active torsions:
REMARK  status: ('A' for Active; 'I' for Inactive)
REMARK    1  A    between atoms: C_5  and  N_16
REMARK    2  A    between atoms: C_10  and  O_19
REMARK    3  A    between atoms: O_19  and  P_20
REMARK    4  A    between atoms: P_20  and  O_22
REMARK    5  A    between atoms: P_20  and  O_24
REMARK                            x       y       z     vdW  Elec       q    Type
REMARK                         _______ _______ _______ _____ _____    ______ ____
ROOT
ATOM      1 CL   UNL     1     -41.362  25.385   0.696  0.00  0.00    -0.086 Cl
ATOM      2  N   UNL     1     -36.762  27.145   1.917  0.00  0.00    -0.410 NA
ATOM      3  C   UNL     1     -35.449  26.263   3.731  0.00  0.00    +0.025 C 
ATOM      4  C   UNL     1     -37.641  25.337   3.239  0.00  0.00    +0.022 C 
ATOM      5  C   UNL     1     -36.473  25.352   4.008  0.00  0.00    +0.101 C 
ATOM      6  C   UNL     1     -35.639  27.154   2.660  0.00  0.00    +0.111 C 
ATOM      7  C   UNL     1     -37.745  26.264   2.189  0.00  0.00    +0.111 C 
ATOM      8  C   UNL     1     -34.264  26.300   4.486  0.00  0.00    +0.037 C 
ATOM      9  C   UNL     1     -34.624  28.065   2.379  0.00  0.00    +0.088 C 
ATOM     10  C   UNL     1     -33.264  27.219   4.184  0.00  0.00    +0.145 C 
ATOM     11  C   UNL     1     -38.686  24.432   3.497  0.00  0.00    +0.000 C 
ATOM     12  C   UNL     1     -33.445  28.103   3.127  0.00  0.00    +0.019 C 
ATOM     13  C   UNL     1     -38.906  26.256   1.421  0.00  0.00    +0.096 C 
ATOM     14  C   UNL     1     -39.836  24.444   2.714  0.00  0.00    +0.007 C 
ATOM     15  C   UNL     1     -39.946  25.357   1.674  0.00  0.00    +0.042 C 
ENDROOT
BRANCH   5  16
ATOM     16  N   UNL     1     -36.325  24.432   5.082  0.00  0.00    -0.315 NA
ATOM     17  H   UNL     1     -37.093  24.226   5.662  0.00  0.00    +0.119 HD
ATOM     18  H   UNL     1     -35.456  23.999   5.244  0.00  0.00    +0.119 HD
ENDBRANCH   5  16
BRANCH  10  19
ATOM     19  O   UNL     1     -32.119  27.252   4.916  0.00  0.00    -0.403 OA
BRANCH  19  20
ATOM     20  P   UNL     1     -31.904  28.099   6.278  0.00  0.00    +0.528 P 
ATOM     21  O   UNL     1     -32.272  29.553   6.192  0.00  0.00    -0.216 OA
BRANCH  20  22
ATOM     22  O   UNL     1     -32.687  27.243   7.404  0.00  0.00    -0.293 OA
ATOM     23  H   UNL     1     -32.467  27.587   8.284  0.00  0.00    +0.223 HD
ENDBRANCH  20  22
BRANCH  20  24
ATOM     24  O   UNL     1     -30.348  27.823   6.631  0.00  0.00    -0.293 OA
ATOM     25  H   UNL     1     -29.879  28.669   6.704  0.00  0.00    +0.223 HD
ENDBRANCH  20  24
ENDBRANCH  19  20
ENDBRANCH  10  19
TORSDOF 5
ENDMDL
MODEL 6
REMARK VINA RESULT:      -5.8      2.301      3.685
REMARK  Name = 189844
REMARK  5 active torsions:
REMARK  status: ('A' for Active; 'I' for Inactive)
REMARK    1  A    between atoms: C_5  and  N_16
REMARK    2  A    between atoms: C_10  and  O_19
REMARK    3  A    between atoms: O_19  and  P_20
REMARK    4  A    between atoms: P_20  and  O_22
REMARK    5  A    between atoms: P_20  and  O_24
REMARK                            x       y       z     vdW  Elec       q    Type
REMARK                         _______ _______ _______ _____ _____    ______ ____
ROOT
ATOM      1 CL   UNL     1     -32.656  28.032   5.061  0.00  0.00    -0.086 Cl
ATOM      2  N   UNL     1     -34.321  24.485   1.836  0.00  0.00    -0.410 NA
ATOM      3  C   UNL     1     -35.651  22.599   2.519  0.00  0.00    +0.025 C 
ATOM      4  C   UNL     1     -34.911  24.235   4.155  0.00  0.00    +0.022 C 
ATOM      5  C   UNL     1     -35.601  23.062   3.838  0.00  0.00    +0.101 C 
ATOM      6  C   UNL     1     -34.987  23.354   1.537  0.00  0.00    +0.111 C 
ATOM      7  C   UNL     1     -34.277  24.925   3.109  0.00  0.00    +0.111 C 
ATOM      8  C   UNL     1     -36.337  21.422   2.171  0.00  0.00    +0.037 C 
ATOM      9  C   UNL     1     -35.032  22.899   0.221  0.00  0.00    +0.088 C 
ATOM     10  C   UNL     1     -36.367  20.990   0.849  0.00  0.00    +0.145 C 
ATOM     11  C   UNL     1     -34.845  24.722   5.473  0.00  0.00    +0.000 C 
ATOM     12  C   UNL     1     -35.713  21.731  -0.128  0.00  0.00    +0.019 C 
ATOM     13  C   UNL     1     -33.587  26.095   3.419  0.00  0.00    +0.096 C 
ATOM     14  C   UNL     1     -34.149  25.894   5.756  0.00  0.00    +0.007 C 
ATOM     15  C   UNL     1     -33.520  26.581   4.727  0.00  0.00    +0.042 C 
ENDROOT
BRANCH   5  16
ATOM     16  N   UNL     1     -36.257  22.330   4.866  0.00  0.00    -0.315 NA
ATOM     17  H   UNL     1     -36.942  22.769   5.420  0.00  0.00    +0.119 HD
ATOM     18  H   UNL     1     -36.027  21.386   5.022  0.00  0.00    +0.119 HD
ENDBRANCH   5  16
BRANCH  10  19
ATOM     19  O   UNL     1     -37.032  19.852   0.515  0.00  0.00    -0.403 OA
BRANCH  19  20
ATOM     20  P   UNL     1     -36.353  18.519  -0.103  0.00  0.00    +0.528 P 
ATOM     21  O   UNL     1     -36.258  18.485  -1.601  0.00  0.00    -0.216 OA
BRANCH  20  22
ATOM     22  O   UNL     1     -34.950  18.386   0.691  0.00  0.00    -0.293 OA
ATOM     23  H   UNL     1     -35.119  18.091   1.599  0.00  0.00    +0.223 HD
ENDBRANCH  20  22
BRANCH  20  24
ATOM     24  O   UNL     1     -37.246  17.331   0.538  0.00  0.00    -0.293 OA
ATOM     25  H   UNL     1     -38.185  17.504   0.365  0.00  0.00    +0.223 HD
ENDBRANCH  20  24
ENDBRANCH  19  20
ENDBRANCH  10  19
TORSDOF 5
ENDMDL
MODEL 7
REMARK VINA RESULT:      -5.7      5.777      8.119
REMARK  Name = 189844
REMARK  5 active torsions:
REMARK  status: ('A' for Active; 'I' for Inactive)
REMARK    1  A    between atoms: C_5  and  N_16
REMARK    2  A    between atoms: C_10  and  O_19
REMARK    3  A    between atoms: O_19  and  P_20
REMARK    4  A    between atoms: P_20  and  O_22
REMARK    5  A    between atoms: P_20  and  O_24
REMARK                            x       y       z     vdW  Elec       q    Type
REMARK                         _______ _______ _______ _____ _____    ______ ____
ROOT
ATOM      1 CL   UNL     1     -39.539  18.479  -1.888  0.00  0.00    -0.086 Cl
ATOM      2  N   UNL     1     -38.535  22.246   1.360  0.00  0.00    -0.410 NA
ATOM      3  C   UNL     1     -36.606  22.271   2.799  0.00  0.00    +0.025 C 
ATOM      4  C   UNL     1     -36.982  20.411   1.283  0.00  0.00    +0.022 C 
ATOM      5  C   UNL     1     -36.213  21.038   2.268  0.00  0.00    +0.101 C 
ATOM      6  C   UNL     1     -37.790  22.846   2.308  0.00  0.00    +0.111 C 
ATOM      7  C   UNL     1     -38.151  21.059   0.852  0.00  0.00    +0.111 C 
ATOM      8  C   UNL     1     -35.853  22.924   3.790  0.00  0.00    +0.037 C 
ATOM      9  C   UNL     1     -38.188  24.074   2.834  0.00  0.00    +0.088 C 
ATOM     10  C   UNL     1     -36.271  24.151   4.298  0.00  0.00    +0.145 C 
ATOM     11  C   UNL     1     -36.610  19.171   0.732  0.00  0.00    +0.000 C 
ATOM     12  C   UNL     1     -37.441  24.726   3.818  0.00  0.00    +0.019 C 
ATOM     13  C   UNL     1     -38.921  20.438  -0.128  0.00  0.00    +0.096 C 
ATOM     14  C   UNL     1     -37.398  18.572  -0.247  0.00  0.00    +0.007 C 
ATOM     15  C   UNL     1     -38.555  19.207  -0.678  0.00  0.00    +0.042 C 
ENDROOT
BRANCH   5  16
ATOM     16  N   UNL     1     -35.023  20.417   2.734  0.00  0.00    -0.315 NA
ATOM     17  H   UNL     1     -34.187  20.934   2.788  0.00  0.00    +0.119 HD
ATOM     18  H   UNL     1     -35.034  19.471   3.005  0.00  0.00    +0.119 HD
ENDBRANCH   5  16
BRANCH  10  19
ATOM     19  O   UNL     1     -35.541  24.781   5.255  0.00  0.00    -0.403 OA
BRANCH  19  20
ATOM     20  P   UNL     1     -34.405  25.902   4.978  0.00  0.00    +0.528 P 
ATOM     21  O   UNL     1     -33.312  25.486   4.036  0.00  0.00    -0.216 OA
BRANCH  20  22
ATOM     22  O   UNL     1     -35.243  27.215   4.543  0.00  0.00    -0.293 OA
ATOM     23  H   UNL     1     -36.162  27.124   4.838  0.00  0.00    +0.223 HD
ENDBRANCH  20  22
BRANCH  20  24
ATOM     24  O   UNL     1     -33.897  26.274   6.469  0.00  0.00    -0.293 OA
ATOM     25  H   UNL     1     -33.205  25.650   6.739  0.00  0.00    +0.223 HD
ENDBRANCH  20  24
ENDBRANCH  19  20
ENDBRANCH  10  19
TORSDOF 5
ENDMDL
MODEL 8
REMARK VINA RESULT:      -5.7      6.272      7.842
REMARK  Name = 189844
REMARK  5 active torsions:
REMARK  status: ('A' for Active; 'I' for Inactive)
REMARK    1  A    between atoms: C_5  and  N_16
REMARK    2  A    between atoms: C_10  and  O_19
REMARK    3  A    between atoms: O_19  and  P_20
REMARK    4  A    between atoms: P_20  and  O_22
REMARK    5  A    between atoms: P_20  and  O_24
REMARK                            x       y       z     vdW  Elec       q    Type
REMARK                         _______ _______ _______ _____ _____    ______ ____
ROOT
ATOM      1 CL   UNL     1     -34.887  20.090   2.542  0.00  0.00    -0.086 Cl
ATOM      2  N   UNL     1     -38.965  23.007   1.764  0.00  0.00    -0.410 NA
ATOM      3  C   UNL     1     -39.225  25.198   2.727  0.00  0.00    +0.025 C 
ATOM      4  C   UNL     1     -37.225  23.892   3.171  0.00  0.00    +0.022 C 
ATOM      5  C   UNL     1     -37.978  25.057   3.344  0.00  0.00    +0.101 C 
ATOM      6  C   UNL     1     -39.685  24.133   1.934  0.00  0.00    +0.111 C 
ATOM      7  C   UNL     1     -37.764  22.878   2.361  0.00  0.00    +0.111 C 
ATOM      8  C   UNL     1     -40.004  26.358   2.884  0.00  0.00    +0.037 C 
ATOM      9  C   UNL     1     -40.927  24.265   1.317  0.00  0.00    +0.088 C 
ATOM     10  C   UNL     1     -41.240  26.466   2.255  0.00  0.00    +0.145 C 
ATOM     11  C   UNL     1     -35.969  23.725   3.781  0.00  0.00    +0.000 C 
ATOM     12  C   UNL     1     -41.702  25.417   1.470  0.00  0.00    +0.019 C 
ATOM     13  C   UNL     1     -37.020  21.715   2.186  0.00  0.00    +0.096 C 
ATOM     14  C   UNL     1     -35.244  22.552   3.589  0.00  0.00    +0.007 C 
ATOM     15  C   UNL     1     -35.771  21.546   2.789  0.00  0.00    +0.042 C 
ENDROOT
BRANCH   5  16
ATOM     16  N   UNL     1     -37.472  26.108   4.156  0.00  0.00    -0.315 NA
ATOM     17  H   UNL     1     -36.628  26.554   3.915  0.00  0.00    +0.119 HD
ATOM     18  H   UNL     1     -37.966  26.392   4.959  0.00  0.00    +0.119 HD
ENDBRANCH   5  16
BRANCH  10  19
ATOM     19  O   UNL     1     -41.990  27.589   2.407  0.00  0.00    -0.403 OA
BRANCH  19  20
ATOM     20  P   UNL     1     -42.794  28.002   3.751  0.00  0.00    +0.528 P 
ATOM     21  O   UNL     1     -43.710  26.946   4.299  0.00  0.00    -0.216 OA
BRANCH  20  22
ATOM     22  O   UNL     1     -41.640  28.521   4.758  0.00  0.00    -0.293 OA
ATOM     23  H   UNL     1     -41.665  28.000   5.575  0.00  0.00    +0.223 HD
ENDBRANCH  20  22
BRANCH  20  24
ATOM     24  O   UNL     1     -43.539  29.372   3.317  0.00  0.00    -0.293 OA
ATOM     25  H   UNL     1     -44.385  29.442   3.786  0.00  0.00    +0.223 HD
ENDBRANCH  20  24
ENDBRANCH  19  20
ENDBRANCH  10  19
TORSDOF 5
ENDMDL
MODEL 9
REMARK VINA RESULT:      -5.7      5.471      7.504
REMARK  Name = 189844
REMARK  5 active torsions:
REMARK  status: ('A' for Active; 'I' for Inactive)
REMARK    1  A    between atoms: C_5  and  N_16
REMARK    2  A    between atoms: C_10  and  O_19
REMARK    3  A    between atoms: O_19  and  P_20
REMARK    4  A    between atoms: P_20  and  O_22
REMARK    5  A    between atoms: P_20  and  O_24
REMARK                            x       y       z     vdW  Elec       q    Type
REMARK                         _______ _______ _______ _____ _____    ______ ____
ROOT
ATOM      1 CL   UNL     1     -37.080  17.691  -1.402  0.00  0.00    -0.086 Cl
ATOM      2  N   UNL     1     -35.824  20.272   2.782  0.00  0.00    -0.410 NA
ATOM      3  C   UNL     1     -35.662  22.672   2.856  0.00  0.00    +0.025 C 
ATOM      4  C   UNL     1     -36.273  21.546   0.792  0.00  0.00    +0.022 C 
ATOM      5  C   UNL     1     -36.016  22.721   1.503  0.00  0.00    +0.101 C 
ATOM      6  C   UNL     1     -35.577  21.408   3.463  0.00  0.00    +0.111 C 
ATOM      7  C   UNL     1     -36.164  20.326   1.480  0.00  0.00    +0.111 C 
ATOM      8  C   UNL     1     -35.397  23.838   3.595  0.00  0.00    +0.037 C 
ATOM      9  C   UNL     1     -35.224  21.351   4.809  0.00  0.00    +0.088 C 
ATOM     10  C   UNL     1     -35.048  23.754   4.940  0.00  0.00    +0.145 C 
ATOM     11  C   UNL     1     -36.631  21.567  -0.569  0.00  0.00    +0.000 C 
ATOM     12  C   UNL     1     -34.962  22.508   5.548  0.00  0.00    +0.019 C 
ATOM     13  C   UNL     1     -36.418  19.152   0.777  0.00  0.00    +0.096 C 
ATOM     14  C   UNL     1     -36.880  20.378  -1.249  0.00  0.00    +0.007 C 
ATOM     15  C   UNL     1     -36.774  19.169  -0.574  0.00  0.00    +0.042 C 
ENDROOT
BRANCH   5  16
ATOM     16  N   UNL     1     -36.113  23.978   0.846  0.00  0.00    -0.315 NA
ATOM     17  H   UNL     1     -36.961  24.249   0.426  0.00  0.00    +0.119 HD
ATOM     18  H   UNL     1     -35.334  24.578   0.812  0.00  0.00    +0.119 HD
ENDBRANCH   5  16
BRANCH  10  19
ATOM     19  O   UNL     1     -34.794  24.883   5.653  0.00  0.00    -0.403 OA
BRANCH  19  20
ATOM     20  P   UNL     1     -34.033  26.196   5.088  0.00  0.00    +0.528 P 
ATOM     21  O   UNL     1     -32.991  25.930   4.040  0.00  0.00    -0.216 OA
BRANCH  20  22
ATOM     22  O   UNL     1     -35.232  27.187   4.647  0.00  0.00    -0.293 OA
ATOM     23  H   UNL     1     -35.600  27.620   5.433  0.00  0.00    +0.223 HD
ENDBRANCH  20  22
BRANCH  20  24
ATOM     24  O   UNL     1     -33.466  26.891   6.435  0.00  0.00    -0.293 OA
ATOM     25  H   UNL     1     -33.673  26.330   7.199  0.00  0.00    +0.223 HD
ENDBRANCH  20  24
ENDBRANCH  19  20
ENDBRANCH  10  19
TORSDOF 5
ENDMDL
