MODEL 1
REMARK VINA RESULT:      -5.3      0.000      0.000
REMARK  Name = 193456
REMARK  11 active torsions:
REMARK  status: ('A' for Active; 'I' for Inactive)
REMARK    1  A    between atoms: C_1  and  O_2
REMARK    2  A    between atoms: C_1  and  C_4
REMARK    3  A    between atoms: C_1  and  C_15
REMARK    4  A    between atoms: C_4  and  O_5
REMARK    5  A    between atoms: C_4  and  CA_7
REMARK    6  A    between atoms: CA_7  and  N_9
REMARK    7  A    between atoms: CA_7  and  C_14
REMARK    8  A    between atoms: C_15  and  O_16
REMARK    9  A    between atoms: C_15  and  C_18
REMARK   10  A    between atoms: C_18  and  O_19
REMARK   11  A    between atoms: O_19  and  S_20
REMARK                            x       y       z     vdW  Elec       q    Type
REMARK                         _______ _______ _______ _____ _____    ______ ____
ROOT
ATOM      1  C   UNL     1     -35.482  26.504   3.797  0.00  0.00    +0.169 C 
ENDROOT
BRANCH   1   2
ATOM      2  O   UNL     1     -35.566  26.582   5.227  0.00  0.00    -0.379 OA
ATOM      3  H   UNL     1     -36.267  27.205   5.477  0.00  0.00    +0.211 HD
ENDBRANCH   1   2
BRANCH   1   4
ATOM      4  C   UNL     1     -36.715  25.720   3.302  0.00  0.00    +0.165 C 
BRANCH   4   5
ATOM      5  O   UNL     1     -37.830  26.091   4.127  0.00  0.00    -0.380 OA
ATOM      6  H   UNL     1     -38.631  26.144   3.581  0.00  0.00    +0.211 HD
ENDBRANCH   4   5
BRANCH   4   7
ATOM      7  CA  UNL     1     -36.576  24.193   3.341  0.00  0.00    +0.166 C 
BRANCH   7   9
ATOM      8  O   UNL     1     -35.297  21.682   4.040  0.00  0.00    -0.275 OA
ATOM      9  N   UNL     1     -36.326  23.675   4.663  0.00  0.00    -0.297 N 
ATOM     10  C   UNL     1     -35.705  22.458   4.899  0.00  0.00    +0.223 C 
ATOM     11  C   UNL     1     -35.546  22.172   6.368  0.00  0.00    +0.095 C 
ATOM     12  H   UNL     1     -36.610  24.213   5.437  0.00  0.00    +0.150 HD
ENDBRANCH   7   9
BRANCH   7  14
ATOM     13  O   UNL     1     -38.964  23.832   3.169  0.00  0.00    -0.286 OA
ATOM     14  C   UNL     1     -37.828  23.505   2.831  0.00  0.00    +0.229 C 
ENDBRANCH   7  14
ENDBRANCH   4   7
ENDBRANCH   1   4
BRANCH   1  15
ATOM     15  C   UNL     1     -34.120  25.907   3.407  0.00  0.00    +0.172 C 
BRANCH  15  16
ATOM     16  O   UNL     1     -33.590  25.141   4.491  0.00  0.00    -0.379 OA
ATOM     17  H   UNL     1     -34.320  24.755   5.000  0.00  0.00    +0.211 HD
ENDBRANCH  15  16
BRANCH  15  18
ATOM     18  C   UNL     1     -33.095  26.991   3.071  0.00  0.00    +0.208 C 
BRANCH  18  19
ATOM     19  O   UNL     1     -32.062  26.968   4.052  0.00  0.00    -0.198 OA
BRANCH  19  20
ATOM     20  S   UNL     1     -32.072  28.064   5.262  0.00  0.00    +0.239 S 
ATOM     21  O   UNL     1     -32.989  27.357   6.412  0.00  0.00    -0.116 OA
ATOM     22  O   UNL     1     -32.765  29.258   4.813  0.00  0.00    -0.022 OA
ATOM     23  O   UNL     1     -30.720  28.156   5.778  0.00  0.00    -0.116 OA
ENDBRANCH  19  20
ENDBRANCH  18  19
ENDBRANCH  15  18
ENDBRANCH   1  15
TORSDOF 11
ENDMDL
MODEL 2
REMARK VINA RESULT:      -5.2      2.070      2.876
REMARK  Name = 193456
REMARK  11 active torsions:
REMARK  status: ('A' for Active; 'I' for Inactive)
REMARK    1  A    between atoms: C_1  and  O_2
REMARK    2  A    between atoms: C_1  and  C_4
REMARK    3  A    between atoms: C_1  and  C_15
REMARK    4  A    between atoms: C_4  and  O_5
REMARK    5  A    between atoms: C_4  and  CA_7
REMARK    6  A    between atoms: CA_7  and  N_9
REMARK    7  A    between atoms: CA_7  and  C_14
REMARK    8  A    between atoms: C_15  and  O_16
REMARK    9  A    between atoms: C_15  and  C_18
REMARK   10  A    between atoms: C_18  and  O_19
REMARK   11  A    between atoms: O_19  and  S_20
REMARK                            x       y       z     vdW  Elec       q    Type
REMARK                         _______ _______ _______ _____ _____    ______ ____
ROOT
ATOM      1  C   UNL     1     -35.056  24.823   4.106  0.00  0.00    +0.169 C 
ENDROOT
BRANCH   1   2
ATOM      2  O   UNL     1     -34.731  25.644   2.977  0.00  0.00    -0.379 OA
ATOM      3  H   UNL     1     -33.924  25.310   2.554  0.00  0.00    +0.211 HD
ENDBRANCH   1   2
BRANCH   1   4
ATOM      4  C   UNL     1     -36.221  23.902   3.690  0.00  0.00    +0.165 C 
BRANCH   4   5
ATOM      5  O   UNL     1     -37.382  24.302   4.432  0.00  0.00    -0.380 OA
ATOM      6  H   UNL     1     -37.124  24.525   5.341  0.00  0.00    +0.211 HD
ENDBRANCH   4   5
BRANCH   4   7
ATOM      7  CA  UNL     1     -35.989  22.405   3.934  0.00  0.00    +0.166 C 
BRANCH   7   9
ATOM      8  O   UNL     1     -36.532  20.081   2.281  0.00  0.00    -0.275 OA
ATOM      9  N   UNL     1     -35.114  21.797   2.963  0.00  0.00    -0.297 N 
ATOM     10  C   UNL     1     -35.463  20.682   2.217  0.00  0.00    +0.223 C 
ATOM     11  C   UNL     1     -34.376  20.270   1.260  0.00  0.00    +0.095 C 
ATOM     12  H   UNL     1     -34.224  22.194   2.823  0.00  0.00    +0.150 HD
ENDBRANCH   7   9
BRANCH   7  14
ATOM     13  O   UNL     1     -36.010  22.218   6.347  0.00  0.00    -0.286 OA
ATOM     14  C   UNL     1     -35.375  22.149   5.297  0.00  0.00    +0.229 C 
ENDBRANCH   7  14
ENDBRANCH   4   7
ENDBRANCH   1   4
BRANCH   1  15
ATOM     15  C   UNL     1     -35.330  25.727   5.320  0.00  0.00    +0.172 C 
BRANCH  15  16
ATOM     16  O   UNL     1     -35.979  26.929   4.903  0.00  0.00    -0.379 OA
ATOM     17  H   UNL     1     -36.940  26.809   4.950  0.00  0.00    +0.211 HD
ENDBRANCH  15  16
BRANCH  15  18
ATOM     18  C   UNL     1     -34.040  26.130   6.036  0.00  0.00    +0.208 C 
BRANCH  18  19
ATOM     19  O   UNL     1     -33.013  26.316   5.067  0.00  0.00    -0.198 OA
BRANCH  19  20
ATOM     20  S   UNL     1     -32.481  27.821   4.730  0.00  0.00    +0.239 S 
ATOM     21  O   UNL     1     -33.679  28.458   3.824  0.00  0.00    -0.116 OA
ATOM     22  O   UNL     1     -31.295  27.729   3.897  0.00  0.00    -0.022 OA
ATOM     23  O   UNL     1     -32.439  28.558   5.979  0.00  0.00    -0.116 OA
ENDBRANCH  19  20
ENDBRANCH  18  19
ENDBRANCH  15  18
ENDBRANCH   1  15
TORSDOF 11
ENDMDL
MODEL 3
REMARK VINA RESULT:      -5.2      2.855      5.829
REMARK  Name = 193456
REMARK  11 active torsions:
REMARK  status: ('A' for Active; 'I' for Inactive)
REMARK    1  A    between atoms: C_1  and  O_2
REMARK    2  A    between atoms: C_1  and  C_4
REMARK    3  A    between atoms: C_1  and  C_15
REMARK    4  A    between atoms: C_4  and  O_5
REMARK    5  A    between atoms: C_4  and  CA_7
REMARK    6  A    between atoms: CA_7  and  N_9
REMARK    7  A    between atoms: CA_7  and  C_14
REMARK    8  A    between atoms: C_15  and  O_16
REMARK    9  A    between atoms: C_15  and  C_18
REMARK   10  A    between atoms: C_18  and  O_19
REMARK   11  A    between atoms: O_19  and  S_20
REMARK                            x       y       z     vdW  Elec       q    Type
REMARK                         _______ _______ _______ _____ _____    ______ ____
ROOT
ATOM      1  C   UNL     1     -36.731  26.127   2.848  0.00  0.00    +0.169 C 
ENDROOT
BRANCH   1   2
ATOM      2  O   UNL     1     -36.123  26.214   1.553  0.00  0.00    -0.379 OA
ATOM      3  H   UNL     1     -36.560  26.908   1.035  0.00  0.00    +0.211 HD
ENDBRANCH   1   2
BRANCH   1   4
ATOM      4  C   UNL     1     -35.615  26.305   3.898  0.00  0.00    +0.165 C 
BRANCH   4   5
ATOM      5  O   UNL     1     -36.223  26.781   5.108  0.00  0.00    -0.380 OA
ATOM      6  H   UNL     1     -35.678  26.520   5.867  0.00  0.00    +0.211 HD
ENDBRANCH   4   5
BRANCH   4   7
ATOM      7  CA  UNL     1     -34.499  27.283   3.505  0.00  0.00    +0.166 C 
BRANCH   7   9
ATOM      8  O   UNL     1     -34.943  29.056   1.250  0.00  0.00    -0.275 OA
ATOM      9  N   UNL     1     -34.910  28.664   3.544  0.00  0.00    -0.297 N 
ATOM     10  C   UNL     1     -35.097  29.435   2.408  0.00  0.00    +0.223 C 
ATOM     11  C   UNL     1     -35.550  30.833   2.732  0.00  0.00    +0.095 C 
ATOM     12  H   UNL     1     -35.065  29.080   4.423  0.00  0.00    +0.150 HD
ENDBRANCH   7   9
BRANCH   7  14
ATOM     13  O   UNL     1     -33.361  27.300   5.642  0.00  0.00    -0.286 OA
ATOM     14  C   UNL     1     -33.298  27.157   4.423  0.00  0.00    +0.229 C 
ENDBRANCH   7  14
ENDBRANCH   4   7
ENDBRANCH   1   4
BRANCH   1  15
ATOM     15  C   UNL     1     -37.522  24.812   2.943  0.00  0.00    +0.172 C 
BRANCH  15  16
ATOM     16  O   UNL     1     -38.325  24.803   4.124  0.00  0.00    -0.379 OA
ATOM     17  H   UNL     1     -38.725  25.678   4.249  0.00  0.00    +0.211 HD
ENDBRANCH  15  16
BRANCH  15  18
ATOM     18  C   UNL     1     -36.601  23.593   3.010  0.00  0.00    +0.208 C 
BRANCH  18  19
ATOM     19  O   UNL     1     -36.784  22.945   4.265  0.00  0.00    -0.198 OA
BRANCH  19  20
ATOM     20  S   UNL     1     -35.492  22.346   5.062  0.00  0.00    +0.239 S 
ATOM     21  O   UNL     1     -36.063  22.068   6.565  0.00  0.00    -0.116 OA
ATOM     22  O   UNL     1     -34.475  23.378   5.156  0.00  0.00    -0.022 OA
ATOM     23  O   UNL     1     -35.172  21.061   4.471  0.00  0.00    -0.116 OA
ENDBRANCH  19  20
ENDBRANCH  18  19
ENDBRANCH  15  18
ENDBRANCH   1  15
TORSDOF 11
ENDMDL
MODEL 4
REMARK VINA RESULT:      -5.0      1.281      1.756
REMARK  Name = 193456
REMARK  11 active torsions:
REMARK  status: ('A' for Active; 'I' for Inactive)
REMARK    1  A    between atoms: C_1  and  O_2
REMARK    2  A    between atoms: C_1  and  C_4
REMARK    3  A    between atoms: C_1  and  C_15
REMARK    4  A    between atoms: C_4  and  O_5
REMARK    5  A    between atoms: C_4  and  CA_7
REMARK    6  A    between atoms: CA_7  and  N_9
REMARK    7  A    between atoms: CA_7  and  C_14
REMARK    8  A    between atoms: C_15  and  O_16
REMARK    9  A    between atoms: C_15  and  C_18
REMARK   10  A    between atoms: C_18  and  O_19
REMARK   11  A    between atoms: O_19  and  S_20
REMARK                            x       y       z     vdW  Elec       q    Type
REMARK                         _______ _______ _______ _____ _____    ______ ____
ROOT
ATOM      1  C   UNL     1     -36.685  25.847   2.626  0.00  0.00    +0.169 C 
ENDROOT
BRANCH   1   2
ATOM      2  O   UNL     1     -37.586  26.956   2.513  0.00  0.00    -0.379 OA
ATOM      3  H   UNL     1     -37.091  27.786   2.598  0.00  0.00    +0.211 HD
ENDBRANCH   1   2
BRANCH   1   4
ATOM      4  C   UNL     1     -37.507  24.625   3.083  0.00  0.00    +0.165 C 
BRANCH   4   5
ATOM      5  O   UNL     1     -37.949  24.872   4.426  0.00  0.00    -0.380 OA
ATOM      6  H   UNL     1     -37.390  25.555   4.829  0.00  0.00    +0.211 HD
ENDBRANCH   4   5
BRANCH   4   7
ATOM      7  CA  UNL     1     -36.755  23.288   3.064  0.00  0.00    +0.166 C 
BRANCH   7   9
ATOM      8  O   UNL     1     -34.408  23.386   4.770  0.00  0.00    -0.275 OA
ATOM      9  N   UNL     1     -36.597  22.701   4.372  0.00  0.00    -0.297 N 
ATOM     10  C   UNL     1     -35.432  22.802   5.115  0.00  0.00    +0.223 C 
ATOM     11  C   UNL     1     -35.545  22.122   6.453  0.00  0.00    +0.095 C 
ATOM     12  H   UNL     1     -37.356  22.206   4.755  0.00  0.00    +0.150 HD
ENDBRANCH   7   9
BRANCH   7  14
ATOM     13  O   UNL     1     -36.883  21.358   1.608  0.00  0.00    -0.286 OA
ATOM     14  C   UNL     1     -37.467  22.259   2.206  0.00  0.00    +0.229 C 
ENDBRANCH   7  14
ENDBRANCH   4   7
ENDBRANCH   1   4
BRANCH   1  15
ATOM     15  C   UNL     1     -35.519  26.242   3.548  0.00  0.00    +0.172 C 
BRANCH  15  16
ATOM     16  O   UNL     1     -36.015  26.904   4.713  0.00  0.00    -0.379 OA
ATOM     17  H   UNL     1     -36.229  27.825   4.493  0.00  0.00    +0.211 HD
ENDBRANCH  15  16
BRANCH  15  18
ATOM     18  C   UNL     1     -34.543  27.197   2.861  0.00  0.00    +0.208 C 
BRANCH  18  19
ATOM     19  O   UNL     1     -33.230  26.948   3.353  0.00  0.00    -0.198 OA
BRANCH  19  20
ATOM     20  S   UNL     1     -32.587  27.937   4.480  0.00  0.00    +0.239 S 
ATOM     21  O   UNL     1     -33.143  27.328   5.888  0.00  0.00    -0.116 OA
ATOM     22  O   UNL     1     -33.148  29.266   4.318  0.00  0.00    -0.022 OA
ATOM     23  O   UNL     1     -31.149  27.746   4.459  0.00  0.00    -0.116 OA
ENDBRANCH  19  20
ENDBRANCH  18  19
ENDBRANCH  15  18
ENDBRANCH   1  15
TORSDOF 11
ENDMDL
MODEL 5
REMARK VINA RESULT:      -5.0      1.704      2.338
REMARK  Name = 193456
REMARK  11 active torsions:
REMARK  status: ('A' for Active; 'I' for Inactive)
REMARK    1  A    between atoms: C_1  and  O_2
REMARK    2  A    between atoms: C_1  and  C_4
REMARK    3  A    between atoms: C_1  and  C_15
REMARK    4  A    between atoms: C_4  and  O_5
REMARK    5  A    between atoms: C_4  and  CA_7
REMARK    6  A    between atoms: CA_7  and  N_9
REMARK    7  A    between atoms: CA_7  and  C_14
REMARK    8  A    between atoms: C_15  and  O_16
REMARK    9  A    between atoms: C_15  and  C_18
REMARK   10  A    between atoms: C_18  and  O_19
REMARK   11  A    between atoms: O_19  and  S_20
REMARK                            x       y       z     vdW  Elec       q    Type
REMARK                         _______ _______ _______ _____ _____    ______ ____
ROOT
ATOM      1  C   UNL     1     -34.949  24.517   5.097  0.00  0.00    +0.169 C 
ENDROOT
BRANCH   1   2
ATOM      2  O   UNL     1     -34.154  24.294   3.925  0.00  0.00    -0.379 OA
ATOM      3  H   UNL     1     -34.625  23.695   3.323  0.00  0.00    +0.211 HD
ENDBRANCH   1   2
BRANCH   1   4
ATOM      4  C   UNL     1     -36.293  23.789   4.892  0.00  0.00    +0.165 C 
BRANCH   4   5
ATOM      5  O   UNL     1     -36.214  22.525   5.567  0.00  0.00    -0.380 OA
ATOM      6  H   UNL     1     -35.702  21.903   5.027  0.00  0.00    +0.211 HD
ENDBRANCH   4   5
BRANCH   4   7
ATOM      7  CA  UNL     1     -36.678  23.528   3.429  0.00  0.00    +0.166 C 
BRANCH   7   9
ATOM      8  O   UNL     1     -34.708  22.265   1.711  0.00  0.00    -0.275 OA
ATOM      9  N   UNL     1     -36.603  22.137   3.058  0.00  0.00    -0.297 N 
ATOM     10  C   UNL     1     -35.620  21.624   2.227  0.00  0.00    +0.223 C 
ATOM     11  C   UNL     1     -35.760  20.139   2.023  0.00  0.00    +0.095 C 
ATOM     12  H   UNL     1     -37.285  21.522   3.413  0.00  0.00    +0.150 HD
ENDBRANCH   7   9
BRANCH   7  14
ATOM     13  O   UNL     1     -38.718  24.760   3.855  0.00  0.00    -0.286 OA
ATOM     14  C   UNL     1     -38.094  23.985   3.134  0.00  0.00    +0.229 C 
ENDBRANCH   7  14
ENDBRANCH   4   7
ENDBRANCH   1   4
BRANCH   1  15
ATOM     15  C   UNL     1     -35.050  26.031   5.351  0.00  0.00    +0.172 C 
BRANCH  15  16
ATOM     16  O   UNL     1     -36.419  26.441   5.346  0.00  0.00    -0.379 OA
ATOM     17  H   UNL     1     -36.970  25.720   5.002  0.00  0.00    +0.211 HD
ENDBRANCH  15  16
BRANCH  15  18
ATOM     18  C   UNL     1     -34.327  26.842   4.276  0.00  0.00    +0.208 C 
BRANCH  18  19
ATOM     19  O   UNL     1     -32.927  26.812   4.539  0.00  0.00    -0.198 OA
BRANCH  19  20
ATOM     20  S   UNL     1     -32.183  28.149   5.107  0.00  0.00    +0.239 S 
ATOM     21  O   UNL     1     -32.457  28.088   6.714  0.00  0.00    -0.116 OA
ATOM     22  O   UNL     1     -32.857  29.324   4.585  0.00  0.00    -0.022 OA
ATOM     23  O   UNL     1     -30.757  27.974   4.900  0.00  0.00    -0.116 OA
ENDBRANCH  19  20
ENDBRANCH  18  19
ENDBRANCH  15  18
ENDBRANCH   1  15
TORSDOF 11
ENDMDL
MODEL 6
REMARK VINA RESULT:      -4.9      2.794      6.045
REMARK  Name = 193456
REMARK  11 active torsions:
REMARK  status: ('A' for Active; 'I' for Inactive)
REMARK    1  A    between atoms: C_1  and  O_2
REMARK    2  A    between atoms: C_1  and  C_4
REMARK    3  A    between atoms: C_1  and  C_15
REMARK    4  A    between atoms: C_4  and  O_5
REMARK    5  A    between atoms: C_4  and  CA_7
REMARK    6  A    between atoms: CA_7  and  N_9
REMARK    7  A    between atoms: CA_7  and  C_14
REMARK    8  A    between atoms: C_15  and  O_16
REMARK    9  A    between atoms: C_15  and  C_18
REMARK   10  A    between atoms: C_18  and  O_19
REMARK   11  A    between atoms: O_19  and  S_20
REMARK                            x       y       z     vdW  Elec       q    Type
REMARK                         _______ _______ _______ _____ _____    ______ ____
ROOT
ATOM      1  C   UNL     1     -35.840  24.425   4.570  0.00  0.00    +0.169 C 
ENDROOT
BRANCH   1   2
ATOM      2  O   UNL     1     -36.312  23.379   5.430  0.00  0.00    -0.379 OA
ATOM      3  H   UNL     1     -36.253  23.669   6.354  0.00  0.00    +0.211 HD
ENDBRANCH   1   2
BRANCH   1   4
ATOM      4  C   UNL     1     -35.433  25.613   5.465  0.00  0.00    +0.165 C 
BRANCH   4   5
ATOM      5  O   UNL     1     -36.443  26.625   5.336  0.00  0.00    -0.380 OA
ATOM      6  H   UNL     1     -37.177  26.282   4.803  0.00  0.00    +0.211 HD
ENDBRANCH   4   5
BRANCH   4   7
ATOM      7  CA  UNL     1     -34.075  26.246   5.132  0.00  0.00    +0.166 C 
BRANCH   7   9
ATOM      8  O   UNL     1     -33.983  26.447   2.237  0.00  0.00    -0.275 OA
ATOM      9  N   UNL     1     -34.182  27.441   4.333  0.00  0.00    -0.297 N 
ATOM     10  C   UNL     1     -34.126  27.438   2.948  0.00  0.00    +0.223 C 
ATOM     11  C   UNL     1     -34.289  28.816   2.365  0.00  0.00    +0.095 C 
ATOM     12  H   UNL     1     -34.301  28.302   4.795  0.00  0.00    +0.150 HD
ENDBRANCH   7   9
BRANCH   7  14
ATOM     13  O   UNL     1     -32.267  27.271   6.374  0.00  0.00    -0.286 OA
ATOM     14  C   UNL     1     -33.313  26.625   6.387  0.00  0.00    +0.229 C 
ENDBRANCH   7  14
ENDBRANCH   4   7
ENDBRANCH   1   4
BRANCH   1  15
ATOM     15  C   UNL     1     -36.918  24.731   3.517  0.00  0.00    +0.172 C 
BRANCH  15  16
ATOM     16  O   UNL     1     -38.211  24.750   4.125  0.00  0.00    -0.379 OA
ATOM     17  H   UNL     1     -38.703  23.956   3.862  0.00  0.00    +0.211 HD
ENDBRANCH  15  16
BRANCH  15  18
ATOM     18  C   UNL     1     -36.952  23.677   2.409  0.00  0.00    +0.208 C 
BRANCH  18  19
ATOM     19  O   UNL     1     -36.975  22.383   3.004  0.00  0.00    -0.198 OA
BRANCH  19  20
ATOM     20  S   UNL     1     -35.868  21.269   2.562  0.00  0.00    +0.239 S 
ATOM     21  O   UNL     1     -35.235  20.772   3.981  0.00  0.00    -0.116 OA
ATOM     22  O   UNL     1     -34.813  21.924   1.810  0.00  0.00    -0.022 OA
ATOM     23  O   UNL     1     -36.584  20.147   1.986  0.00  0.00    -0.116 OA
ENDBRANCH  19  20
ENDBRANCH  18  19
ENDBRANCH  15  18
ENDBRANCH   1  15
TORSDOF 11
ENDMDL
MODEL 7
REMARK VINA RESULT:      -4.9      1.965      2.588
REMARK  Name = 193456
REMARK  11 active torsions:
REMARK  status: ('A' for Active; 'I' for Inactive)
REMARK    1  A    between atoms: C_1  and  O_2
REMARK    2  A    between atoms: C_1  and  C_4
REMARK    3  A    between atoms: C_1  and  C_15
REMARK    4  A    between atoms: C_4  and  O_5
REMARK    5  A    between atoms: C_4  and  CA_7
REMARK    6  A    between atoms: CA_7  and  N_9
REMARK    7  A    between atoms: CA_7  and  C_14
REMARK    8  A    between atoms: C_15  and  O_16
REMARK    9  A    between atoms: C_15  and  C_18
REMARK   10  A    between atoms: C_18  and  O_19
REMARK   11  A    between atoms: O_19  and  S_20
REMARK                            x       y       z     vdW  Elec       q    Type
REMARK                         _______ _______ _______ _____ _____    ______ ____
ROOT
ATOM      1  C   UNL     1     -36.773  25.537   3.222  0.00  0.00    +0.169 C 
ENDROOT
BRANCH   1   2
ATOM      2  O   UNL     1     -36.728  26.936   2.912  0.00  0.00    -0.379 OA
ATOM      3  H   UNL     1     -36.011  27.105   2.281  0.00  0.00    +0.211 HD
ENDBRANCH   1   2
BRANCH   1   4
ATOM      4  C   UNL     1     -38.154  25.008   2.783  0.00  0.00    +0.165 C 
BRANCH   4   5
ATOM      5  O   UNL     1     -38.929  24.772   3.967  0.00  0.00    -0.380 OA
ATOM      6  H   UNL     1     -38.853  25.537   4.560  0.00  0.00    +0.211 HD
ENDBRANCH   4   5
BRANCH   4   7
ATOM      7  CA  UNL     1     -38.126  23.713   1.961  0.00  0.00    +0.166 C 
BRANCH   7   9
ATOM      8  O   UNL     1     -35.458  22.733   1.371  0.00  0.00    -0.275 OA
ATOM      9  N   UNL     1     -37.424  22.636   2.614  0.00  0.00    -0.297 N 
ATOM     10  C   UNL     1     -36.145  22.238   2.261  0.00  0.00    +0.223 C 
ATOM     11  C   UNL     1     -35.638  21.110   3.119  0.00  0.00    +0.095 C 
ATOM     12  H   UNL     1     -37.876  22.162   3.349  0.00  0.00    +0.150 HD
ENDBRANCH   7   9
BRANCH   7  14
ATOM     13  O   UNL     1     -40.090  22.350   2.343  0.00  0.00    -0.286 OA
ATOM     14  C   UNL     1     -39.526  23.207   1.668  0.00  0.00    +0.229 C 
ENDBRANCH   7  14
ENDBRANCH   4   7
ENDBRANCH   1   4
BRANCH   1  15
ATOM     15  C   UNL     1     -36.434  25.342   4.709  0.00  0.00    +0.172 C 
BRANCH  15  16
ATOM     16  O   UNL     1     -36.601  26.572   5.418  0.00  0.00    -0.379 OA
ATOM     17  H   UNL     1     -37.535  26.833   5.394  0.00  0.00    +0.211 HD
ENDBRANCH  15  16
BRANCH  15  18
ATOM     18  C   UNL     1     -34.987  24.892   4.913  0.00  0.00    +0.208 C 
BRANCH  18  19
ATOM     19  O   UNL     1     -34.154  25.583   3.986  0.00  0.00    -0.198 OA
BRANCH  19  20
ATOM     20  S   UNL     1     -33.397  26.954   4.444  0.00  0.00    +0.239 S 
ATOM     21  O   UNL     1     -34.345  28.136   3.840  0.00  0.00    -0.116 OA
ATOM     22  O   UNL     1     -32.110  27.029   3.777  0.00  0.00    -0.022 OA
ATOM     23  O   UNL     1     -33.473  27.031   5.891  0.00  0.00    -0.116 OA
ENDBRANCH  19  20
ENDBRANCH  18  19
ENDBRANCH  15  18
ENDBRANCH   1  15
TORSDOF 11
ENDMDL
MODEL 8
REMARK VINA RESULT:      -4.9      1.745      2.759
REMARK  Name = 193456
REMARK  11 active torsions:
REMARK  status: ('A' for Active; 'I' for Inactive)
REMARK    1  A    between atoms: C_1  and  O_2
REMARK    2  A    between atoms: C_1  and  C_4
REMARK    3  A    between atoms: C_1  and  C_15
REMARK    4  A    between atoms: C_4  and  O_5
REMARK    5  A    between atoms: C_4  and  CA_7
REMARK    6  A    between atoms: CA_7  and  N_9
REMARK    7  A    between atoms: CA_7  and  C_14
REMARK    8  A    between atoms: C_15  and  O_16
REMARK    9  A    between atoms: C_15  and  C_18
REMARK   10  A    between atoms: C_18  and  O_19
REMARK   11  A    between atoms: O_19  and  S_20
REMARK                            x       y       z     vdW  Elec       q    Type
REMARK                         _______ _______ _______ _____ _____    ______ ____
ROOT
ATOM      1  C   UNL     1     -37.237  25.535   1.931  0.00  0.00    +0.169 C 
ENDROOT
BRANCH   1   2
ATOM      2  O   UNL     1     -38.241  25.987   1.012  0.00  0.00    -0.379 OA
ATOM      3  H   UNL     1     -39.010  25.396   1.056  0.00  0.00    +0.211 HD
ENDBRANCH   1   2
BRANCH   1   4
ATOM      4  C   UNL     1     -37.881  24.458   2.828  0.00  0.00    +0.165 C 
BRANCH   4   5
ATOM      5  O   UNL     1     -38.003  25.004   4.150  0.00  0.00    -0.380 OA
ATOM      6  H   UNL     1     -37.889  25.967   4.112  0.00  0.00    +0.211 HD
ENDBRANCH   4   5
BRANCH   4   7
ATOM      7  CA  UNL     1     -37.103  23.139   2.925  0.00  0.00    +0.166 C 
BRANCH   7   9
ATOM      8  O   UNL     1     -35.032  21.260   3.704  0.00  0.00    -0.275 OA
ATOM      9  N   UNL     1     -36.649  22.840   4.260  0.00  0.00    -0.297 N 
ATOM     10  C   UNL     1     -35.648  21.922   4.535  0.00  0.00    +0.223 C 
ATOM     11  C   UNL     1     -35.351  21.821   6.008  0.00  0.00    +0.095 C 
ATOM     12  H   UNL     1     -37.071  23.312   5.014  0.00  0.00    +0.150 HD
ENDBRANCH   7   9
BRANCH   7  14
ATOM     13  O   UNL     1     -39.145  22.044   2.220  0.00  0.00    -0.286 OA
ATOM     14  C   UNL     1     -37.945  21.960   2.475  0.00  0.00    +0.229 C 
ENDBRANCH   7  14
ENDBRANCH   4   7
ENDBRANCH   1   4
BRANCH   1  15
ATOM     15  C   UNL     1     -36.654  26.750   2.672  0.00  0.00    +0.172 C 
BRANCH  15  16
ATOM     16  O   UNL     1     -36.916  27.947   1.939  0.00  0.00    -0.379 OA
ATOM     17  H   UNL     1     -36.580  28.710   2.435  0.00  0.00    +0.211 HD
ENDBRANCH  15  16
BRANCH  15  18
ATOM     18  C   UNL     1     -35.139  26.643   2.843  0.00  0.00    +0.208 C 
BRANCH  18  19
ATOM     19  O   UNL     1     -34.792  27.064   4.159  0.00  0.00    -0.198 OA
BRANCH  19  20
ATOM     20  S   UNL     1     -34.330  25.958   5.267  0.00  0.00    +0.239 S 
ATOM     21  O   UNL     1     -35.741  25.341   5.804  0.00  0.00    -0.116 OA
ATOM     22  O   UNL     1     -33.691  26.639   6.378  0.00  0.00    -0.022 OA
ATOM     23  O   UNL     1     -33.631  24.900   4.561  0.00  0.00    -0.116 OA
ENDBRANCH  19  20
ENDBRANCH  18  19
ENDBRANCH  15  18
ENDBRANCH   1  15
TORSDOF 11
ENDMDL
MODEL 9
REMARK VINA RESULT:      -4.8      3.154      6.485
REMARK  Name = 193456
REMARK  11 active torsions:
REMARK  status: ('A' for Active; 'I' for Inactive)
REMARK    1  A    between atoms: C_1  and  O_2
REMARK    2  A    between atoms: C_1  and  C_4
REMARK    3  A    between atoms: C_1  and  C_15
REMARK    4  A    between atoms: C_4  and  O_5
REMARK    5  A    between atoms: C_4  and  CA_7
REMARK    6  A    between atoms: CA_7  and  N_9
REMARK    7  A    between atoms: CA_7  and  C_14
REMARK    8  A    between atoms: C_15  and  O_16
REMARK    9  A    between atoms: C_15  and  C_18
REMARK   10  A    between atoms: C_18  and  O_19
REMARK   11  A    between atoms: O_19  and  S_20
REMARK                            x       y       z     vdW  Elec       q    Type
REMARK                         _______ _______ _______ _____ _____    ______ ____
ROOT
ATOM      1  C   UNL     1     -36.928  25.004   4.031  0.00  0.00    +0.169 C 
ENDROOT
BRANCH   1   2
ATOM      2  O   UNL     1     -37.946  25.953   3.683  0.00  0.00    -0.379 OA
ATOM      3  H   UNL     1     -37.608  26.555   3.001  0.00  0.00    +0.211 HD
ENDBRANCH   1   2
BRANCH   1   4
ATOM      4  C   UNL     1     -35.901  25.732   4.922  0.00  0.00    +0.165 C 
BRANCH   4   5
ATOM      5  O   UNL     1     -36.614  26.685   5.724  0.00  0.00    -0.380 OA
ATOM      6  H   UNL     1     -37.350  27.053   5.210  0.00  0.00    +0.211 HD
ENDBRANCH   4   5
BRANCH   4   7
ATOM      7  CA  UNL     1     -34.792  26.475   4.166  0.00  0.00    +0.166 C 
BRANCH   7   9
ATOM      8  O   UNL     1     -34.730  27.385   1.410  0.00  0.00    -0.275 OA
ATOM      9  N   UNL     1     -35.207  27.759   3.658  0.00  0.00    -0.297 N 
ATOM     10  C   UNL     1     -35.140  28.104   2.318  0.00  0.00    +0.223 C 
ATOM     11  C   UNL     1     -35.661  29.492   2.057  0.00  0.00    +0.095 C 
ATOM     12  H   UNL     1     -35.556  28.423   4.296  0.00  0.00    +0.150 HD
ENDBRANCH   7   9
BRANCH   7  14
ATOM     13  O   UNL     1     -33.630  26.710   6.278  0.00  0.00    -0.286 OA
ATOM     14  C   UNL     1     -33.584  26.724   5.050  0.00  0.00    +0.229 C 
ENDBRANCH   7  14
ENDBRANCH   4   7
ENDBRANCH   1   4
BRANCH   1  15
ATOM     15  C   UNL     1     -36.362  24.382   2.744  0.00  0.00    +0.172 C 
BRANCH  15  16
ATOM     16  O   UNL     1     -36.757  25.155   1.608  0.00  0.00    -0.379 OA
ATOM     17  H   UNL     1     -37.033  26.038   1.900  0.00  0.00    +0.211 HD
ENDBRANCH  15  16
BRANCH  15  18
ATOM     18  C   UNL     1     -36.872  22.957   2.524  0.00  0.00    +0.208 C 
BRANCH  18  19
ATOM     19  O   UNL     1     -38.185  22.848   3.065  0.00  0.00    -0.198 OA
BRANCH  19  20
ATOM     20  S   UNL     1     -39.479  22.978   2.078  0.00  0.00    +0.239 S 
ATOM     21  O   UNL     1     -38.817  23.111   0.593  0.00  0.00    -0.116 OA
ATOM     22  O   UNL     1     -40.173  24.220   2.369  0.00  0.00    -0.022 OA
ATOM     23  O   UNL     1     -40.193  21.716   2.127  0.00  0.00    -0.116 OA
ENDBRANCH  19  20
ENDBRANCH  18  19
ENDBRANCH  15  18
ENDBRANCH   1  15
TORSDOF 11
ENDMDL
