MODEL 1
REMARK VINA RESULT:      -5.6      0.000      0.000
REMARK  Name = 192697
REMARK  11 active torsions:
REMARK  status: ('A' for Active; 'I' for Inactive)
REMARK    1  A    between atoms: N_1  and  C_3
REMARK    2  A    between atoms: N_1  and  C_17
REMARK    3  A    between atoms: C_6  and  S_13
REMARK    4  A    between atoms: C_17  and  C_18
REMARK    5  A    between atoms: C_18  and  N_19
REMARK    6  A    between atoms: N_19  and  C_21
REMARK    7  A    between atoms: N_19  and  C_27
REMARK    8  A    between atoms: C_21  and  C_22
REMARK    9  A    between atoms: C_22  and  N_23
REMARK   10  A    between atoms: C_27  and  C_28
REMARK   11  A    between atoms: C_28  and  N_29
REMARK                            x       y       z     vdW  Elec       q    Type
REMARK                         _______ _______ _______ _____ _____    ______ ____
ROOT
ATOM      1  N   UNL     1     -35.035  24.143   4.926  0.00  0.00    -0.335 N 
ATOM      2  H   UNL     1     -34.951  23.638   5.768  0.00  0.00    +0.147 HD
ENDROOT
BRANCH   1   3
ATOM      3  C   UNL     1     -36.210  23.984   4.153  0.00  0.00    +0.045 C 
ATOM      4  C   UNL     1     -36.428  22.838   3.372  0.00  0.00    +0.014 C 
ATOM      5  C   UNL     1     -37.620  22.731   2.617  0.00  0.00    +0.019 C 
ATOM      6  C   UNL     1     -37.838  21.584   1.836  0.00  0.00    +0.112 C 
ATOM      7  C   UNL     1     -37.155  25.011   4.190  0.00  0.00    +0.014 C 
ATOM      8  C   UNL     1     -35.487  21.796   3.323  0.00  0.00    +0.001 C 
ATOM      9  C   UNL     1     -38.560  23.773   2.666  0.00  0.00    +0.001 C 
ATOM     10  C   UNL     1     -38.328  24.905   3.448  0.00  0.00    +0.001 C 
ATOM     11  C   UNL     1     -36.892  20.557   1.799  0.00  0.00    +0.019 C 
ATOM     12  C   UNL     1     -35.720  20.664   2.541  0.00  0.00    +0.001 C 
BRANCH   6  13
ATOM     13  S   UNL     1     -39.284  21.353   0.865  0.00  0.00    +0.042 S 
ATOM     14  O   UNL     1     -39.026  19.959   0.056  0.00  0.00    -0.065 OA
ATOM     15  O   UNL     1     -40.391  21.125   1.775  0.00  0.00    -0.065 OA
ATOM     16  O   UNL     1     -39.313  22.440  -0.096  0.00  0.00    -0.065 OA
ENDBRANCH   6  13
ENDBRANCH   1   3
BRANCH   1  17
ATOM     17  C   UNL     1     -33.966  25.005   4.536  0.00  0.00    +0.064 C 
BRANCH  17  18
ATOM     18  C   UNL     1     -33.889  26.204   5.477  0.00  0.00    -0.056 C 
BRANCH  18  19
ATOM     19  N   UNL     1     -33.616  27.421   4.719  0.00  0.00    +0.385 N 
ATOM     20  H   UNL     1     -34.374  28.081   4.892  0.00  0.00    -0.080 HD
BRANCH  19  21
ATOM     21  C   UNL     1     -32.359  28.030   5.159  0.00  0.00    -0.102 C 
BRANCH  21  22
ATOM     22  C   UNL     1     -32.150  27.783   6.651  0.00  0.00    -0.110 C 
BRANCH  22  23
ATOM     23  N   UNL     1     -31.695  29.006   7.304  0.00  0.00    +0.379 N 
ATOM     24  H   UNL     1     -32.301  29.780   7.038  0.00  0.00    -0.089 HD
ATOM     25  H   UNL     1     -30.738  29.209   7.016  0.00  0.00    -0.089 HD
ATOM     26  H   UNL     1     -31.725  28.881   8.316  0.00  0.00    -0.089 HD
ENDBRANCH  22  23
ENDBRANCH  21  22
ENDBRANCH  19  21
BRANCH  19  27
ATOM     27  C   UNL     1     -33.566  27.133   3.285  0.00  0.00    -0.102 C 
BRANCH  27  28
ATOM     28  C   UNL     1     -34.162  28.295   2.495  0.00  0.00    -0.110 C 
BRANCH  28  29
ATOM     29  N   UNL     1     -35.458  28.670   3.051  0.00  0.00    +0.379 N 
ATOM     30  H   UNL     1     -36.201  28.307   2.454  0.00  0.00    -0.089 HD
ATOM     31  H   UNL     1     -35.526  29.687   3.099  0.00  0.00    -0.089 HD
ATOM     32  H   UNL     1     -35.552  28.279   3.987  0.00  0.00    -0.089 HD
ENDBRANCH  28  29
ENDBRANCH  27  28
ENDBRANCH  19  27
ENDBRANCH  18  19
ENDBRANCH  17  18
ENDBRANCH   1  17
TORSDOF 11
ENDMDL
MODEL 2
REMARK VINA RESULT:      -5.6      5.320      8.242
REMARK  Name = 192697
REMARK  11 active torsions:
REMARK  status: ('A' for Active; 'I' for Inactive)
REMARK    1  A    between atoms: N_1  and  C_3
REMARK    2  A    between atoms: N_1  and  C_17
REMARK    3  A    between atoms: C_6  and  S_13
REMARK    4  A    between atoms: C_17  and  C_18
REMARK    5  A    between atoms: C_18  and  N_19
REMARK    6  A    between atoms: N_19  and  C_21
REMARK    7  A    between atoms: N_19  and  C_27
REMARK    8  A    between atoms: C_21  and  C_22
REMARK    9  A    between atoms: C_22  and  N_23
REMARK   10  A    between atoms: C_27  and  C_28
REMARK   11  A    between atoms: C_28  and  N_29
REMARK                            x       y       z     vdW  Elec       q    Type
REMARK                         _______ _______ _______ _____ _____    ______ ____
ROOT
ATOM      1  N   UNL     1     -36.029  20.481   2.009  0.00  0.00    -0.335 N 
ATOM      2  H   UNL     1     -36.622  20.130   2.712  0.00  0.00    +0.147 HD
ENDROOT
BRANCH   1   3
ATOM      3  C   UNL     1     -35.587  21.824   2.100  0.00  0.00    +0.045 C 
ATOM      4  C   UNL     1     -35.364  22.443   3.340  0.00  0.00    +0.014 C 
ATOM      5  C   UNL     1     -34.924  23.787   3.374  0.00  0.00    +0.019 C 
ATOM      6  C   UNL     1     -34.700  24.406   4.615  0.00  0.00    +0.112 C 
ATOM      7  C   UNL     1     -35.380  22.521   0.908  0.00  0.00    +0.014 C 
ATOM      8  C   UNL     1     -35.568  21.756   4.548  0.00  0.00    +0.001 C 
ATOM      9  C   UNL     1     -34.720  24.474   2.166  0.00  0.00    +0.001 C 
ATOM     10  C   UNL     1     -34.947  23.843   0.942  0.00  0.00    +0.001 C 
ATOM     11  C   UNL     1     -34.908  23.708   5.806  0.00  0.00    +0.019 C 
ATOM     12  C   UNL     1     -35.341  22.386   5.772  0.00  0.00    +0.001 C 
BRANCH   6  13
ATOM     13  S   UNL     1     -34.153  26.069   4.765  0.00  0.00    +0.042 S 
ATOM     14  O   UNL     1     -33.907  26.285   6.364  0.00  0.00    -0.065 OA
ATOM     15  O   UNL     1     -32.859  26.165   4.114  0.00  0.00    -0.065 OA
ATOM     16  O   UNL     1     -35.263  26.907   4.355  0.00  0.00    -0.065 OA
ENDBRANCH   6  13
ENDBRANCH   1   3
BRANCH   1  17
ATOM     17  C   UNL     1     -35.649  19.616   0.939  0.00  0.00    +0.064 C 
BRANCH  17  18
ATOM     18  C   UNL     1     -34.172  19.250   1.059  0.00  0.00    -0.056 C 
BRANCH  18  19
ATOM     19  N   UNL     1     -33.987  17.823   0.813  0.00  0.00    +0.385 N 
ATOM     20  H   UNL     1     -34.418  17.309   1.579  0.00  0.00    -0.080 HD
BRANCH  19  21
ATOM     21  C   UNL     1     -34.639  17.428  -0.438  0.00  0.00    -0.102 C 
BRANCH  21  22
ATOM     22  C   UNL     1     -34.746  15.908  -0.517  0.00  0.00    -0.110 C 
BRANCH  22  23
ATOM     23  N   UNL     1     -35.664  15.415   0.504  0.00  0.00    +0.379 N 
ATOM     24  H   UNL     1     -36.369  14.821   0.069  0.00  0.00    -0.089 HD
ATOM     25  H   UNL     1     -36.120  16.204   0.961  0.00  0.00    -0.089 HD
ATOM     26  H   UNL     1     -35.144  14.875   1.196  0.00  0.00    -0.089 HD
ENDBRANCH  22  23
ENDBRANCH  21  22
ENDBRANCH  19  21
BRANCH  19  27
ATOM     27  C   UNL     1     -32.563  17.489   0.770  0.00  0.00    -0.102 C 
BRANCH  27  28
ATOM     28  C   UNL     1     -31.730  18.758   0.614  0.00  0.00    -0.110 C 
BRANCH  28  29
ATOM     29  N   UNL     1     -30.932  18.689  -0.606  0.00  0.00    +0.379 N 
ATOM     30  H   UNL     1     -31.477  18.244  -1.344  0.00  0.00    -0.089 HD
ATOM     31  H   UNL     1     -30.088  18.143  -0.429  0.00  0.00    -0.089 HD
ATOM     32  H   UNL     1     -30.672  19.631  -0.896  0.00  0.00    -0.089 HD
ENDBRANCH  28  29
ENDBRANCH  27  28
ENDBRANCH  19  27
ENDBRANCH  18  19
ENDBRANCH  17  18
ENDBRANCH   1  17
TORSDOF 11
ENDMDL
MODEL 3
REMARK VINA RESULT:      -5.5      5.414      8.526
REMARK  Name = 192697
REMARK  11 active torsions:
REMARK  status: ('A' for Active; 'I' for Inactive)
REMARK    1  A    between atoms: N_1  and  C_3
REMARK    2  A    between atoms: N_1  and  C_17
REMARK    3  A    between atoms: C_6  and  S_13
REMARK    4  A    between atoms: C_17  and  C_18
REMARK    5  A    between atoms: C_18  and  N_19
REMARK    6  A    between atoms: N_19  and  C_21
REMARK    7  A    between atoms: N_19  and  C_27
REMARK    8  A    between atoms: C_21  and  C_22
REMARK    9  A    between atoms: C_22  and  N_23
REMARK   10  A    between atoms: C_27  and  C_28
REMARK   11  A    between atoms: C_28  and  N_29
REMARK                            x       y       z     vdW  Elec       q    Type
REMARK                         _______ _______ _______ _____ _____    ______ ____
ROOT
ATOM      1  N   UNL     1     -35.565  20.464   2.397  0.00  0.00    -0.335 N 
ATOM      2  H   UNL     1     -36.489  20.215   2.165  0.00  0.00    +0.147 HD
ENDROOT
BRANCH   1   3
ATOM      3  C   UNL     1     -35.357  21.491   3.350  0.00  0.00    +0.045 C 
ATOM      4  C   UNL     1     -35.197  22.831   2.963  0.00  0.00    +0.014 C 
ATOM      5  C   UNL     1     -34.991  23.818   3.956  0.00  0.00    +0.019 C 
ATOM      6  C   UNL     1     -34.831  25.159   3.570  0.00  0.00    +0.112 C 
ATOM      7  C   UNL     1     -35.316  21.128   4.697  0.00  0.00    +0.014 C 
ATOM      8  C   UNL     1     -35.235  23.213   1.612  0.00  0.00    +0.001 C 
ATOM      9  C   UNL     1     -34.952  23.435   5.307  0.00  0.00    +0.001 C 
ATOM     10  C   UNL     1     -35.114  22.099   5.674  0.00  0.00    +0.001 C 
ATOM     11  C   UNL     1     -34.872  25.521   2.222  0.00  0.00    +0.019 C 
ATOM     12  C   UNL     1     -35.074  24.550   1.247  0.00  0.00    +0.001 C 
BRANCH   6  13
ATOM     13  S   UNL     1     -34.572  26.459   4.723  0.00  0.00    +0.042 S 
ATOM     14  O   UNL     1     -34.626  27.825   3.833  0.00  0.00    -0.065 OA
ATOM     15  O   UNL     1     -35.714  26.483   5.620  0.00  0.00    -0.065 OA
ATOM     16  O   UNL     1     -33.222  26.297   5.231  0.00  0.00    -0.065 OA
ENDBRANCH   6  13
ENDBRANCH   1   3
BRANCH   1  17
ATOM     17  C   UNL     1     -34.489  19.774   1.760  0.00  0.00    +0.064 C 
BRANCH  17  18
ATOM     18  C   UNL     1     -35.001  19.020   0.536  0.00  0.00    -0.056 C 
BRANCH  18  19
ATOM     19  N   UNL     1     -34.417  17.684   0.489  0.00  0.00    +0.385 N 
ATOM     20  H   UNL     1     -34.889  17.105   1.182  0.00  0.00    -0.080 HD
BRANCH  19  21
ATOM     21  C   UNL     1     -34.615  17.083  -0.832  0.00  0.00    -0.102 C 
BRANCH  21  22
ATOM     22  C   UNL     1     -35.758  16.073  -0.783  0.00  0.00    -0.110 C 
BRANCH  22  23
ATOM     23  N   UNL     1     -35.638  15.233   0.404  0.00  0.00    +0.379 N 
ATOM     24  H   UNL     1     -36.557  14.883   0.668  0.00  0.00    -0.089 HD
ATOM     25  H   UNL     1     -35.250  15.783   1.171  0.00  0.00    -0.089 HD
ATOM     26  H   UNL     1     -35.019  14.448   0.203  0.00  0.00    -0.089 HD
ENDBRANCH  22  23
ENDBRANCH  21  22
ENDBRANCH  19  21
BRANCH  19  27
ATOM     27  C   UNL     1     -32.992  17.733   0.816  0.00  0.00    -0.102 C 
BRANCH  27  28
ATOM     28  C   UNL     1     -32.193  16.902  -0.185  0.00  0.00    -0.110 C 
BRANCH  28  29
ATOM     29  N   UNL     1     -31.167  16.130   0.507  0.00  0.00    +0.379 N 
ATOM     30  H   UNL     1     -30.355  16.723   0.680  0.00  0.00    -0.089 HD
ATOM     31  H   UNL     1     -30.891  15.336  -0.071  0.00  0.00    -0.089 HD
ATOM     32  H   UNL     1     -31.536  15.792   1.395  0.00  0.00    -0.089 HD
ENDBRANCH  28  29
ENDBRANCH  27  28
ENDBRANCH  19  27
ENDBRANCH  18  19
ENDBRANCH  17  18
ENDBRANCH   1  17
TORSDOF 11
ENDMDL
MODEL 4
REMARK VINA RESULT:      -5.5      5.263      8.007
REMARK  Name = 192697
REMARK  11 active torsions:
REMARK  status: ('A' for Active; 'I' for Inactive)
REMARK    1  A    between atoms: N_1  and  C_3
REMARK    2  A    between atoms: N_1  and  C_17
REMARK    3  A    between atoms: C_6  and  S_13
REMARK    4  A    between atoms: C_17  and  C_18
REMARK    5  A    between atoms: C_18  and  N_19
REMARK    6  A    between atoms: N_19  and  C_21
REMARK    7  A    between atoms: N_19  and  C_27
REMARK    8  A    between atoms: C_21  and  C_22
REMARK    9  A    between atoms: C_22  and  N_23
REMARK   10  A    between atoms: C_27  and  C_28
REMARK   11  A    between atoms: C_28  and  N_29
REMARK                            x       y       z     vdW  Elec       q    Type
REMARK                         _______ _______ _______ _____ _____    ______ ____
ROOT
ATOM      1  N   UNL     1     -36.303  20.575   2.255  0.00  0.00    -0.335 N 
ATOM      2  H   UNL     1     -36.910  20.223   2.947  0.00  0.00    +0.147 HD
ENDROOT
BRANCH   1   3
ATOM      3  C   UNL     1     -35.884  21.925   2.342  0.00  0.00    +0.045 C 
ATOM      4  C   UNL     1     -35.523  22.505   3.569  0.00  0.00    +0.014 C 
ATOM      5  C   UNL     1     -35.113  23.859   3.599  0.00  0.00    +0.019 C 
ATOM      6  C   UNL     1     -34.750  24.440   4.826  0.00  0.00    +0.112 C 
ATOM      7  C   UNL     1     -35.841  22.669   1.162  0.00  0.00    +0.014 C 
ATOM      8  C   UNL     1     -35.560  21.772   4.766  0.00  0.00    +0.001 C 
ATOM      9  C   UNL     1     -35.075  24.593   2.402  0.00  0.00    +0.001 C 
ATOM     10  C   UNL     1     -35.438  24.000   1.192  0.00  0.00    +0.001 C 
ATOM     11  C   UNL     1     -34.793  23.696   6.006  0.00  0.00    +0.019 C 
ATOM     12  C   UNL     1     -35.198  22.365   5.975  0.00  0.00    +0.001 C 
BRANCH   6  13
ATOM     13  S   UNL     1     -34.226  26.111   4.971  0.00  0.00    +0.042 S 
ATOM     14  O   UNL     1     -32.902  26.217   4.023  0.00  0.00    -0.065 OA
ATOM     15  O   UNL     1     -35.252  26.946   4.373  0.00  0.00    -0.065 OA
ATOM     16  O   UNL     1     -33.817  26.297   6.351  0.00  0.00    -0.065 OA
ENDBRANCH   6  13
ENDBRANCH   1   3
BRANCH   1  17
ATOM     17  C   UNL     1     -35.881  19.703   1.207  0.00  0.00    +0.064 C 
BRANCH  17  18
ATOM     18  C   UNL     1     -34.385  19.426   1.323  0.00  0.00    -0.056 C 
BRANCH  18  19
ATOM     19  N   UNL     1     -33.973  18.458   0.312  0.00  0.00    +0.385 N 
ATOM     20  H   UNL     1     -33.625  18.971  -0.497  0.00  0.00    -0.080 HD
BRANCH  19  21
ATOM     21  C   UNL     1     -32.895  17.609   0.824  0.00  0.00    -0.102 C 
BRANCH  21  22
ATOM     22  C   UNL     1     -31.588  18.395   0.879  0.00  0.00    -0.110 C 
BRANCH  22  23
ATOM     23  N   UNL     1     -30.492  17.522   1.285  0.00  0.00    +0.379 N 
ATOM     24  H   UNL     1     -29.630  18.062   1.342  0.00  0.00    -0.089 HD
ATOM     25  H   UNL     1     -30.381  16.775   0.600  0.00  0.00    -0.089 HD
ATOM     26  H   UNL     1     -30.701  17.117   2.198  0.00  0.00    -0.089 HD
ENDBRANCH  22  23
ENDBRANCH  21  22
ENDBRANCH  19  21
BRANCH  19  27
ATOM     27  C   UNL     1     -35.109  17.638  -0.108  0.00  0.00    -0.102 C 
BRANCH  27  28
ATOM     28  C   UNL     1     -34.675  16.185  -0.279  0.00  0.00    -0.110 C 
BRANCH  28  29
ATOM     29  N   UNL     1     -35.625  15.295   0.378  0.00  0.00    +0.379 N 
ATOM     30  H   UNL     1     -35.197  14.380   0.512  0.00  0.00    -0.089 HD
ATOM     31  H   UNL     1     -36.458  15.198  -0.204  0.00  0.00    -0.089 HD
ATOM     32  H   UNL     1     -35.887  15.684   1.283  0.00  0.00    -0.089 HD
ENDBRANCH  28  29
ENDBRANCH  27  28
ENDBRANCH  19  27
ENDBRANCH  18  19
ENDBRANCH  17  18
ENDBRANCH   1  17
TORSDOF 11
ENDMDL
MODEL 5
REMARK VINA RESULT:      -5.5      2.351      3.061
REMARK  Name = 192697
REMARK  11 active torsions:
REMARK  status: ('A' for Active; 'I' for Inactive)
REMARK    1  A    between atoms: N_1  and  C_3
REMARK    2  A    between atoms: N_1  and  C_17
REMARK    3  A    between atoms: C_6  and  S_13
REMARK    4  A    between atoms: C_17  and  C_18
REMARK    5  A    between atoms: C_18  and  N_19
REMARK    6  A    between atoms: N_19  and  C_21
REMARK    7  A    between atoms: N_19  and  C_27
REMARK    8  A    between atoms: C_21  and  C_22
REMARK    9  A    between atoms: C_22  and  N_23
REMARK   10  A    between atoms: C_27  and  C_28
REMARK   11  A    between atoms: C_28  and  N_29
REMARK                            x       y       z     vdW  Elec       q    Type
REMARK                         _______ _______ _______ _____ _____    ______ ____
ROOT
ATOM      1  N   UNL     1     -35.270  25.506   5.373  0.00  0.00    -0.335 N 
ATOM      2  H   UNL     1     -36.090  26.041   5.261  0.00  0.00    +0.147 HD
ENDROOT
BRANCH   1   3
ATOM      3  C   UNL     1     -35.292  24.143   4.992  0.00  0.00    +0.045 C 
ATOM      4  C   UNL     1     -35.281  23.756   3.642  0.00  0.00    +0.014 C 
ATOM      5  C   UNL     1     -35.305  22.379   3.317  0.00  0.00    +0.019 C 
ATOM      6  C   UNL     1     -35.293  21.991   1.966  0.00  0.00    +0.112 C 
ATOM      7  C   UNL     1     -35.325  23.185   6.007  0.00  0.00    +0.014 C 
ATOM      8  C   UNL     1     -35.248  24.706   2.608  0.00  0.00    +0.001 C 
ATOM      9  C   UNL     1     -35.338  21.429   4.351  0.00  0.00    +0.001 C 
ATOM     10  C   UNL     1     -35.348  21.831   5.687  0.00  0.00    +0.001 C 
ATOM     11  C   UNL     1     -35.260  22.950   0.952  0.00  0.00    +0.019 C 
ATOM     12  C   UNL     1     -35.237  24.303   1.273  0.00  0.00    +0.001 C 
BRANCH   6  13
ATOM     13  S   UNL     1     -35.319  20.310   1.457  0.00  0.00    +0.042 S 
ATOM     14  O   UNL     1     -35.145  20.362  -0.165  0.00  0.00    -0.065 OA
ATOM     15  O   UNL     1     -34.133  19.671   1.998  0.00  0.00    -0.065 OA
ATOM     16  O   UNL     1     -36.647  19.808   1.759  0.00  0.00    -0.065 OA
ENDBRANCH   6  13
ENDBRANCH   1   3
BRANCH   1  17
ATOM     17  C   UNL     1     -34.110  26.138   5.913  0.00  0.00    +0.064 C 
BRANCH  17  18
ATOM     18  C   UNL     1     -33.315  26.817   4.801  0.00  0.00    -0.056 C 
BRANCH  18  19
ATOM     19  N   UNL     1     -32.921  28.160   5.213  0.00  0.00    +0.385 N 
ATOM     20  H   UNL     1     -33.765  28.684   5.443  0.00  0.00    -0.080 HD
BRANCH  19  21
ATOM     21  C   UNL     1     -32.071  28.103   6.404  0.00  0.00    -0.102 C 
BRANCH  21  22
ATOM     22  C   UNL     1     -31.359  29.438   6.605  0.00  0.00    -0.110 C 
BRANCH  22  23
ATOM     23  N   UNL     1     -30.063  29.227   7.240  0.00  0.00    +0.379 N 
ATOM     24  H   UNL     1     -30.111  29.514   8.217  0.00  0.00    -0.089 HD
ATOM     25  H   UNL     1     -29.354  29.780   6.759  0.00  0.00    -0.089 HD
ATOM     26  H   UNL     1     -29.816  28.239   7.188  0.00  0.00    -0.089 HD
ENDBRANCH  22  23
ENDBRANCH  21  22
ENDBRANCH  19  21
BRANCH  19  27
ATOM     27  C   UNL     1     -32.226  28.849   4.125  0.00  0.00    -0.102 C 
BRANCH  27  28
ATOM     28  C   UNL     1     -33.224  29.633   3.277  0.00  0.00    -0.110 C 
BRANCH  28  29
ATOM     29  N   UNL     1     -33.843  30.687   4.074  0.00  0.00    +0.379 N 
ATOM     30  H   UNL     1     -34.570  31.145   3.525  0.00  0.00    -0.089 HD
ATOM     31  H   UNL     1     -33.135  31.371   4.340  0.00  0.00    -0.089 HD
ATOM     32  H   UNL     1     -34.255  30.281   4.913  0.00  0.00    -0.089 HD
ENDBRANCH  28  29
ENDBRANCH  27  28
ENDBRANCH  19  27
ENDBRANCH  18  19
ENDBRANCH  17  18
ENDBRANCH   1  17
TORSDOF 11
ENDMDL
MODEL 6
REMARK VINA RESULT:      -5.5      5.643      7.479
REMARK  Name = 192697
REMARK  11 active torsions:
REMARK  status: ('A' for Active; 'I' for Inactive)
REMARK    1  A    between atoms: N_1  and  C_3
REMARK    2  A    between atoms: N_1  and  C_17
REMARK    3  A    between atoms: C_6  and  S_13
REMARK    4  A    between atoms: C_17  and  C_18
REMARK    5  A    between atoms: C_18  and  N_19
REMARK    6  A    between atoms: N_19  and  C_21
REMARK    7  A    between atoms: N_19  and  C_27
REMARK    8  A    between atoms: C_21  and  C_22
REMARK    9  A    between atoms: C_22  and  N_23
REMARK   10  A    between atoms: C_27  and  C_28
REMARK   11  A    between atoms: C_28  and  N_29
REMARK                            x       y       z     vdW  Elec       q    Type
REMARK                         _______ _______ _______ _____ _____    ______ ____
ROOT
ATOM      1  N   UNL     1     -34.759  21.384   0.898  0.00  0.00    -0.335 N 
ATOM      2  H   UNL     1     -35.334  21.505   0.108  0.00  0.00    +0.147 HD
ENDROOT
BRANCH   1   3
ATOM      3  C   UNL     1     -33.693  20.454   0.827  0.00  0.00    +0.045 C 
ATOM      4  C   UNL     1     -32.507  20.747   0.137  0.00  0.00    +0.014 C 
ATOM      5  C   UNL     1     -31.473  19.782   0.096  0.00  0.00    +0.019 C 
ATOM      6  C   UNL     1     -30.285  20.075  -0.594  0.00  0.00    +0.112 C 
ATOM      7  C   UNL     1     -33.860  19.226   1.468  0.00  0.00    +0.014 C 
ATOM      8  C   UNL     1     -32.323  21.978  -0.514  0.00  0.00    +0.001 C 
ATOM      9  C   UNL     1     -31.657  18.551   0.747  0.00  0.00    +0.001 C 
ATOM     10  C   UNL     1     -32.843  18.276   1.428  0.00  0.00    +0.001 C 
ATOM     11  C   UNL     1     -30.119  21.304  -1.235  0.00  0.00    +0.019 C 
ATOM     12  C   UNL     1     -31.137  22.253  -1.195  0.00  0.00    +0.001 C 
BRANCH   6  13
ATOM     13  S   UNL     1     -28.943  18.947  -0.703  0.00  0.00    +0.042 S 
ATOM     14  O   UNL     1     -27.749  19.786  -1.434  0.00  0.00    -0.065 OA
ATOM     15  O   UNL     1     -28.501  18.659   0.650  0.00  0.00    -0.065 OA
ATOM     16  O   UNL     1     -29.368  17.885  -1.596  0.00  0.00    -0.065 OA
ENDBRANCH   6  13
ENDBRANCH   1   3
BRANCH   1  17
ATOM     17  C   UNL     1     -35.035  22.153   2.069  0.00  0.00    +0.064 C 
BRANCH  17  18
ATOM     18  C   UNL     1     -36.350  21.701   2.697  0.00  0.00    -0.056 C 
BRANCH  18  19
ATOM     19  N   UNL     1     -36.748  22.628   3.751  0.00  0.00    +0.385 N 
ATOM     20  H   UNL     1     -37.391  22.144   4.376  0.00  0.00    -0.080 HD
BRANCH  19  21
ATOM     21  C   UNL     1     -35.581  23.057   4.526  0.00  0.00    -0.102 C 
BRANCH  21  22
ATOM     22  C   UNL     1     -35.634  22.459   5.929  0.00  0.00    -0.110 C 
BRANCH  22  23
ATOM     23  N   UNL     1     -35.202  21.066   5.899  0.00  0.00    +0.379 N 
ATOM     24  H   UNL     1     -34.598  20.879   6.699  0.00  0.00    -0.089 HD
ATOM     25  H   UNL     1     -34.687  20.888   5.037  0.00  0.00    -0.089 HD
ATOM     26  H   UNL     1     -36.018  20.456   5.940  0.00  0.00    -0.089 HD
ENDBRANCH  22  23
ENDBRANCH  21  22
ENDBRANCH  19  21
BRANCH  19  27
ATOM     27  C   UNL     1     -37.435  23.788   3.184  0.00  0.00    -0.102 C 
BRANCH  27  28
ATOM     28  C   UNL     1     -37.157  25.029   4.028  0.00  0.00    -0.110 C 
BRANCH  28  29
ATOM     29  N   UNL     1     -38.077  26.102   3.665  0.00  0.00    +0.379 N 
ATOM     30  H   UNL     1     -38.821  26.159   4.358  0.00  0.00    -0.089 HD
ATOM     31  H   UNL     1     -38.480  25.907   2.747  0.00  0.00    -0.089 HD
ATOM     32  H   UNL     1     -37.571  26.986   3.633  0.00  0.00    -0.089 HD
ENDBRANCH  28  29
ENDBRANCH  27  28
ENDBRANCH  19  27
ENDBRANCH  18  19
ENDBRANCH  17  18
ENDBRANCH   1  17
TORSDOF 11
ENDMDL
MODEL 7
REMARK VINA RESULT:      -5.4      4.674      6.894
REMARK  Name = 192697
REMARK  11 active torsions:
REMARK  status: ('A' for Active; 'I' for Inactive)
REMARK    1  A    between atoms: N_1  and  C_3
REMARK    2  A    between atoms: N_1  and  C_17
REMARK    3  A    between atoms: C_6  and  S_13
REMARK    4  A    between atoms: C_17  and  C_18
REMARK    5  A    between atoms: C_18  and  N_19
REMARK    6  A    between atoms: N_19  and  C_21
REMARK    7  A    between atoms: N_19  and  C_27
REMARK    8  A    between atoms: C_21  and  C_22
REMARK    9  A    between atoms: C_22  and  N_23
REMARK   10  A    between atoms: C_27  and  C_28
REMARK   11  A    between atoms: C_28  and  N_29
REMARK                            x       y       z     vdW  Elec       q    Type
REMARK                         _______ _______ _______ _____ _____    ______ ____
ROOT
ATOM      1  N   UNL     1     -36.081  21.162   1.991  0.00  0.00    -0.335 N 
ATOM      2  H   UNL     1     -35.613  20.400   2.403  0.00  0.00    +0.147 HD
ENDROOT
BRANCH   1   3
ATOM      3  C   UNL     1     -35.465  22.436   2.025  0.00  0.00    +0.045 C 
ATOM      4  C   UNL     1     -35.269  23.126   3.232  0.00  0.00    +0.014 C 
ATOM      5  C   UNL     1     -34.650  24.398   3.210  0.00  0.00    +0.019 C 
ATOM      6  C   UNL     1     -34.453  25.089   4.417  0.00  0.00    +0.112 C 
ATOM      7  C   UNL     1     -35.056  22.992   0.812  0.00  0.00    +0.014 C 
ATOM      8  C   UNL     1     -35.675  22.582   4.461  0.00  0.00    +0.001 C 
ATOM      9  C   UNL     1     -34.244  24.943   1.980  0.00  0.00    +0.001 C 
ATOM     10  C   UNL     1     -34.446  24.243   0.790  0.00  0.00    +0.001 C 
ATOM     11  C   UNL     1     -34.863  24.532   5.630  0.00  0.00    +0.019 C 
ATOM     12  C   UNL     1     -35.473  23.281   5.651  0.00  0.00    +0.001 C 
BRANCH   6  13
ATOM     13  S   UNL     1     -33.693  26.671   4.497  0.00  0.00    +0.042 S 
ATOM     14  O   UNL     1     -33.462  26.943   6.090  0.00  0.00    -0.065 OA
ATOM     15  O   UNL     1     -32.382  26.559   3.885  0.00  0.00    -0.065 OA
ATOM     16  O   UNL     1     -34.672  27.624   4.008  0.00  0.00    -0.065 OA
ENDBRANCH   6  13
ENDBRANCH   1   3
BRANCH   1  17
ATOM     17  C   UNL     1     -37.352  20.935   1.383  0.00  0.00    +0.064 C 
BRANCH  17  18
ATOM     18  C   UNL     1     -38.443  21.671   2.156  0.00  0.00    -0.056 C 
BRANCH  18  19
ATOM     19  N   UNL     1     -39.089  22.659   1.297  0.00  0.00    +0.385 N 
ATOM     20  H   UNL     1     -40.098  22.570   1.411  0.00  0.00    -0.080 HD
BRANCH  19  21
ATOM     21  C   UNL     1     -38.694  24.014   1.686  0.00  0.00    -0.102 C 
BRANCH  21  22
ATOM     22  C   UNL     1     -39.388  24.411   2.986  0.00  0.00    -0.110 C 
BRANCH  22  23
ATOM     23  N   UNL     1     -38.408  24.897   3.951  0.00  0.00    +0.379 N 
ATOM     24  H   UNL     1     -37.663  25.390   3.461  0.00  0.00    -0.089 HD
ATOM     25  H   UNL     1     -38.013  24.107   4.462  0.00  0.00    -0.089 HD
ATOM     26  H   UNL     1     -38.863  25.532   4.607  0.00  0.00    -0.089 HD
ENDBRANCH  22  23
ENDBRANCH  21  22
ENDBRANCH  19  21
BRANCH  19  27
ATOM     27  C   UNL     1     -38.756  22.416  -0.107  0.00  0.00    -0.102 C 
BRANCH  27  28
ATOM     28  C   UNL     1     -40.030  22.213  -0.922  0.00  0.00    -0.110 C 
BRANCH  28  29
ATOM     29  N   UNL     1     -41.185  22.121  -0.036  0.00  0.00    +0.379 N 
ATOM     30  H   UNL     1     -41.312  21.154   0.258  0.00  0.00    -0.089 HD
ATOM     31  H   UNL     1     -42.019  22.439  -0.531  0.00  0.00    -0.089 HD
ATOM     32  H   UNL     1     -41.033  22.709   0.784  0.00  0.00    -0.089 HD
ENDBRANCH  28  29
ENDBRANCH  27  28
ENDBRANCH  19  27
ENDBRANCH  18  19
ENDBRANCH  17  18
ENDBRANCH   1  17
TORSDOF 11
ENDMDL
MODEL 8
REMARK VINA RESULT:      -5.3      5.012      6.660
REMARK  Name = 192697
REMARK  11 active torsions:
REMARK  status: ('A' for Active; 'I' for Inactive)
REMARK    1  A    between atoms: N_1  and  C_3
REMARK    2  A    between atoms: N_1  and  C_17
REMARK    3  A    between atoms: C_6  and  S_13
REMARK    4  A    between atoms: C_17  and  C_18
REMARK    5  A    between atoms: C_18  and  N_19
REMARK    6  A    between atoms: N_19  and  C_21
REMARK    7  A    between atoms: N_19  and  C_27
REMARK    8  A    between atoms: C_21  and  C_22
REMARK    9  A    between atoms: C_22  and  N_23
REMARK   10  A    between atoms: C_27  and  C_28
REMARK   11  A    between atoms: C_28  and  N_29
REMARK                            x       y       z     vdW  Elec       q    Type
REMARK                         _______ _______ _______ _____ _____    ______ ____
ROOT
ATOM      1  N   UNL     1     -34.320  23.262   0.316  0.00  0.00    -0.335 N 
ATOM      2  H   UNL     1     -35.186  23.111  -0.129  0.00  0.00    +0.147 HD
ENDROOT
BRANCH   1   3
ATOM      3  C   UNL     1     -33.216  22.456  -0.054  0.00  0.00    +0.045 C 
ATOM      4  C   UNL     1     -33.107  21.121   0.366  0.00  0.00    +0.014 C 
ATOM      5  C   UNL     1     -31.982  20.360  -0.032  0.00  0.00    +0.019 C 
ATOM      6  C   UNL     1     -31.873  19.023   0.387  0.00  0.00    +0.112 C 
ATOM      7  C   UNL     1     -32.231  23.033  -0.856  0.00  0.00    +0.014 C 
ATOM      8  C   UNL     1     -34.089  20.524   1.173  0.00  0.00    +0.001 C 
ATOM      9  C   UNL     1     -31.000  20.956  -0.840  0.00  0.00    +0.001 C 
ATOM     10  C   UNL     1     -31.125  22.285  -1.248  0.00  0.00    +0.001 C 
ATOM     11  C   UNL     1     -32.859  18.446   1.189  0.00  0.00    +0.019 C 
ATOM     12  C   UNL     1     -33.964  19.196   1.581  0.00  0.00    +0.001 C 
BRANCH   6  13
ATOM     13  S   UNL     1     -30.518  17.994  -0.053  0.00  0.00    +0.042 S 
ATOM     14  O   UNL     1     -30.810  16.576   0.699  0.00  0.00    -0.065 OA
ATOM     15  O   UNL     1     -30.601  17.749  -1.481  0.00  0.00    -0.065 OA
ATOM     16  O   UNL     1     -29.336  18.592   0.539  0.00  0.00    -0.065 OA
ENDBRANCH   6  13
ENDBRANCH   1   3
BRANCH   1  17
ATOM     17  C   UNL     1     -34.229  24.284   1.309  0.00  0.00    +0.064 C 
BRANCH  17  18
ATOM     18  C   UNL     1     -35.416  24.195   2.264  0.00  0.00    -0.056 C 
BRANCH  18  19
ATOM     19  N   UNL     1     -34.977  23.700   3.565  0.00  0.00    +0.385 N 
ATOM     20  H   UNL     1     -34.078  23.235   3.443  0.00  0.00    -0.080 HD
BRANCH  19  21
ATOM     21  C   UNL     1     -34.804  24.809   4.506  0.00  0.00    -0.102 C 
BRANCH  21  22
ATOM     22  C   UNL     1     -36.144  25.177   5.136  0.00  0.00    -0.110 C 
BRANCH  22  23
ATOM     23  N   UNL     1     -36.351  26.620   5.071  0.00  0.00    +0.379 N 
ATOM     24  H   UNL     1     -35.655  27.090   5.647  0.00  0.00    -0.089 HD
ATOM     25  H   UNL     1     -37.284  26.844   5.415  0.00  0.00    -0.089 HD
ATOM     26  H   UNL     1     -36.261  26.932   4.104  0.00  0.00    -0.089 HD
ENDBRANCH  22  23
ENDBRANCH  21  22
ENDBRANCH  19  21
BRANCH  19  27
ATOM     27  C   UNL     1     -35.934  22.729   4.096  0.00  0.00    -0.102 C 
BRANCH  27  28
ATOM     28  C   UNL     1     -35.242  21.795   5.085  0.00  0.00    -0.110 C 
BRANCH  28  29
ATOM     29  N   UNL     1     -35.957  21.790   6.357  0.00  0.00    +0.379 N 
ATOM     30  H   UNL     1     -36.921  21.497   6.203  0.00  0.00    -0.089 HD
ATOM     31  H   UNL     1     -35.946  22.729   6.756  0.00  0.00    -0.089 HD
ATOM     32  H   UNL     1     -35.503  21.142   6.999  0.00  0.00    -0.089 HD
ENDBRANCH  28  29
ENDBRANCH  27  28
ENDBRANCH  19  27
ENDBRANCH  18  19
ENDBRANCH  17  18
ENDBRANCH   1  17
TORSDOF 11
ENDMDL
MODEL 9
REMARK VINA RESULT:      -5.3      5.252      6.822
REMARK  Name = 192697
REMARK  11 active torsions:
REMARK  status: ('A' for Active; 'I' for Inactive)
REMARK    1  A    between atoms: N_1  and  C_3
REMARK    2  A    between atoms: N_1  and  C_17
REMARK    3  A    between atoms: C_6  and  S_13
REMARK    4  A    between atoms: C_17  and  C_18
REMARK    5  A    between atoms: C_18  and  N_19
REMARK    6  A    between atoms: N_19  and  C_21
REMARK    7  A    between atoms: N_19  and  C_27
REMARK    8  A    between atoms: C_21  and  C_22
REMARK    9  A    between atoms: C_22  and  N_23
REMARK   10  A    between atoms: C_27  and  C_28
REMARK   11  A    between atoms: C_28  and  N_29
REMARK                            x       y       z     vdW  Elec       q    Type
REMARK                         _______ _______ _______ _____ _____    ______ ____
ROOT
ATOM      1  N   UNL     1     -34.400  22.753   0.320  0.00  0.00    -0.335 N 
ATOM      2  H   UNL     1     -35.196  22.629  -0.246  0.00  0.00    +0.147 HD
ENDROOT
BRANCH   1   3
ATOM      3  C   UNL     1     -33.198  22.101  -0.047  0.00  0.00    +0.045 C 
ATOM      4  C   UNL     1     -32.921  20.786   0.358  0.00  0.00    +0.014 C 
ATOM      5  C   UNL     1     -31.703  20.182  -0.036  0.00  0.00    +0.019 C 
ATOM      6  C   UNL     1     -31.426  18.865   0.369  0.00  0.00    +0.112 C 
ATOM      7  C   UNL     1     -32.287  22.812  -0.831  0.00  0.00    +0.014 C 
ATOM      8  C   UNL     1     -33.826  20.057   1.147  0.00  0.00    +0.001 C 
ATOM      9  C   UNL     1     -30.798  20.911  -0.824  0.00  0.00    +0.001 C 
ATOM     10  C   UNL     1     -31.089  22.218  -1.219  0.00  0.00    +0.001 C 
ATOM     11  C   UNL     1     -32.337  18.155   1.153  0.00  0.00    +0.019 C 
ATOM     12  C   UNL     1     -33.534  18.750   1.540  0.00  0.00    +0.001 C 
BRANCH   6  13
ATOM     13  S   UNL     1     -29.946  18.026  -0.068  0.00  0.00    +0.042 S 
ATOM     14  O   UNL     1     -30.051  16.578   0.678  0.00  0.00    -0.065 OA
ATOM     15  O   UNL     1     -29.988  17.778  -1.497  0.00  0.00    -0.065 OA
ATOM     16  O   UNL     1     -28.856  18.771   0.534  0.00  0.00    -0.065 OA
ENDBRANCH   6  13
ENDBRANCH   1   3
BRANCH   1  17
ATOM     17  C   UNL     1     -34.505  23.583   1.477  0.00  0.00    +0.064 C 
BRANCH  17  18
ATOM     18  C   UNL     1     -35.972  23.851   1.800  0.00  0.00    -0.056 C 
BRANCH  18  19
ATOM     19  N   UNL     1     -36.147  24.017   3.239  0.00  0.00    +0.385 N 
ATOM     20  H   UNL     1     -37.056  24.447   3.402  0.00  0.00    -0.080 HD
BRANCH  19  21
ATOM     21  C   UNL     1     -36.119  22.717   3.914  0.00  0.00    -0.102 C 
BRANCH  21  22
ATOM     22  C   UNL     1     -35.343  22.821   5.223  0.00  0.00    -0.110 C 
BRANCH  22  23
ATOM     23  N   UNL     1     -35.969  21.990   6.247  0.00  0.00    +0.379 N 
ATOM     24  H   UNL     1     -36.982  22.034   6.149  0.00  0.00    -0.089 HD
ATOM     25  H   UNL     1     -35.701  22.330   7.170  0.00  0.00    -0.089 HD
ATOM     26  H   UNL     1     -35.657  21.025   6.137  0.00  0.00    -0.089 HD
ENDBRANCH  22  23
ENDBRANCH  21  22
ENDBRANCH  19  21
BRANCH  19  27
ATOM     27  C   UNL     1     -35.111  24.894   3.786  0.00  0.00    -0.102 C 
BRANCH  27  28
ATOM     28  C   UNL     1     -35.646  26.317   3.923  0.00  0.00    -0.110 C 
BRANCH  28  29
ATOM     29  N   UNL     1     -36.386  26.458   5.172  0.00  0.00    +0.379 N 
ATOM     30  H   UNL     1     -36.625  25.535   5.532  0.00  0.00    -0.089 HD
ATOM     31  H   UNL     1     -37.241  26.990   5.002  0.00  0.00    -0.089 HD
ATOM     32  H   UNL     1     -35.810  26.950   5.854  0.00  0.00    -0.089 HD
ENDBRANCH  28  29
ENDBRANCH  27  28
ENDBRANCH  19  27
ENDBRANCH  18  19
ENDBRANCH  17  18
ENDBRANCH   1  17
TORSDOF 11
ENDMDL
