MODEL 1
REMARK VINA RESULT:      -6.0      0.000      0.000
REMARK  Name = 52950926
REMARK  11 active torsions:
REMARK  status: ('A' for Active; 'I' for Inactive)
REMARK    1  A    between atoms: N_2  and  C_18
REMARK    2  A    between atoms: C_3  and  C_6
REMARK    3  A    between atoms: C_6  and  C_10
REMARK    4  A    between atoms: C_18  and  C_19
REMARK    5  A    between atoms: C_19  and  C_20
REMARK    6  A    between atoms: C_20  and  N_21
REMARK    7  A    between atoms: N_21  and  C_24
REMARK    8  A    between atoms: C_24  and  C_25
REMARK    9  A    between atoms: C_25  and  C_26
REMARK   10  A    between atoms: C_26  and  C_27
REMARK   11  A    between atoms: C_27  and  N_28
REMARK                            x       y       z     vdW  Elec       q    Type
REMARK                         _______ _______ _______ _____ _____    ______ ____
ROOT
ATOM      1  O   UNL     1     -37.197  20.353   0.261  0.00  0.00    -0.267 OA
ATOM      2  N   UNL     1     -37.945  21.317   2.269  0.00  0.00    -0.298 N 
ATOM      3  C   UNL     1     -37.039  20.725   1.412  0.00  0.00    +0.285 C 
ATOM      4  H   UNL     1     -37.645  21.556   3.176  0.00  0.00    +0.150 HD
ENDROOT
BRANCH   3   6
ATOM      5  O   UNL     1     -35.657  20.258   3.210  0.00  0.00    -0.282 OA
ATOM      6  C   UNL     1     -35.685  20.560   2.026  0.00  0.00    +0.250 C 
BRANCH   6  10
ATOM      7 BR   UNL     1     -29.364  17.810  -0.271  0.00  0.00    -0.049 Br
ATOM      8  N   UNL     1     -32.991  21.764  -0.117  0.00  0.00    -0.311 N 
ATOM      9  C   UNL     1     -33.370  19.884   1.022  0.00  0.00    +0.018 C 
ATOM     10  C   UNL     1     -34.464  20.775   1.217  0.00  0.00    +0.059 C 
ATOM     11  C   UNL     1     -32.461  20.530   0.181  0.00  0.00    +0.049 C 
ATOM     12  C   UNL     1     -34.201  21.922   0.504  0.00  0.00    +0.065 C 
ATOM     13  C   UNL     1     -33.067  18.588   1.481  0.00  0.00    +0.002 C 
ATOM     14  C   UNL     1     -31.258  19.940  -0.224  0.00  0.00    +0.021 C 
ATOM     15  C   UNL     1     -31.867  17.986   1.085  0.00  0.00    +0.007 C 
ATOM     16  C   UNL     1     -30.977  18.655   0.245  0.00  0.00    +0.036 C 
ATOM     17  H   UNL     1     -32.562  22.438  -0.694  0.00  0.00    +0.152 HD
ENDBRANCH   6  10
ENDBRANCH   3   6
BRANCH   2  18
ATOM     18  C   UNL     1     -39.305  21.600   1.902  0.00  0.00    +0.088 C 
BRANCH  18  19
ATOM     19  C   UNL     1     -39.734  23.014   2.288  0.00  0.00    -0.002 C 
BRANCH  19  20
ATOM     20  C   UNL     1     -38.579  24.010   2.431  0.00  0.00    -0.080 C 
BRANCH  20  21
ATOM     21  N   UNL     1     -38.543  24.614   3.755  0.00  0.00    +0.384 N 
ATOM     22  H   UNL     1     -39.157  25.427   3.768  0.00  0.00    -0.085 HD
ATOM     23  H   UNL     1     -38.853  23.922   4.438  0.00  0.00    -0.085 HD
BRANCH  21  24
ATOM     24  C   UNL     1     -37.189  25.032   4.099  0.00  0.00    -0.082 C 
BRANCH  24  25
ATOM     25  C   UNL     1     -36.259  23.822   4.167  0.00  0.00    -0.026 C 
BRANCH  25  26
ATOM     26  C   UNL     1     -35.633  23.686   5.559  0.00  0.00    -0.026 C 
BRANCH  26  27
ATOM     27  C   UNL     1     -34.749  22.445   5.713  0.00  0.00    -0.086 C 
BRANCH  27  28
ATOM     28  N   UNL     1     -35.517  21.259   6.073  0.00  0.00    +0.380 N 
ATOM     29  H   UNL     1     -35.428  21.088   7.074  0.00  0.00    -0.089 HD
ATOM     30  H   UNL     1     -35.161  20.454   5.557  0.00  0.00    -0.089 HD
ATOM     31  H   UNL     1     -36.499  21.407   5.839  0.00  0.00    -0.089 HD
ENDBRANCH  27  28
ENDBRANCH  26  27
ENDBRANCH  25  26
ENDBRANCH  24  25
ENDBRANCH  21  24
ENDBRANCH  20  21
ENDBRANCH  19  20
ENDBRANCH  18  19
ENDBRANCH   2  18
TORSDOF 11
ENDMDL
MODEL 2
REMARK VINA RESULT:      -5.6      5.030      8.915
REMARK  Name = 52950926
REMARK  11 active torsions:
REMARK  status: ('A' for Active; 'I' for Inactive)
REMARK    1  A    between atoms: N_2  and  C_18
REMARK    2  A    between atoms: C_3  and  C_6
REMARK    3  A    between atoms: C_6  and  C_10
REMARK    4  A    between atoms: C_18  and  C_19
REMARK    5  A    between atoms: C_19  and  C_20
REMARK    6  A    between atoms: C_20  and  N_21
REMARK    7  A    between atoms: N_21  and  C_24
REMARK    8  A    between atoms: C_24  and  C_25
REMARK    9  A    between atoms: C_25  and  C_26
REMARK   10  A    between atoms: C_26  and  C_27
REMARK   11  A    between atoms: C_27  and  N_28
REMARK                            x       y       z     vdW  Elec       q    Type
REMARK                         _______ _______ _______ _____ _____    ______ ____
ROOT
ATOM      1  O   UNL     1     -38.388  24.355   3.839  0.00  0.00    -0.267 OA
ATOM      2  N   UNL     1     -36.923  26.161   4.178  0.00  0.00    -0.298 N 
ATOM      3  C   UNL     1     -37.925  25.447   3.553  0.00  0.00    +0.285 C 
ATOM      4  H   UNL     1     -36.672  27.038   3.809  0.00  0.00    +0.150 HD
ENDROOT
BRANCH   3   6
ATOM      5  O   UNL     1     -37.831  27.078   1.913  0.00  0.00    -0.282 OA
ATOM      6  C   UNL     1     -38.505  26.171   2.379  0.00  0.00    +0.250 C 
BRANCH   6  10
ATOM      7 BR   UNL     1     -45.710  26.463   3.270  0.00  0.00    -0.049 Br
ATOM      8  N   UNL     1     -41.373  24.912   0.512  0.00  0.00    -0.311 N 
ATOM      9  C   UNL     1     -41.115  26.085   2.391  0.00  0.00    +0.018 C 
ATOM     10  C   UNL     1     -39.833  25.793   1.846  0.00  0.00    +0.059 C 
ATOM     11  C   UNL     1     -42.063  25.521   1.535  0.00  0.00    +0.049 C 
ATOM     12  C   UNL     1     -40.025  25.071   0.691  0.00  0.00    +0.065 C 
ATOM     13  C   UNL     1     -41.560  26.778   3.535  0.00  0.00    +0.002 C 
ATOM     14  C   UNL     1     -43.440  25.615   1.767  0.00  0.00    +0.021 C 
ATOM     15  C   UNL     1     -42.935  26.880   3.779  0.00  0.00    +0.007 C 
ATOM     16  C   UNL     1     -43.859  26.306   2.907  0.00  0.00    +0.036 C 
ATOM     17  H   UNL     1     -41.788  24.431  -0.240  0.00  0.00    +0.152 HD
ENDBRANCH   6  10
ENDBRANCH   3   6
BRANCH   2  18
ATOM     18  C   UNL     1     -36.227  25.683   5.342  0.00  0.00    +0.088 C 
BRANCH  18  19
ATOM     19  C   UNL     1     -35.173  24.632   5.003  0.00  0.00    -0.002 C 
BRANCH  19  20
ATOM     20  C   UNL     1     -35.426  23.256   5.627  0.00  0.00    -0.080 C 
BRANCH  20  21
ATOM     21  N   UNL     1     -36.220  22.401   4.757  0.00  0.00    +0.384 N 
ATOM     22  H   UNL     1     -36.285  21.472   5.172  0.00  0.00    -0.085 HD
ATOM     23  H   UNL     1     -37.148  22.812   4.655  0.00  0.00    -0.085 HD
BRANCH  21  24
ATOM     24  C   UNL     1     -35.611  22.294   3.436  0.00  0.00    -0.082 C 
BRANCH  24  25
ATOM     25  C   UNL     1     -35.396  20.826   3.068  0.00  0.00    -0.026 C 
BRANCH  25  26
ATOM     26  C   UNL     1     -34.895  20.689   1.626  0.00  0.00    -0.026 C 
BRANCH  26  27
ATOM     27  C   UNL     1     -35.942  20.118   0.667  0.00  0.00    -0.086 C 
BRANCH  27  28
ATOM     28  N   UNL     1     -36.863  19.204   1.332  0.00  0.00    +0.380 N 
ATOM     29  H   UNL     1     -37.457  19.728   1.973  0.00  0.00    -0.089 HD
ATOM     30  H   UNL     1     -36.332  18.506   1.853  0.00  0.00    -0.089 HD
ATOM     31  H   UNL     1     -37.442  18.739   0.633  0.00  0.00    -0.089 HD
ENDBRANCH  27  28
ENDBRANCH  26  27
ENDBRANCH  25  26
ENDBRANCH  24  25
ENDBRANCH  21  24
ENDBRANCH  20  21
ENDBRANCH  19  20
ENDBRANCH  18  19
ENDBRANCH   2  18
TORSDOF 11
ENDMDL
MODEL 3
REMARK VINA RESULT:      -5.6      4.367      6.811
REMARK  Name = 52950926
REMARK  11 active torsions:
REMARK  status: ('A' for Active; 'I' for Inactive)
REMARK    1  A    between atoms: N_2  and  C_18
REMARK    2  A    between atoms: C_3  and  C_6
REMARK    3  A    between atoms: C_6  and  C_10
REMARK    4  A    between atoms: C_18  and  C_19
REMARK    5  A    between atoms: C_19  and  C_20
REMARK    6  A    between atoms: C_20  and  N_21
REMARK    7  A    between atoms: N_21  and  C_24
REMARK    8  A    between atoms: C_24  and  C_25
REMARK    9  A    between atoms: C_25  and  C_26
REMARK   10  A    between atoms: C_26  and  C_27
REMARK   11  A    between atoms: C_27  and  N_28
REMARK                            x       y       z     vdW  Elec       q    Type
REMARK                         _______ _______ _______ _____ _____    ______ ____
ROOT
ATOM      1  O   UNL     1     -32.958  25.701   4.337  0.00  0.00    -0.267 OA
ATOM      2  N   UNL     1     -33.497  26.953   6.252  0.00  0.00    -0.298 N 
ATOM      3  C   UNL     1     -33.723  26.074   5.212  0.00  0.00    +0.285 C 
ATOM      4  H   UNL     1     -34.236  27.144   6.873  0.00  0.00    +0.150 HD
ENDROOT
BRANCH   3   6
ATOM      5  O   UNL     1     -36.013  26.302   5.460  0.00  0.00    -0.282 OA
ATOM      6  C   UNL     1     -35.110  25.514   5.219  0.00  0.00    +0.250 C 
BRANCH   6  10
ATOM      7 BR   UNL     1     -35.348  20.203   0.267  0.00  0.00    -0.049 Br
ATOM      8  N   UNL     1     -35.795  21.934   5.328  0.00  0.00    -0.311 N 
ATOM      9  C   UNL     1     -35.278  23.386   3.715  0.00  0.00    +0.018 C 
ATOM     10  C   UNL     1     -35.339  24.075   4.959  0.00  0.00    +0.059 C 
ATOM     11  C   UNL     1     -35.568  22.045   3.975  0.00  0.00    +0.049 C 
ATOM     12  C   UNL     1     -35.660  23.156   5.932  0.00  0.00    +0.065 C 
ATOM     13  C   UNL     1     -35.003  23.776   2.390  0.00  0.00    +0.002 C 
ATOM     14  C   UNL     1     -35.598  21.070   2.971  0.00  0.00    +0.021 C 
ATOM     15  C   UNL     1     -35.029  22.811   1.375  0.00  0.00    +0.007 C 
ATOM     16  C   UNL     1     -35.322  21.480   1.664  0.00  0.00    +0.036 C 
ATOM     17  H   UNL     1     -36.023  21.098   5.795  0.00  0.00    +0.152 HD
ENDBRANCH   6  10
ENDBRANCH   3   6
BRANCH   2  18
ATOM     18  C   UNL     1     -32.235  27.605   6.469  0.00  0.00    +0.088 C 
BRANCH  18  19
ATOM     19  C   UNL     1     -32.091  28.889   5.654  0.00  0.00    -0.002 C 
BRANCH  19  20
ATOM     20  C   UNL     1     -31.051  28.814   4.531  0.00  0.00    -0.080 C 
BRANCH  20  21
ATOM     21  N   UNL     1     -31.644  28.400   3.268  0.00  0.00    +0.384 N 
ATOM     22  H   UNL     1     -31.027  28.675   2.504  0.00  0.00    -0.085 HD
ATOM     23  H   UNL     1     -31.765  27.387   3.280  0.00  0.00    -0.085 HD
BRANCH  21  24
ATOM     24  C   UNL     1     -32.949  29.022   3.076  0.00  0.00    -0.082 C 
BRANCH  24  25
ATOM     25  C   UNL     1     -33.833  28.142   2.193  0.00  0.00    -0.026 C 
BRANCH  25  26
ATOM     26  C   UNL     1     -35.318  28.391   2.480  0.00  0.00    -0.026 C 
BRANCH  26  27
ATOM     27  C   UNL     1     -36.252  27.436   1.733  0.00  0.00    -0.086 C 
BRANCH  27  28
ATOM     28  N   UNL     1     -37.176  26.751   2.629  0.00  0.00    +0.380 N 
ATOM     29  H   UNL     1     -36.657  26.104   3.222  0.00  0.00    -0.089 HD
ATOM     30  H   UNL     1     -37.862  26.233   2.079  0.00  0.00    -0.089 HD
ATOM     31  H   UNL     1     -37.656  27.438   3.211  0.00  0.00    -0.089 HD
ENDBRANCH  27  28
ENDBRANCH  26  27
ENDBRANCH  25  26
ENDBRANCH  24  25
ENDBRANCH  21  24
ENDBRANCH  20  21
ENDBRANCH  19  20
ENDBRANCH  18  19
ENDBRANCH   2  18
TORSDOF 11
ENDMDL
MODEL 4
REMARK VINA RESULT:      -5.5      3.086      4.855
REMARK  Name = 52950926
REMARK  11 active torsions:
REMARK  status: ('A' for Active; 'I' for Inactive)
REMARK    1  A    between atoms: N_2  and  C_18
REMARK    2  A    between atoms: C_3  and  C_6
REMARK    3  A    between atoms: C_6  and  C_10
REMARK    4  A    between atoms: C_18  and  C_19
REMARK    5  A    between atoms: C_19  and  C_20
REMARK    6  A    between atoms: C_20  and  N_21
REMARK    7  A    between atoms: N_21  and  C_24
REMARK    8  A    between atoms: C_24  and  C_25
REMARK    9  A    between atoms: C_25  and  C_26
REMARK   10  A    between atoms: C_26  and  C_27
REMARK   11  A    between atoms: C_27  and  N_28
REMARK                            x       y       z     vdW  Elec       q    Type
REMARK                         _______ _______ _______ _____ _____    ______ ____
ROOT
ATOM      1  O   UNL     1     -38.756  25.689   0.842  0.00  0.00    -0.267 OA
ATOM      2  N   UNL     1     -37.107  26.139   2.455  0.00  0.00    -0.298 N 
ATOM      3  C   UNL     1     -38.193  25.489   1.906  0.00  0.00    +0.285 C 
ATOM      4  H   UNL     1     -36.779  25.844   3.335  0.00  0.00    +0.150 HD
ENDROOT
BRANCH   3   6
ATOM      5  O   UNL     1     -39.299  24.704   3.783  0.00  0.00    -0.282 OA
ATOM      6  C   UNL     1     -38.698  24.376   2.770  0.00  0.00    +0.250 C 
BRANCH   6  10
ATOM      7 BR   UNL     1     -33.750  19.274   1.263  0.00  0.00    -0.049 Br
ATOM      8  N   UNL     1     -38.847  20.847   1.865  0.00  0.00    -0.311 N 
ATOM      9  C   UNL     1     -37.201  22.319   2.182  0.00  0.00    +0.018 C 
ATOM     10  C   UNL     1     -38.451  22.965   2.396  0.00  0.00    +0.059 C 
ATOM     11  C   UNL     1     -37.478  20.991   1.850  0.00  0.00    +0.049 C 
ATOM     12  C   UNL     1     -39.444  22.035   2.194  0.00  0.00    +0.065 C 
ATOM     13  C   UNL     1     -35.857  22.737   2.239  0.00  0.00    +0.002 C 
ATOM     14  C   UNL     1     -36.474  20.057   1.570  0.00  0.00    +0.021 C 
ATOM     15  C   UNL     1     -34.842  21.814   1.962  0.00  0.00    +0.007 C 
ATOM     16  C   UNL     1     -35.148  20.495   1.632  0.00  0.00    +0.036 C 
ATOM     17  H   UNL     1     -39.328  20.011   1.667  0.00  0.00    +0.152 HD
ENDBRANCH   6  10
ENDBRANCH   3   6
BRANCH   2  18
ATOM     18  C   UNL     1     -36.433  27.229   1.804  0.00  0.00    +0.088 C 
BRANCH  18  19
ATOM     19  C   UNL     1     -34.933  27.244   2.090  0.00  0.00    -0.002 C 
BRANCH  19  20
ATOM     20  C   UNL     1     -34.536  28.019   3.350  0.00  0.00    -0.080 C 
BRANCH  20  21
ATOM     21  N   UNL     1     -33.742  27.208   4.261  0.00  0.00    +0.384 N 
ATOM     22  H   UNL     1     -33.135  26.593   3.718  0.00  0.00    -0.085 HD
ATOM     23  H   UNL     1     -33.185  27.828   4.850  0.00  0.00    -0.085 HD
BRANCH  21  24
ATOM     24  C   UNL     1     -34.598  26.398   5.119  0.00  0.00    -0.082 C 
BRANCH  24  25
ATOM     25  C   UNL     1     -34.319  24.912   4.899  0.00  0.00    -0.026 C 
BRANCH  25  26
ATOM     26  C   UNL     1     -35.424  24.047   5.515  0.00  0.00    -0.026 C 
BRANCH  26  27
ATOM     27  C   UNL     1     -34.957  22.640   5.898  0.00  0.00    -0.086 C 
BRANCH  27  28
ATOM     28  N   UNL     1     -36.066  21.773   6.279  0.00  0.00    +0.380 N 
ATOM     29  H   UNL     1     -36.611  22.222   7.014  0.00  0.00    -0.089 HD
ATOM     30  H   UNL     1     -35.700  20.884   6.620  0.00  0.00    -0.089 HD
ATOM     31  H   UNL     1     -36.661  21.607   5.467  0.00  0.00    -0.089 HD
ENDBRANCH  27  28
ENDBRANCH  26  27
ENDBRANCH  25  26
ENDBRANCH  24  25
ENDBRANCH  21  24
ENDBRANCH  20  21
ENDBRANCH  19  20
ENDBRANCH  18  19
ENDBRANCH   2  18
TORSDOF 11
ENDMDL
MODEL 5
REMARK VINA RESULT:      -5.5      4.475      7.656
REMARK  Name = 52950926
REMARK  11 active torsions:
REMARK  status: ('A' for Active; 'I' for Inactive)
REMARK    1  A    between atoms: N_2  and  C_18
REMARK    2  A    between atoms: C_3  and  C_6
REMARK    3  A    between atoms: C_6  and  C_10
REMARK    4  A    between atoms: C_18  and  C_19
REMARK    5  A    between atoms: C_19  and  C_20
REMARK    6  A    between atoms: C_20  and  N_21
REMARK    7  A    between atoms: N_21  and  C_24
REMARK    8  A    between atoms: C_24  and  C_25
REMARK    9  A    between atoms: C_25  and  C_26
REMARK   10  A    between atoms: C_26  and  C_27
REMARK   11  A    between atoms: C_27  and  N_28
REMARK                            x       y       z     vdW  Elec       q    Type
REMARK                         _______ _______ _______ _____ _____    ______ ____
ROOT
ATOM      1  O   UNL     1     -37.808  21.811   0.048  0.00  0.00    -0.267 OA
ATOM      2  N   UNL     1     -37.568  20.703   2.106  0.00  0.00    -0.298 N 
ATOM      3  C   UNL     1     -38.190  21.494   1.162  0.00  0.00    +0.285 C 
ATOM      4  H   UNL     1     -38.025  20.549   2.964  0.00  0.00    +0.150 HD
ENDROOT
BRANCH   3   6
ATOM      5  O   UNL     1     -40.453  21.190   1.546  0.00  0.00    -0.282 OA
ATOM      6  C   UNL     1     -39.529  21.987   1.613  0.00  0.00    +0.250 C 
BRANCH   6  10
ATOM      7 BR   UNL     1     -43.358  28.146   1.176  0.00  0.00    -0.049 Br
ATOM      8  N   UNL     1     -39.329  25.251   3.226  0.00  0.00    -0.311 N 
ATOM      9  C   UNL     1     -40.676  24.331   1.704  0.00  0.00    +0.018 C 
ATOM     10  C   UNL     1     -39.694  23.377   2.093  0.00  0.00    +0.059 C 
ATOM     11  C   UNL     1     -40.424  25.497   2.430  0.00  0.00    +0.049 C 
ATOM     12  C   UNL     1     -38.880  23.972   3.029  0.00  0.00    +0.065 C 
ATOM     13  C   UNL     1     -41.758  24.314   0.802  0.00  0.00    +0.002 C 
ATOM     14  C   UNL     1     -41.204  26.653   2.297  0.00  0.00    +0.021 C 
ATOM     15  C   UNL     1     -42.546  25.462   0.659  0.00  0.00    +0.007 C 
ATOM     16  C   UNL     1     -42.271  26.612   1.396  0.00  0.00    +0.036 C 
ATOM     17  H   UNL     1     -38.925  25.900   3.846  0.00  0.00    +0.152 HD
ENDBRANCH   6  10
ENDBRANCH   3   6
BRANCH   2  18
ATOM     18  C   UNL     1     -36.282  20.096   1.898  0.00  0.00    +0.088 C 
BRANCH  18  19
ATOM     19  C   UNL     1     -35.187  20.735   2.749  0.00  0.00    -0.002 C 
BRANCH  19  20
ATOM     20  C   UNL     1     -35.691  21.783   3.747  0.00  0.00    -0.080 C 
BRANCH  20  21
ATOM     21  N   UNL     1     -35.522  21.347   5.125  0.00  0.00    +0.384 N 
ATOM     22  H   UNL     1     -36.353  20.833   5.417  0.00  0.00    -0.085 HD
ATOM     23  H   UNL     1     -34.696  20.750   5.180  0.00  0.00    -0.085 HD
BRANCH  21  24
ATOM     24  C   UNL     1     -35.329  22.488   6.012  0.00  0.00    -0.082 C 
BRANCH  24  25
ATOM     25  C   UNL     1     -35.695  23.787   5.295  0.00  0.00    -0.026 C 
BRANCH  25  26
ATOM     26  C   UNL     1     -34.529  24.781   5.327  0.00  0.00    -0.026 C 
BRANCH  26  27
ATOM     27  C   UNL     1     -34.974  26.245   5.322  0.00  0.00    -0.086 C 
BRANCH  27  28
ATOM     28  N   UNL     1     -36.425  26.384   5.298  0.00  0.00    +0.380 N 
ATOM     29  H   UNL     1     -36.855  25.467   5.414  0.00  0.00    -0.089 HD
ATOM     30  H   UNL     1     -36.713  26.786   4.406  0.00  0.00    -0.089 HD
ATOM     31  H   UNL     1     -36.719  26.997   6.058  0.00  0.00    -0.089 HD
ENDBRANCH  27  28
ENDBRANCH  26  27
ENDBRANCH  25  26
ENDBRANCH  24  25
ENDBRANCH  21  24
ENDBRANCH  20  21
ENDBRANCH  19  20
ENDBRANCH  18  19
ENDBRANCH   2  18
TORSDOF 11
ENDMDL
MODEL 6
REMARK VINA RESULT:      -5.5      1.997      3.445
REMARK  Name = 52950926
REMARK  11 active torsions:
REMARK  status: ('A' for Active; 'I' for Inactive)
REMARK    1  A    between atoms: N_2  and  C_18
REMARK    2  A    between atoms: C_3  and  C_6
REMARK    3  A    between atoms: C_6  and  C_10
REMARK    4  A    between atoms: C_18  and  C_19
REMARK    5  A    between atoms: C_19  and  C_20
REMARK    6  A    between atoms: C_20  and  N_21
REMARK    7  A    between atoms: N_21  and  C_24
REMARK    8  A    between atoms: C_24  and  C_25
REMARK    9  A    between atoms: C_25  and  C_26
REMARK   10  A    between atoms: C_26  and  C_27
REMARK   11  A    between atoms: C_27  and  N_28
REMARK                            x       y       z     vdW  Elec       q    Type
REMARK                         _______ _______ _______ _____ _____    ______ ____
ROOT
ATOM      1  O   UNL     1     -37.611  23.377   3.409  0.00  0.00    -0.267 OA
ATOM      2  N   UNL     1     -35.809  22.181   4.328  0.00  0.00    -0.298 N 
ATOM      3  C   UNL     1     -36.740  22.523   3.369  0.00  0.00    +0.285 C 
ATOM      4  H   UNL     1     -35.171  21.459   4.126  0.00  0.00    +0.150 HD
ENDROOT
BRANCH   3   6
ATOM      5  O   UNL     1     -37.551  21.008   1.818  0.00  0.00    -0.282 OA
ATOM      6  C   UNL     1     -36.602  21.718   2.115  0.00  0.00    +0.250 C 
BRANCH   6  10
ATOM      7 BR   UNL     1     -30.501  18.352   0.055  0.00  0.00    -0.049 Br
ATOM      8  N   UNL     1     -33.803  22.583  -0.058  0.00  0.00    -0.311 N 
ATOM      9  C   UNL     1     -34.340  20.806   1.180  0.00  0.00    +0.018 C 
ATOM     10  C   UNL     1     -35.361  21.789   1.311  0.00  0.00    +0.059 C 
ATOM     11  C   UNL     1     -33.376  21.329   0.316  0.00  0.00    +0.049 C 
ATOM     12  C   UNL     1     -35.002  22.870   0.539  0.00  0.00    +0.065 C 
ATOM     13  C   UNL     1     -34.145  19.517   1.715  0.00  0.00    +0.002 C 
ATOM     14  C   UNL     1     -32.220  20.624  -0.040  0.00  0.00    +0.021 C 
ATOM     15  C   UNL     1     -32.994  18.801   1.367  0.00  0.00    +0.007 C 
ATOM     16  C   UNL     1     -32.047  19.349   0.503  0.00  0.00    +0.036 C 
ATOM     17  H   UNL     1     -33.318  23.186  -0.665  0.00  0.00    +0.152 HD
ENDBRANCH   6  10
ENDBRANCH   3   6
BRANCH   2  18
ATOM     18  C   UNL     1     -35.727  22.827   5.609  0.00  0.00    +0.088 C 
BRANCH  18  19
ATOM     19  C   UNL     1     -34.919  24.122   5.561  0.00  0.00    -0.002 C 
BRANCH  19  20
ATOM     20  C   UNL     1     -35.767  25.397   5.517  0.00  0.00    -0.080 C 
BRANCH  20  21
ATOM     21  N   UNL     1     -35.025  26.526   4.974  0.00  0.00    +0.384 N 
ATOM     22  H   UNL     1     -35.683  27.232   4.646  0.00  0.00    -0.085 HD
ATOM     23  H   UNL     1     -34.428  26.908   5.708  0.00  0.00    -0.085 HD
BRANCH  21  24
ATOM     24  C   UNL     1     -34.180  26.107   3.861  0.00  0.00    -0.082 C 
BRANCH  24  25
ATOM     25  C   UNL     1     -35.021  25.907   2.601  0.00  0.00    -0.026 C 
BRANCH  25  26
ATOM     26  C   UNL     1     -35.878  27.143   2.309  0.00  0.00    -0.026 C 
BRANCH  26  27
ATOM     27  C   UNL     1     -37.296  26.807   1.843  0.00  0.00    -0.086 C 
BRANCH  27  28
ATOM     28  N   UNL     1     -38.127  26.292   2.925  0.00  0.00    +0.380 N 
ATOM     29  H   UNL     1     -38.323  25.305   2.762  0.00  0.00    -0.089 HD
ATOM     30  H   UNL     1     -39.004  26.813   2.957  0.00  0.00    -0.089 HD
ATOM     31  H   UNL     1     -37.635  26.400   3.811  0.00  0.00    -0.089 HD
ENDBRANCH  27  28
ENDBRANCH  26  27
ENDBRANCH  25  26
ENDBRANCH  24  25
ENDBRANCH  21  24
ENDBRANCH  20  21
ENDBRANCH  19  20
ENDBRANCH  18  19
ENDBRANCH   2  18
TORSDOF 11
ENDMDL
MODEL 7
REMARK VINA RESULT:      -5.4      2.545      3.904
REMARK  Name = 52950926
REMARK  11 active torsions:
REMARK  status: ('A' for Active; 'I' for Inactive)
REMARK    1  A    between atoms: N_2  and  C_18
REMARK    2  A    between atoms: C_3  and  C_6
REMARK    3  A    between atoms: C_6  and  C_10
REMARK    4  A    between atoms: C_18  and  C_19
REMARK    5  A    between atoms: C_19  and  C_20
REMARK    6  A    between atoms: C_20  and  N_21
REMARK    7  A    between atoms: N_21  and  C_24
REMARK    8  A    between atoms: C_24  and  C_25
REMARK    9  A    between atoms: C_25  and  C_26
REMARK   10  A    between atoms: C_26  and  C_27
REMARK   11  A    between atoms: C_27  and  N_28
REMARK                            x       y       z     vdW  Elec       q    Type
REMARK                         _______ _______ _______ _____ _____    ______ ____
ROOT
ATOM      1  O   UNL     1     -37.799  23.733   3.472  0.00  0.00    -0.267 OA
ATOM      2  N   UNL     1     -35.978  22.541   4.357  0.00  0.00    -0.298 N 
ATOM      3  C   UNL     1     -36.935  22.873   3.421  0.00  0.00    +0.285 C 
ATOM      4  H   UNL     1     -35.352  21.810   4.149  0.00  0.00    +0.150 HD
ENDROOT
BRANCH   3   6
ATOM      5  O   UNL     1     -37.825  21.377   1.893  0.00  0.00    -0.282 OA
ATOM      6  C   UNL     1     -36.841  22.044   2.178  0.00  0.00    +0.250 C 
BRANCH   6  10
ATOM      7 BR   UNL     1     -30.890  18.375   0.200  0.00  0.00    -0.049 Br
ATOM      8  N   UNL     1     -34.017  22.733  -0.023  0.00  0.00    -0.311 N 
ATOM      9  C   UNL     1     -34.622  21.014   1.264  0.00  0.00    +0.018 C 
ATOM     10  C   UNL     1     -35.601  22.042   1.370  0.00  0.00    +0.059 C 
ATOM     11  C   UNL     1     -33.640  21.473   0.385  0.00  0.00    +0.049 C 
ATOM     12  C   UNL     1     -35.201  23.085   0.567  0.00  0.00    +0.065 C 
ATOM     13  C   UNL     1     -34.478  19.734   1.834  0.00  0.00    +0.002 C 
ATOM     14  C   UNL     1     -32.514  20.713   0.046  0.00  0.00    +0.021 C 
ATOM     15  C   UNL     1     -33.358  18.962   1.504  0.00  0.00    +0.007 C 
ATOM     16  C   UNL     1     -32.392  19.447   0.624  0.00  0.00    +0.036 C 
ATOM     17  H   UNL     1     -33.509  23.299  -0.648  0.00  0.00    +0.152 HD
ENDBRANCH   6  10
ENDBRANCH   3   6
BRANCH   2  18
ATOM     18  C   UNL     1     -35.852  23.209   5.623  0.00  0.00    +0.088 C 
BRANCH  18  19
ATOM     19  C   UNL     1     -35.052  24.506   5.524  0.00  0.00    -0.002 C 
BRANCH  19  20
ATOM     20  C   UNL     1     -35.894  25.781   5.637  0.00  0.00    -0.080 C 
BRANCH  20  21
ATOM     21  N   UNL     1     -36.283  26.294   4.332  0.00  0.00    +0.384 N 
ATOM     22  H   UNL     1     -37.091  25.770   3.994  0.00  0.00    -0.085 HD
ATOM     23  H   UNL     1     -36.514  27.283   4.426  0.00  0.00    -0.085 HD
BRANCH  21  24
ATOM     24  C   UNL     1     -35.193  26.160   3.373  0.00  0.00    -0.082 C 
BRANCH  24  25
ATOM     25  C   UNL     1     -35.636  26.641   1.992  0.00  0.00    -0.026 C 
BRANCH  25  26
ATOM     26  C   UNL     1     -34.911  27.932   1.600  0.00  0.00    -0.026 C 
BRANCH  26  27
ATOM     27  C   UNL     1     -35.673  29.202   1.986  0.00  0.00    -0.086 C 
BRANCH  27  28
ATOM     28  N   UNL     1     -35.156  29.810   3.206  0.00  0.00    +0.380 N 
ATOM     29  H   UNL     1     -35.131  30.823   3.097  0.00  0.00    -0.089 HD
ATOM     30  H   UNL     1     -34.213  29.463   3.385  0.00  0.00    -0.089 HD
ATOM     31  H   UNL     1     -35.762  29.566   3.989  0.00  0.00    -0.089 HD
ENDBRANCH  27  28
ENDBRANCH  26  27
ENDBRANCH  25  26
ENDBRANCH  24  25
ENDBRANCH  21  24
ENDBRANCH  20  21
ENDBRANCH  19  20
ENDBRANCH  18  19
ENDBRANCH   2  18
TORSDOF 11
ENDMDL
MODEL 8
REMARK VINA RESULT:      -5.4      2.611      3.222
REMARK  Name = 52950926
REMARK  11 active torsions:
REMARK  status: ('A' for Active; 'I' for Inactive)
REMARK    1  A    between atoms: N_2  and  C_18
REMARK    2  A    between atoms: C_3  and  C_6
REMARK    3  A    between atoms: C_6  and  C_10
REMARK    4  A    between atoms: C_18  and  C_19
REMARK    5  A    between atoms: C_19  and  C_20
REMARK    6  A    between atoms: C_20  and  N_21
REMARK    7  A    between atoms: N_21  and  C_24
REMARK    8  A    between atoms: C_24  and  C_25
REMARK    9  A    between atoms: C_25  and  C_26
REMARK   10  A    between atoms: C_26  and  C_27
REMARK   11  A    between atoms: C_27  and  N_28
REMARK                            x       y       z     vdW  Elec       q    Type
REMARK                         _______ _______ _______ _____ _____    ______ ____
ROOT
ATOM      1  O   UNL     1     -35.314  20.621   3.827  0.00  0.00    -0.267 OA
ATOM      2  N   UNL     1     -35.784  22.835   3.195  0.00  0.00    -0.298 N 
ATOM      3  C   UNL     1     -35.494  21.500   3.000  0.00  0.00    +0.285 C 
ATOM      4  H   UNL     1     -35.900  23.409   2.404  0.00  0.00    +0.150 HD
ENDROOT
BRANCH   3   6
ATOM      5  O   UNL     1     -36.489  20.873   1.005  0.00  0.00    -0.282 OA
ATOM      6  C   UNL     1     -35.426  21.127   1.552  0.00  0.00    +0.250 C 
BRANCH   6  10
ATOM      7 BR   UNL     1     -29.450  17.224   0.199  0.00  0.00    -0.049 Br
ATOM      8  N   UNL     1     -32.402  21.665  -0.414  0.00  0.00    -0.311 N 
ATOM      9  C   UNL     1     -33.172  20.005   0.863  0.00  0.00    +0.018 C 
ATOM     10  C   UNL     1     -34.122  21.064   0.855  0.00  0.00    +0.059 C 
ATOM     11  C   UNL     1     -32.103  20.407   0.059  0.00  0.00    +0.049 C 
ATOM     12  C   UNL     1     -33.621  22.071   0.062  0.00  0.00    +0.065 C 
ATOM     13  C   UNL     1     -33.119  18.738   1.478  0.00  0.00    +0.002 C 
ATOM     14  C   UNL     1     -30.978  19.603  -0.160  0.00  0.00    +0.021 C 
ATOM     15  C   UNL     1     -32.000  17.924   1.267  0.00  0.00    +0.007 C 
ATOM     16  C   UNL     1     -30.947  18.352   0.461  0.00  0.00    +0.036 C 
ATOM     17  H   UNL     1     -31.824  22.197  -1.007  0.00  0.00    +0.152 HD
ENDBRANCH   6  10
ENDBRANCH   3   6
BRANCH   2  18
ATOM     18  C   UNL     1     -35.922  23.427   4.497  0.00  0.00    +0.088 C 
BRANCH  18  19
ATOM     19  C   UNL     1     -36.618  24.786   4.452  0.00  0.00    -0.002 C 
BRANCH  19  20
ATOM     20  C   UNL     1     -36.025  25.832   5.400  0.00  0.00    -0.080 C 
BRANCH  20  21
ATOM     21  N   UNL     1     -35.729  27.082   4.715  0.00  0.00    +0.384 N 
ATOM     22  H   UNL     1     -36.569  27.409   4.238  0.00  0.00    -0.085 HD
ATOM     23  H   UNL     1     -35.421  27.768   5.405  0.00  0.00    -0.085 HD
BRANCH  21  24
ATOM     24  C   UNL     1     -34.664  26.899   3.736  0.00  0.00    -0.082 C 
BRANCH  24  25
ATOM     25  C   UNL     1     -33.336  26.619   4.440  0.00  0.00    -0.026 C 
BRANCH  25  26
ATOM     26  C   UNL     1     -32.546  27.913   4.659  0.00  0.00    -0.026 C 
BRANCH  26  27
ATOM     27  C   UNL     1     -32.150  28.148   6.118  0.00  0.00    -0.086 C 
BRANCH  27  28
ATOM     28  N   UNL     1     -32.782  27.197   7.024  0.00  0.00    +0.380 N 
ATOM     29  H   UNL     1     -33.413  27.693   7.652  0.00  0.00    -0.089 HD
ATOM     30  H   UNL     1     -32.064  26.719   7.570  0.00  0.00    -0.089 HD
ATOM     31  H   UNL     1     -33.310  26.512   6.483  0.00  0.00    -0.089 HD
ENDBRANCH  27  28
ENDBRANCH  26  27
ENDBRANCH  25  26
ENDBRANCH  24  25
ENDBRANCH  21  24
ENDBRANCH  20  21
ENDBRANCH  19  20
ENDBRANCH  18  19
ENDBRANCH   2  18
TORSDOF 11
ENDMDL
MODEL 9
REMARK VINA RESULT:      -5.4      3.638      5.724
REMARK  Name = 52950926
REMARK  11 active torsions:
REMARK  status: ('A' for Active; 'I' for Inactive)
REMARK    1  A    between atoms: N_2  and  C_18
REMARK    2  A    between atoms: C_3  and  C_6
REMARK    3  A    between atoms: C_6  and  C_10
REMARK    4  A    between atoms: C_18  and  C_19
REMARK    5  A    between atoms: C_19  and  C_20
REMARK    6  A    between atoms: C_20  and  N_21
REMARK    7  A    between atoms: N_21  and  C_24
REMARK    8  A    between atoms: C_24  and  C_25
REMARK    9  A    between atoms: C_25  and  C_26
REMARK   10  A    between atoms: C_26  and  C_27
REMARK   11  A    between atoms: C_27  and  N_28
REMARK                            x       y       z     vdW  Elec       q    Type
REMARK                         _______ _______ _______ _____ _____    ______ ____
ROOT
ATOM      1  O   UNL     1     -33.385  25.948   4.302  0.00  0.00    -0.267 OA
ATOM      2  N   UNL     1     -35.290  27.233   3.812  0.00  0.00    -0.298 N 
ATOM      3  C   UNL     1     -34.577  26.194   4.376  0.00  0.00    +0.285 C 
ATOM      4  H   UNL     1     -36.259  27.280   3.977  0.00  0.00    +0.150 HD
ENDROOT
BRANCH   3   6
ATOM      5  O   UNL     1     -36.090  25.811   6.086  0.00  0.00    -0.282 OA
ATOM      6  C   UNL     1     -35.434  25.285   5.199  0.00  0.00    +0.250 C 
BRANCH   6  10
ATOM      7 BR   UNL     1     -35.344  20.019   0.193  0.00  0.00    -0.049 Br
ATOM      8  N   UNL     1     -35.502  21.640   5.308  0.00  0.00    -0.311 N 
ATOM      9  C   UNL     1     -35.416  23.161   3.679  0.00  0.00    +0.018 C 
ATOM     10  C   UNL     1     -35.450  23.828   4.936  0.00  0.00    +0.059 C 
ATOM     11  C   UNL     1     -35.449  21.790   3.941  0.00  0.00    +0.049 C 
ATOM     12  C   UNL     1     -35.504  22.866   5.918  0.00  0.00    +0.065 C 
ATOM     13  C   UNL     1     -35.358  23.595   2.339  0.00  0.00    +0.002 C 
ATOM     14  C   UNL     1     -35.429  20.826   2.926  0.00  0.00    +0.021 C 
ATOM     15  C   UNL     1     -35.338  22.642   1.314  0.00  0.00    +0.007 C 
ATOM     16  C   UNL     1     -35.373  21.279   1.606  0.00  0.00    +0.036 C 
ATOM     17  H   UNL     1     -35.536  20.777   5.780  0.00  0.00    +0.152 HD
ENDBRANCH   6  10
ENDBRANCH   3   6
BRANCH   2  18
ATOM     18  C   UNL     1     -34.684  28.249   2.996  0.00  0.00    +0.088 C 
BRANCH  18  19
ATOM     19  C   UNL     1     -35.517  28.581   1.760  0.00  0.00    -0.002 C 
BRANCH  19  20
ATOM     20  C   UNL     1     -36.107  27.360   1.047  0.00  0.00    -0.080 C 
BRANCH  20  21
ATOM     21  N   UNL     1     -37.560  27.337   1.118  0.00  0.00    +0.384 N 
ATOM     22  H   UNL     1     -37.869  27.975   1.852  0.00  0.00    -0.085 HD
ATOM     23  H   UNL     1     -37.936  27.626   0.214  0.00  0.00    -0.085 HD
BRANCH  21  24
ATOM     24  C   UNL     1     -38.046  25.995   1.416  0.00  0.00    -0.082 C 
BRANCH  24  25
ATOM     25  C   UNL     1     -38.343  25.856   2.909  0.00  0.00    -0.026 C 
BRANCH  25  26
ATOM     26  C   UNL     1     -39.361  24.740   3.166  0.00  0.00    -0.026 C 
BRANCH  26  27
ATOM     27  C   UNL     1     -39.042  23.440   2.423  0.00  0.00    -0.086 C 
BRANCH  27  28
ATOM     28  N   UNL     1     -40.229  22.831   1.836  0.00  0.00    +0.380 N 
ATOM     29  H   UNL     1     -40.096  22.726   0.831  0.00  0.00    -0.089 HD
ATOM     30  H   UNL     1     -41.039  23.426   2.013  0.00  0.00    -0.089 HD
ATOM     31  H   UNL     1     -40.383  21.914   2.257  0.00  0.00    -0.089 HD
ENDBRANCH  27  28
ENDBRANCH  26  27
ENDBRANCH  25  26
ENDBRANCH  24  25
ENDBRANCH  21  24
ENDBRANCH  20  21
ENDBRANCH  19  20
ENDBRANCH  18  19
ENDBRANCH   2  18
TORSDOF 11
ENDMDL
