MODEL 1
REMARK VINA RESULT:      -6.8      0.000      0.000
REMARK  Name = 54682951
REMARK  2 active torsions:
REMARK  status: ('A' for Active; 'I' for Inactive)
REMARK    1  A    between atoms: C_7  and  C_18
REMARK    2  A    between atoms: C_8  and  O_23
REMARK                            x       y       z     vdW  Elec       q    Type
REMARK                         _______ _______ _______ _____ _____    ______ ____
ROOT
ATOM      1  S   UNL     1     -37.384  23.543   2.178  0.00  0.00    +0.077 S 
ATOM      2  O   UNL     1     -37.503  24.758   1.396  0.00  0.00    -0.150 OA
ATOM      3  O   UNL     1     -38.557  22.782   2.565  0.00  0.00    -0.150 OA
ATOM      4  N   UNL     1     -36.223  22.498   1.439  0.00  0.00    -0.181 N 
ATOM      5  C   UNL     1     -36.541  23.935   3.669  0.00  0.00    +0.128 C 
ATOM      6  C   UNL     1     -35.723  22.946   4.228  0.00  0.00    +0.054 C 
ATOM      7  C   UNL     1     -35.826  21.398   2.281  0.00  0.00    +0.156 C 
ATOM      8  C   UNL     1     -35.591  21.613   3.591  0.00  0.00    +0.154 C 
ATOM      9  C   UNL     1     -36.686  25.202   4.233  0.00  0.00    +0.020 C 
ATOM     10  C   UNL     1     -35.104  23.155   0.702  0.00  0.00    +0.139 C 
ATOM     11  C   UNL     1     -35.049  23.267   5.415  0.00  0.00    +0.004 C 
ATOM     12  C   UNL     1     -36.003  25.494   5.410  0.00  0.00    +0.001 C 
ATOM     13  C   UNL     1     -35.188  24.529   6.000  0.00  0.00    +0.000 C 
ENDROOT
BRANCH   7  18
ATOM     14  S   UNL     1     -32.088  18.346   1.125  0.00  0.00    -0.051 S 
ATOM     15  O   UNL     1     -36.628  19.540   1.125  0.00  0.00    -0.268 OA
ATOM     16  N   UNL     1     -34.322  19.719   1.564  0.00  0.00    -0.259 N 
ATOM     17  N   UNL     1     -34.437  17.588   0.356  0.00  0.00    -0.222 NA
ATOM     18  C   UNL     1     -35.650  20.116   1.591  0.00  0.00    +0.269 C 
ATOM     19  C   UNL     1     -33.786  18.542   0.986  0.00  0.00    +0.166 C 
ATOM     20  C   UNL     1     -32.215  16.860   0.277  0.00  0.00    +0.059 C 
ATOM     21  C   UNL     1     -33.534  16.626  -0.049  0.00  0.00    +0.108 C 
ATOM     22  H   UNL     1     -33.677  20.323   1.997  0.00  0.00    +0.157 HD
ENDBRANCH   7  18
BRANCH   8  23
ATOM     23  O   UNL     1     -35.187  20.625   4.469  0.00  0.00    -0.504 OA
ATOM     24  H   UNL     1     -35.464  19.740   4.337  0.00  0.00    +0.292 HD
ENDBRANCH   8  23
TORSDOF 2
ENDMDL
MODEL 2
REMARK VINA RESULT:      -6.4      2.043      2.176
REMARK  Name = 54682951
REMARK  2 active torsions:
REMARK  status: ('A' for Active; 'I' for Inactive)
REMARK    1  A    between atoms: C_7  and  C_18
REMARK    2  A    between atoms: C_8  and  O_23
REMARK                            x       y       z     vdW  Elec       q    Type
REMARK                         _______ _______ _______ _____ _____    ______ ____
ROOT
ATOM      1  S   UNL     1     -37.961  24.911   2.999  0.00  0.00    +0.077 S 
ATOM      2  O   UNL     1     -38.011  26.234   2.408  0.00  0.00    -0.150 OA
ATOM      3  O   UNL     1     -39.085  24.382   3.749  0.00  0.00    -0.150 OA
ATOM      4  N   UNL     1     -37.464  23.768   1.803  0.00  0.00    -0.181 N 
ATOM      5  C   UNL     1     -36.577  24.849   4.080  0.00  0.00    +0.128 C 
ATOM      6  C   UNL     1     -35.918  23.621   4.215  0.00  0.00    +0.054 C 
ATOM      7  C   UNL     1     -37.112  22.482   2.351  0.00  0.00    +0.156 C 
ATOM      8  C   UNL     1     -36.385  22.418   3.485  0.00  0.00    +0.154 C 
ATOM      9  C   UNL     1     -36.166  26.003   4.744  0.00  0.00    +0.020 C 
ATOM     10  C   UNL     1     -36.539  24.268   0.744  0.00  0.00    +0.139 C 
ATOM     11  C   UNL     1     -34.812  23.579   5.076  0.00  0.00    +0.004 C 
ATOM     12  C   UNL     1     -35.062  25.934   5.590  0.00  0.00    +0.001 C 
ATOM     13  C   UNL     1     -34.387  24.725   5.756  0.00  0.00    +0.000 C 
ENDROOT
BRANCH   7  18
ATOM     14  S   UNL     1     -34.998  18.651   0.011  0.00  0.00    -0.051 S 
ATOM     15  O   UNL     1     -38.740  21.153   1.345  0.00  0.00    -0.268 OA
ATOM     16  N   UNL     1     -36.472  20.555   1.139  0.00  0.00    -0.259 N 
ATOM     17  N   UNL     1     -37.577  18.767  -0.124  0.00  0.00    -0.222 NA
ATOM     18  C   UNL     1     -37.544  21.327   1.558  0.00  0.00    +0.269 C 
ATOM     19  C   UNL     1     -36.515  19.372   0.361  0.00  0.00    +0.166 C 
ATOM     20  C   UNL     1     -35.813  17.419  -0.862  0.00  0.00    +0.059 C 
ATOM     21  C   UNL     1     -37.172  17.648  -0.825  0.00  0.00    +0.108 C 
ATOM     22  H   UNL     1     -35.579  20.862   1.415  0.00  0.00    +0.157 HD
ENDBRANCH   7  18
BRANCH   8  23
ATOM     23  O   UNL     1     -35.985  21.232   4.071  0.00  0.00    -0.504 OA
ATOM     24  H   UNL     1     -35.073  21.034   4.152  0.00  0.00    +0.292 HD
ENDBRANCH   8  23
TORSDOF 2
ENDMDL
MODEL 3
REMARK VINA RESULT:      -6.4      2.262      2.455
REMARK  Name = 54682951
REMARK  2 active torsions:
REMARK  status: ('A' for Active; 'I' for Inactive)
REMARK    1  A    between atoms: C_7  and  C_18
REMARK    2  A    between atoms: C_8  and  O_23
REMARK                            x       y       z     vdW  Elec       q    Type
REMARK                         _______ _______ _______ _____ _____    ______ ____
ROOT
ATOM      1  S   UNL     1     -37.541  23.826   2.350  0.00  0.00    +0.077 S 
ATOM      2  O   UNL     1     -37.693  25.049   1.586  0.00  0.00    -0.150 OA
ATOM      3  O   UNL     1     -38.696  23.079   2.809  0.00  0.00    -0.150 OA
ATOM      4  N   UNL     1     -36.448  22.770   1.526  0.00  0.00    -0.181 N 
ATOM      5  C   UNL     1     -36.593  24.194   3.783  0.00  0.00    +0.128 C 
ATOM      6  C   UNL     1     -35.755  23.189   4.278  0.00  0.00    +0.054 C 
ATOM      7  C   UNL     1     -36.011  21.658   2.332  0.00  0.00    +0.156 C 
ATOM      8  C   UNL     1     -35.685  21.859   3.625  0.00  0.00    +0.154 C 
ATOM      9  C   UNL     1     -36.681  25.458   4.365  0.00  0.00    +0.020 C 
ATOM     10  C   UNL     1     -35.371  23.418   0.721  0.00  0.00    +0.139 C 
ATOM     11  C   UNL     1     -34.998  23.490   5.420  0.00  0.00    +0.004 C 
ATOM     12  C   UNL     1     -35.916  25.731   5.495  0.00  0.00    +0.001 C 
ATOM     13  C   UNL     1     -35.077  24.749   6.022  0.00  0.00    +0.000 C 
ENDROOT
BRANCH   7  18
ATOM     14  S   UNL     1     -38.676  19.046  -0.940  0.00  0.00    -0.051 S 
ATOM     15  O   UNL     1     -34.919  19.667   1.806  0.00  0.00    -0.268 OA
ATOM     16  N   UNL     1     -36.990  20.149   0.795  0.00  0.00    -0.259 N 
ATOM     17  N   UNL     1     -36.447  17.971  -0.191  0.00  0.00    -0.222 NA
ATOM     18  C   UNL     1     -35.901  20.380   1.622  0.00  0.00    +0.269 C 
ATOM     19  C   UNL     1     -37.218  19.025  -0.035  0.00  0.00    +0.166 C 
ATOM     20  C   UNL     1     -38.255  17.522  -1.606  0.00  0.00    +0.059 C 
ATOM     21  C   UNL     1     -37.044  17.112  -1.092  0.00  0.00    +0.108 C 
ATOM     22  H   UNL     1     -37.684  20.847   0.784  0.00  0.00    +0.157 HD
ENDBRANCH   7  18
BRANCH   8  23
ATOM     23  O   UNL     1     -35.238  20.858   4.466  0.00  0.00    -0.504 OA
ATOM     24  H   UNL     1     -35.568  20.800   5.342  0.00  0.00    +0.292 HD
ENDBRANCH   8  23
TORSDOF 2
ENDMDL
MODEL 4
REMARK VINA RESULT:      -6.3      3.771      7.281
REMARK  Name = 54682951
REMARK  2 active torsions:
REMARK  status: ('A' for Active; 'I' for Inactive)
REMARK    1  A    between atoms: C_7  and  C_18
REMARK    2  A    between atoms: C_8  and  O_23
REMARK                            x       y       z     vdW  Elec       q    Type
REMARK                         _______ _______ _______ _____ _____    ______ ____
ROOT
ATOM      1  S   UNL     1     -35.857  23.133   1.921  0.00  0.00    +0.077 S 
ATOM      2  O   UNL     1     -36.398  21.900   1.382  0.00  0.00    -0.150 OA
ATOM      3  O   UNL     1     -34.615  23.689   1.419  0.00  0.00    -0.150 OA
ATOM      4  N   UNL     1     -37.087  24.347   1.918  0.00  0.00    -0.181 N 
ATOM      5  C   UNL     1     -35.636  22.921   3.651  0.00  0.00    +0.128 C 
ATOM      6  C   UNL     1     -35.803  24.047   4.466  0.00  0.00    +0.054 C 
ATOM      7  C   UNL     1     -36.738  25.516   2.687  0.00  0.00    +0.156 C 
ATOM      8  C   UNL     1     -36.136  25.370   3.884  0.00  0.00    +0.154 C 
ATOM      9  C   UNL     1     -35.329  21.660   4.160  0.00  0.00    +0.020 C 
ATOM     10  C   UNL     1     -38.492  23.877   2.100  0.00  0.00    +0.139 C 
ATOM     11  C   UNL     1     -35.630  23.871   5.846  0.00  0.00    +0.004 C 
ATOM     12  C   UNL     1     -35.166  21.512   5.534  0.00  0.00    +0.001 C 
ATOM     13  C   UNL     1     -35.315  22.615   6.375  0.00  0.00    +0.000 C 
ENDROOT
BRANCH   7  18
ATOM     14  S   UNL     1     -34.638  29.876   1.590  0.00  0.00    -0.051 S 
ATOM     15  O   UNL     1     -38.307  26.950   1.731  0.00  0.00    -0.268 OA
ATOM     16  N   UNL     1     -36.093  27.695   2.032  0.00  0.00    -0.259 N 
ATOM     17  N   UNL     1     -37.148  29.659   1.010  0.00  0.00    -0.222 NA
ATOM     18  C   UNL     1     -37.145  26.794   2.096  0.00  0.00    +0.269 C 
ATOM     19  C   UNL     1     -36.122  29.017   1.523  0.00  0.00    +0.166 C 
ATOM     20  C   UNL     1     -35.416  31.226   0.872  0.00  0.00    +0.059 C 
ATOM     21  C   UNL     1     -36.741  30.925   0.638  0.00  0.00    +0.108 C 
ATOM     22  H   UNL     1     -35.228  27.381   2.379  0.00  0.00    +0.157 HD
ENDBRANCH   7  18
BRANCH   8  23
ATOM     23  O   UNL     1     -35.785  26.430   4.698  0.00  0.00    -0.504 OA
ATOM     24  H   UNL     1     -35.227  27.108   4.370  0.00  0.00    +0.292 HD
ENDBRANCH   8  23
TORSDOF 2
ENDMDL
MODEL 5
REMARK VINA RESULT:      -6.3      3.947      7.060
REMARK  Name = 54682951
REMARK  2 active torsions:
REMARK  status: ('A' for Active; 'I' for Inactive)
REMARK    1  A    between atoms: C_7  and  C_18
REMARK    2  A    between atoms: C_8  and  O_23
REMARK                            x       y       z     vdW  Elec       q    Type
REMARK                         _______ _______ _______ _____ _____    ______ ____
ROOT
ATOM      1  S   UNL     1     -35.851  22.411   3.160  0.00  0.00    +0.077 S 
ATOM      2  O   UNL     1     -35.630  21.488   2.064  0.00  0.00    -0.150 OA
ATOM      3  O   UNL     1     -35.809  21.964   4.539  0.00  0.00    -0.150 OA
ATOM      4  N   UNL     1     -34.832  23.792   2.959  0.00  0.00    -0.181 N 
ATOM      5  C   UNL     1     -37.427  23.156   2.935  0.00  0.00    +0.128 C 
ATOM      6  C   UNL     1     -37.587  24.475   3.375  0.00  0.00    +0.054 C 
ATOM      7  C   UNL     1     -35.175  24.888   3.831  0.00  0.00    +0.156 C 
ATOM      8  C   UNL     1     -36.471  25.206   4.023  0.00  0.00    +0.154 C 
ATOM      9  C   UNL     1     -38.449  22.438   2.316  0.00  0.00    +0.020 C 
ATOM     10  C   UNL     1     -34.510  24.188   1.557  0.00  0.00    +0.139 C 
ATOM     11  C   UNL     1     -38.845  25.065   3.189  0.00  0.00    +0.004 C 
ATOM     12  C   UNL     1     -39.687  23.049   2.140  0.00  0.00    +0.001 C 
ATOM     13  C   UNL     1     -39.885  24.359   2.576  0.00  0.00    +0.000 C 
ENDROOT
BRANCH   7  18
ATOM     14  S   UNL     1     -33.106  29.376   3.376  0.00  0.00    -0.051 S 
ATOM     15  O   UNL     1     -33.314  25.064   5.223  0.00  0.00    -0.268 OA
ATOM     16  N   UNL     1     -33.929  26.898   3.880  0.00  0.00    -0.259 N 
ATOM     17  N   UNL     1     -31.952  27.769   5.041  0.00  0.00    -0.222 NA
ATOM     18  C   UNL     1     -34.034  25.615   4.396  0.00  0.00    +0.269 C 
ATOM     19  C   UNL     1     -32.955  27.877   4.197  0.00  0.00    +0.166 C 
ATOM     20  C   UNL     1     -31.720  29.945   4.211  0.00  0.00    +0.059 C 
ATOM     21  C   UNL     1     -31.246  28.955   5.047  0.00  0.00    +0.108 C 
ATOM     22  H   UNL     1     -34.610  27.160   3.219  0.00  0.00    +0.157 HD
ENDBRANCH   7  18
BRANCH   8  23
ATOM     23  O   UNL     1     -36.892  26.251   4.823  0.00  0.00    -0.504 OA
ATOM     24  H   UNL     1     -36.398  26.487   5.583  0.00  0.00    +0.292 HD
ENDBRANCH   8  23
TORSDOF 2
ENDMDL
MODEL 6
REMARK VINA RESULT:      -6.2     10.277     13.160
REMARK  Name = 54682951
REMARK  2 active torsions:
REMARK  status: ('A' for Active; 'I' for Inactive)
REMARK    1  A    between atoms: C_7  and  C_18
REMARK    2  A    between atoms: C_8  and  O_23
REMARK                            x       y       z     vdW  Elec       q    Type
REMARK                         _______ _______ _______ _____ _____    ______ ____
ROOT
ATOM      1  S   UNL     1     -44.820  29.708   7.893  0.00  0.00    +0.077 S 
ATOM      2  O   UNL     1     -45.619  28.852   8.748  0.00  0.00    -0.150 OA
ATOM      3  O   UNL     1     -43.539  30.224   8.335  0.00  0.00    -0.150 OA
ATOM      4  N   UNL     1     -44.650  28.968   6.340  0.00  0.00    -0.181 N 
ATOM      5  C   UNL     1     -45.791  31.108   7.463  0.00  0.00    +0.128 C 
ATOM      6  C   UNL     1     -45.578  31.679   6.203  0.00  0.00    +0.054 C 
ATOM      7  C   UNL     1     -44.119  29.857   5.338  0.00  0.00    +0.156 C 
ATOM      8  C   UNL     1     -44.559  31.130   5.276  0.00  0.00    +0.154 C 
ATOM      9  C   UNL     1     -46.743  31.591   8.359  0.00  0.00    +0.020 C 
ATOM     10  C   UNL     1     -45.784  28.114   5.879  0.00  0.00    +0.139 C 
ATOM     11  C   UNL     1     -46.359  32.794   5.863  0.00  0.00    +0.004 C 
ATOM     12  C   UNL     1     -47.507  32.696   7.995  0.00  0.00    +0.001 C 
ATOM     13  C   UNL     1     -47.315  33.297   6.751  0.00  0.00    +0.000 C 
ENDROOT
BRANCH   7  18
ATOM     14  S   UNL     1     -43.975  28.573   0.547  0.00  0.00    -0.051 S 
ATOM     15  O   UNL     1     -42.050  28.920   4.815  0.00  0.00    -0.268 OA
ATOM     16  N   UNL     1     -43.685  29.123   3.132  0.00  0.00    -0.259 N 
ATOM     17  N   UNL     1     -41.830  28.089   1.905  0.00  0.00    -0.222 NA
ATOM     18  C   UNL     1     -43.162  29.247   4.410  0.00  0.00    +0.269 C 
ATOM     19  C   UNL     1     -43.046  28.583   1.989  0.00  0.00    +0.166 C 
ATOM     20  C   UNL     1     -42.652  27.851  -0.272  0.00  0.00    +0.059 C 
ATOM     21  C   UNL     1     -41.607  27.670   0.609  0.00  0.00    +0.108 C 
ATOM     22  H   UNL     1     -44.605  29.447   3.004  0.00  0.00    +0.157 HD
ENDBRANCH   7  18
BRANCH   8  23
ATOM     23  O   UNL     1     -44.121  32.045   4.338  0.00  0.00    -0.504 OA
ATOM     24  H   UNL     1     -43.206  32.131   4.158  0.00  0.00    +0.292 HD
ENDBRANCH   8  23
TORSDOF 2
ENDMDL
MODEL 7
REMARK VINA RESULT:      -6.2      3.693      7.067
REMARK  Name = 54682951
REMARK  2 active torsions:
REMARK  status: ('A' for Active; 'I' for Inactive)
REMARK    1  A    between atoms: C_7  and  C_18
REMARK    2  A    between atoms: C_8  and  O_23
REMARK                            x       y       z     vdW  Elec       q    Type
REMARK                         _______ _______ _______ _____ _____    ______ ____
ROOT
ATOM      1  S   UNL     1     -36.734  22.740   1.804  0.00  0.00    +0.077 S 
ATOM      2  O   UNL     1     -37.079  21.391   1.401  0.00  0.00    -0.150 OA
ATOM      3  O   UNL     1     -35.770  23.524   1.055  0.00  0.00    -0.150 OA
ATOM      4  N   UNL     1     -38.181  23.655   2.037  0.00  0.00    -0.181 N 
ATOM      5  C   UNL     1     -36.138  22.680   3.456  0.00  0.00    +0.128 C 
ATOM      6  C   UNL     1     -36.391  23.787   4.275  0.00  0.00    +0.054 C 
ATOM      7  C   UNL     1     -37.961  24.913   2.705  0.00  0.00    +0.156 C 
ATOM      8  C   UNL     1     -37.120  24.970   3.757  0.00  0.00    +0.154 C 
ATOM      9  C   UNL     1     -35.463  21.547   3.907  0.00  0.00    +0.020 C 
ATOM     10  C   UNL     1     -39.381  22.902   2.505  0.00  0.00    +0.139 C 
ATOM     11  C   UNL     1     -35.917  23.731   5.593  0.00  0.00    +0.004 C 
ATOM     12  C   UNL     1     -35.006  21.517   5.222  0.00  0.00    +0.001 C 
ATOM     13  C   UNL     1     -35.232  22.606   6.062  0.00  0.00    +0.000 C 
ENDROOT
BRANCH   7  18
ATOM     14  S   UNL     1     -38.318  27.527  -1.499  0.00  0.00    -0.051 S 
ATOM     15  O   UNL     1     -39.595  26.562   2.915  0.00  0.00    -0.268 OA
ATOM     16  N   UNL     1     -38.411  26.361   0.889  0.00  0.00    -0.259 N 
ATOM     17  N   UNL     1     -39.915  28.237   0.406  0.00  0.00    -0.222 NA
ATOM     18  C   UNL     1     -38.752  26.037   2.194  0.00  0.00    +0.269 C 
ATOM     19  C   UNL     1     -38.967  27.385   0.083  0.00  0.00    +0.166 C 
ATOM     20  C   UNL     1     -39.388  28.834  -1.794  0.00  0.00    +0.059 C 
ATOM     21  C   UNL     1     -40.155  29.066  -0.672  0.00  0.00    +0.108 C 
ATOM     22  H   UNL     1     -37.703  25.817   0.475  0.00  0.00    +0.157 HD
ENDBRANCH   7  18
BRANCH   8  23
ATOM     23  O   UNL     1     -36.864  26.126   4.470  0.00  0.00    -0.504 OA
ATOM     24  H   UNL     1     -36.648  26.918   4.018  0.00  0.00    +0.292 HD
ENDBRANCH   8  23
TORSDOF 2
ENDMDL
MODEL 8
REMARK VINA RESULT:      -6.2      3.687      7.449
REMARK  Name = 54682951
REMARK  2 active torsions:
REMARK  status: ('A' for Active; 'I' for Inactive)
REMARK    1  A    between atoms: C_7  and  C_18
REMARK    2  A    between atoms: C_8  and  O_23
REMARK                            x       y       z     vdW  Elec       q    Type
REMARK                         _______ _______ _______ _____ _____    ______ ____
ROOT
ATOM      1  S   UNL     1     -36.562  22.412   1.749  0.00  0.00    +0.077 S 
ATOM      2  O   UNL     1     -36.730  21.018   1.389  0.00  0.00    -0.150 OA
ATOM      3  O   UNL     1     -35.649  23.271   1.019  0.00  0.00    -0.150 OA
ATOM      4  N   UNL     1     -38.113  23.165   1.862  0.00  0.00    -0.181 N 
ATOM      5  C   UNL     1     -36.062  22.483   3.432  0.00  0.00    +0.128 C 
ATOM      6  C   UNL     1     -36.484  23.584   4.186  0.00  0.00    +0.054 C 
ATOM      7  C   UNL     1     -38.074  24.465   2.485  0.00  0.00    +0.156 C 
ATOM      8  C   UNL     1     -37.308  24.657   3.578  0.00  0.00    +0.154 C 
ATOM      9  C   UNL     1     -35.293  21.452   3.969  0.00  0.00    +0.020 C 
ATOM     10  C   UNL     1     -39.248  22.299   2.297  0.00  0.00    +0.139 C 
ATOM     11  C   UNL     1     -36.086  23.633   5.530  0.00  0.00    +0.004 C 
ATOM     12  C   UNL     1     -34.914  21.524   5.307  0.00  0.00    +0.001 C 
ATOM     13  C   UNL     1     -35.309  22.612   6.085  0.00  0.00    +0.000 C 
ENDROOT
BRANCH   7  18
ATOM     14  S   UNL     1     -42.216  26.911   3.706  0.00  0.00    -0.051 S 
ATOM     15  O   UNL     1     -38.697  25.908   0.764  0.00  0.00    -0.268 OA
ATOM     16  N   UNL     1     -40.012  25.802   2.715  0.00  0.00    -0.259 N 
ATOM     17  N   UNL     1     -41.222  27.469   1.385  0.00  0.00    -0.222 NA
ATOM     18  C   UNL     1     -38.954  25.471   1.882  0.00  0.00    +0.269 C 
ATOM     19  C   UNL     1     -41.050  26.732   2.460  0.00  0.00    +0.166 C 
ATOM     20  C   UNL     1     -43.030  28.074   2.743  0.00  0.00    +0.059 C 
ATOM     21  C   UNL     1     -42.359  28.237   1.550  0.00  0.00    +0.108 C 
ATOM     22  H   UNL     1     -40.046  25.338   3.582  0.00  0.00    +0.157 HD
ENDBRANCH   7  18
BRANCH   8  23
ATOM     23  O   UNL     1     -37.225  25.860   4.251  0.00  0.00    -0.504 OA
ATOM     24  H   UNL     1     -37.367  26.665   3.793  0.00  0.00    +0.292 HD
ENDBRANCH   8  23
TORSDOF 2
ENDMDL
MODEL 9
REMARK VINA RESULT:      -6.0      3.370      3.813
REMARK  Name = 54682951
REMARK  2 active torsions:
REMARK  status: ('A' for Active; 'I' for Inactive)
REMARK    1  A    between atoms: C_7  and  C_18
REMARK    2  A    between atoms: C_8  and  O_23
REMARK                            x       y       z     vdW  Elec       q    Type
REMARK                         _______ _______ _______ _____ _____    ______ ____
ROOT
ATOM      1  S   UNL     1     -38.207  24.565   2.630  0.00  0.00    +0.077 S 
ATOM      2  O   UNL     1     -38.317  25.885   2.041  0.00  0.00    -0.150 OA
ATOM      3  O   UNL     1     -39.327  23.958   3.323  0.00  0.00    -0.150 OA
ATOM      4  N   UNL     1     -37.576  23.465   1.457  0.00  0.00    -0.181 N 
ATOM      5  C   UNL     1     -36.876  24.590   3.777  0.00  0.00    +0.128 C 
ATOM      6  C   UNL     1     -36.143  23.409   3.941  0.00  0.00    +0.054 C 
ATOM      7  C   UNL     1     -37.166  22.203   2.018  0.00  0.00    +0.156 C 
ATOM      8  C   UNL     1     -36.491  22.181   3.186  0.00  0.00    +0.154 C 
ATOM      9  C   UNL     1     -36.576  25.765   4.464  0.00  0.00    +0.020 C 
ATOM     10  C   UNL     1     -36.637  24.032   0.445  0.00  0.00    +0.139 C 
ATOM     11  C   UNL     1     -35.079  23.436   4.854  0.00  0.00    +0.004 C 
ATOM     12  C   UNL     1     -35.512  25.766   5.361  0.00  0.00    +0.001 C 
ATOM     13  C   UNL     1     -34.766  24.604   5.557  0.00  0.00    +0.000 C 
ENDROOT
BRANCH   7  18
ATOM     14  S   UNL     1     -40.760  20.750  -1.079  0.00  0.00    -0.051 S 
ATOM     15  O   UNL     1     -36.714  20.067   1.202  0.00  0.00    -0.268 OA
ATOM     16  N   UNL     1     -38.670  21.179   0.507  0.00  0.00    -0.259 N 
ATOM     17  N   UNL     1     -38.842  19.057  -0.710  0.00  0.00    -0.222 NA
ATOM     18  C   UNL     1     -37.480  21.026   1.202  0.00  0.00    +0.269 C 
ATOM     19  C   UNL     1     -39.278  20.251  -0.374  0.00  0.00    +0.166 C 
ATOM     20  C   UNL     1     -40.840  19.252  -1.911  0.00  0.00    +0.059 C 
ATOM     21  C   UNL     1     -39.739  18.486  -1.591  0.00  0.00    +0.108 C 
ATOM     22  H   UNL     1     -39.146  22.030   0.639  0.00  0.00    +0.157 HD
ENDBRANCH   7  18
BRANCH   8  23
ATOM     23  O   UNL     1     -36.041  21.022   3.788  0.00  0.00    -0.504 OA
ATOM     24  H   UNL     1     -36.565  20.598   4.440  0.00  0.00    +0.292 HD
ENDBRANCH   8  23
TORSDOF 2
ENDMDL
