MODEL 1
REMARK VINA RESULT:      -7.4      0.000      0.000
REMARK  Name = 191503
REMARK  8 active torsions:
REMARK  status: ('A' for Active; 'I' for Inactive)
REMARK    1  A    between atoms: N_1  and  C_12
REMARK    2  A    between atoms: C_11  and  O_15
REMARK    3  A    between atoms: C_13  and  C_17
REMARK    4  A    between atoms: C_17  and  O_18
REMARK    5  A    between atoms: O_18  and  P_19
REMARK    6  A    between atoms: P_19  and  O_21
REMARK    7  A    between atoms: P_19  and  O_23
REMARK    8  A    between atoms: C_27  and  C_29
REMARK                            x       y       z     vdW  Elec       q    Type
REMARK                         _______ _______ _______ _____ _____    ______ ____
ROOT
ATOM      1  N   UNL     1     -37.335  25.307   2.927  0.00  0.00    -0.249 N 
ATOM      2  N   UNL     1     -35.933  27.043   2.836  0.00  0.00    -0.242 NA
ATOM      3  N   UNL     1     -36.427  24.146   4.859  0.00  0.00    -0.228 NA
ATOM      4  N   UNL     1     -34.501  25.327   5.784  0.00  0.00    -0.228 NA
ATOM      5  C   UNL     1     -36.455  25.143   3.963  0.00  0.00    +0.152 C 
ATOM      6  C   UNL     1     -36.977  26.463   2.281  0.00  0.00    +0.223 C 
ATOM      7  C   UNL     1     -35.596  26.228   3.889  0.00  0.00    +0.141 C 
ATOM      8  C   UNL     1     -34.590  26.301   4.846  0.00  0.00    +0.152 C 
ATOM      9  C   UNL     1     -35.412  24.325   5.732  0.00  0.00    +0.253 C 
ATOM     10  O   UNL     1     -32.284  26.891   6.669  0.00  0.00    -0.270 OA
ATOM     11  N   UNL     1     -33.683  27.361   4.839  0.00  0.00    -0.265 N 
ATOM     12  C   UNL     1     -32.618  27.591   5.720  0.00  0.00    +0.251 C 
ATOM     13  H   UNL     1     -33.807  28.030   4.128  0.00  0.00    +0.157 HD
ENDROOT
BRANCH  12  14
ATOM     14  C   UNL     1     -31.841  28.833   5.470  0.00  0.00    +0.054 C 
ATOM     15  C   UNL     1     -30.573  28.943   6.000  0.00  0.00    +0.005 C 
ATOM     16  C   UNL     1     -32.414  29.834   4.714  0.00  0.00    +0.005 C 
ATOM     17  C   UNL     1     -29.844  30.109   5.764  0.00  0.00    +0.000 C 
ATOM     18  C   UNL     1     -31.685  31.001   4.479  0.00  0.00    +0.000 C 
ATOM     19  C   UNL     1     -30.399  31.137   5.004  0.00  0.00    +0.000 C 
ENDBRANCH  12  14
BRANCH   1  22
ATOM     20  O   UNL     1     -38.055  23.054   2.753  0.00  0.00    -0.335 OA
ATOM     21  C   UNL     1     -39.513  23.202   0.872  0.00  0.00    +0.144 C 
ATOM     22  C   UNL     1     -38.441  24.427   2.569  0.00  0.00    +0.197 C 
ATOM     23  C   UNL     1     -38.621  22.267   1.683  0.00  0.00    +0.174 C 
ATOM     24  C   UNL     1     -38.906  24.563   1.126  0.00  0.00    +0.083 C 
BRANCH  21  25
ATOM     25  O   UNL     1     -40.832  23.190   1.410  0.00  0.00    -0.382 OA
ATOM     26  H   UNL     1     -41.399  22.618   0.867  0.00  0.00    +0.210 HD
ENDBRANCH  21  25
BRANCH  23  27
ATOM     27  C   UNL     1     -37.475  21.691   0.863  0.00  0.00    +0.186 C 
BRANCH  27  28
ATOM     28  O   UNL     1     -36.280  21.865   1.591  0.00  0.00    -0.271 OA
BRANCH  28  29
ATOM     29  P   UNL     1     -35.690  20.611   2.434  0.00  0.00    +0.473 P 
ATOM     30  O   UNL     1     -34.365  20.096   1.954  0.00  0.00    -0.227 OA
BRANCH  29  31
ATOM     31  O   UNL     1     -35.701  21.154   3.957  0.00  0.00    -0.303 OA
ATOM     32  H   UNL     1     -35.166  20.566   4.513  0.00  0.00    +0.222 HD
ENDBRANCH  29  31
BRANCH  29  33
ATOM     33  O   UNL     1     -36.898  19.536   2.413  0.00  0.00    -0.303 OA
ATOM     34  H   UNL     1     -37.573  19.794   3.061  0.00  0.00    +0.222 HD
ENDBRANCH  29  33
ENDBRANCH  28  29
ENDBRANCH  27  28
ENDBRANCH  23  27
ENDBRANCH   1  22
TORSDOF 8
ENDMDL
MODEL 2
REMARK VINA RESULT:      -7.0      1.267      1.614
REMARK  Name = 191503
REMARK  8 active torsions:
REMARK  status: ('A' for Active; 'I' for Inactive)
REMARK    1  A    between atoms: N_1  and  C_12
REMARK    2  A    between atoms: C_11  and  O_15
REMARK    3  A    between atoms: C_13  and  C_17
REMARK    4  A    between atoms: C_17  and  O_18
REMARK    5  A    between atoms: O_18  and  P_19
REMARK    6  A    between atoms: P_19  and  O_21
REMARK    7  A    between atoms: P_19  and  O_23
REMARK    8  A    between atoms: C_27  and  C_29
REMARK                            x       y       z     vdW  Elec       q    Type
REMARK                         _______ _______ _______ _____ _____    ______ ____
ROOT
ATOM      1  N   UNL     1     -37.154  23.915   2.850  0.00  0.00    -0.249 N 
ATOM      2  N   UNL     1     -36.112  25.869   2.556  0.00  0.00    -0.242 NA
ATOM      3  N   UNL     1     -36.105  23.196   4.920  0.00  0.00    -0.228 NA
ATOM      4  N   UNL     1     -34.478  24.835   5.710  0.00  0.00    -0.228 NA
ATOM      5  C   UNL     1     -36.295  24.053   3.906  0.00  0.00    +0.152 C 
ATOM      6  C   UNL     1     -37.004  25.033   2.068  0.00  0.00    +0.223 C 
ATOM      7  C   UNL     1     -35.660  25.269   3.706  0.00  0.00    +0.141 C 
ATOM      8  C   UNL     1     -34.720  25.652   4.656  0.00  0.00    +0.152 C 
ATOM      9  C   UNL     1     -35.175  23.675   5.775  0.00  0.00    +0.253 C 
ATOM     10  O   UNL     1     -32.637  26.899   6.416  0.00  0.00    -0.270 OA
ATOM     11  N   UNL     1     -34.037  26.861   4.527  0.00  0.00    -0.265 N 
ATOM     12  C   UNL     1     -33.066  27.400   5.383  0.00  0.00    +0.251 C 
ATOM     13  H   UNL     1     -34.263  27.403   3.737  0.00  0.00    +0.157 HD
ENDROOT
BRANCH  12  14
ATOM     14  C   UNL     1     -32.537  28.731   4.987  0.00  0.00    +0.054 C 
ATOM     15  C   UNL     1     -32.778  29.190   3.710  0.00  0.00    +0.005 C 
ATOM     16  C   UNL     1     -31.823  29.464   5.912  0.00  0.00    +0.005 C 
ATOM     17  C   UNL     1     -32.281  30.440   3.339  0.00  0.00    +0.000 C 
ATOM     18  C   UNL     1     -31.326  30.715   5.541  0.00  0.00    +0.000 C 
ATOM     19  C   UNL     1     -31.556  31.202   4.254  0.00  0.00    +0.000 C 
ENDBRANCH  12  14
BRANCH   1  22
ATOM     20  O   UNL     1     -37.299  21.591   2.401  0.00  0.00    -0.335 OA
ATOM     21  C   UNL     1     -39.217  21.534   0.986  0.00  0.00    +0.144 C 
ATOM     22  C   UNL     1     -38.056  22.798   2.592  0.00  0.00    +0.197 C 
ATOM     23  C   UNL     1     -37.926  20.812   1.358  0.00  0.00    +0.174 C 
ATOM     24  C   UNL     1     -38.928  22.971   1.357  0.00  0.00    +0.083 C 
BRANCH  21  25
ATOM     25  O   UNL     1     -40.282  21.062   1.806  0.00  0.00    -0.382 OA
ATOM     26  H   UNL     1     -40.036  20.208   2.197  0.00  0.00    +0.210 HD
ENDBRANCH  21  25
BRANCH  23  27
ATOM     27  C   UNL     1     -36.952  20.712   0.193  0.00  0.00    +0.186 C 
BRANCH  27  28
ATOM     28  O   UNL     1     -35.670  21.077   0.656  0.00  0.00    -0.271 OA
BRANCH  28  29
ATOM     29  P   UNL     1     -34.646  19.908   1.119  0.00  0.00    +0.473 P 
ATOM     30  O   UNL     1     -33.227  20.097   0.669  0.00  0.00    -0.227 OA
BRANCH  29  31
ATOM     31  O   UNL     1     -34.853  19.852   2.722  0.00  0.00    -0.303 OA
ATOM     32  H   UNL     1     -34.722  18.942   3.033  0.00  0.00    +0.222 HD
ENDBRANCH  29  31
BRANCH  29  33
ATOM     33  O   UNL     1     -35.359  18.551   0.605  0.00  0.00    -0.303 OA
ATOM     34  H   UNL     1     -36.290  18.732   0.396  0.00  0.00    +0.222 HD
ENDBRANCH  29  33
ENDBRANCH  28  29
ENDBRANCH  27  28
ENDBRANCH  23  27
ENDBRANCH   1  22
TORSDOF 8
ENDMDL
MODEL 3
REMARK VINA RESULT:      -6.9      3.267      4.781
REMARK  Name = 191503
REMARK  8 active torsions:
REMARK  status: ('A' for Active; 'I' for Inactive)
REMARK    1  A    between atoms: N_1  and  C_12
REMARK    2  A    between atoms: C_11  and  O_15
REMARK    3  A    between atoms: C_13  and  C_17
REMARK    4  A    between atoms: C_17  and  O_18
REMARK    5  A    between atoms: O_18  and  P_19
REMARK    6  A    between atoms: P_19  and  O_21
REMARK    7  A    between atoms: P_19  and  O_23
REMARK    8  A    between atoms: C_27  and  C_29
REMARK                            x       y       z     vdW  Elec       q    Type
REMARK                         _______ _______ _______ _____ _____    ______ ____
ROOT
ATOM      1  N   UNL     1     -34.346  25.973   4.166  0.00  0.00    -0.249 N 
ATOM      2  N   UNL     1     -33.690  28.106   4.069  0.00  0.00    -0.242 NA
ATOM      3  N   UNL     1     -36.212  26.045   2.612  0.00  0.00    -0.228 NA
ATOM      4  N   UNL     1     -36.518  28.284   1.690  0.00  0.00    -0.228 NA
ATOM      5  C   UNL     1     -35.191  26.593   3.287  0.00  0.00    +0.152 C 
ATOM      6  C   UNL     1     -33.463  26.926   4.608  0.00  0.00    +0.223 C 
ATOM      7  C   UNL     1     -34.767  27.912   3.240  0.00  0.00    +0.141 C 
ATOM      8  C   UNL     1     -35.473  28.771   2.404  0.00  0.00    +0.152 C 
ATOM      9  C   UNL     1     -36.817  26.971   1.837  0.00  0.00    +0.253 C 
ATOM     10  O   UNL     1     -36.665  30.980   0.765  0.00  0.00    -0.270 OA
ATOM     11  N   UNL     1     -35.111  30.114   2.303  0.00  0.00    -0.265 N 
ATOM     12  C   UNL     1     -35.705  31.111   1.517  0.00  0.00    +0.251 C 
ATOM     13  H   UNL     1     -34.344  30.397   2.850  0.00  0.00    +0.157 HD
ENDROOT
BRANCH  12  14
ATOM     14  C   UNL     1     -35.071  32.452   1.602  0.00  0.00    +0.054 C 
ATOM     15  C   UNL     1     -33.819  32.560   2.170  0.00  0.00    +0.005 C 
ATOM     16  C   UNL     1     -35.755  33.543   1.110  0.00  0.00    +0.005 C 
ATOM     17  C   UNL     1     -33.223  33.820   2.250  0.00  0.00    +0.000 C 
ATOM     18  C   UNL     1     -35.159  34.803   1.190  0.00  0.00    +0.000 C 
ATOM     19  C   UNL     1     -33.892  34.941   1.759  0.00  0.00    +0.000 C 
ENDBRANCH  12  14
BRANCH   1  22
ATOM     20  O   UNL     1     -34.629  23.739   3.423  0.00  0.00    -0.335 OA
ATOM     21  C   UNL     1     -35.666  22.765   5.336  0.00  0.00    +0.144 C 
ATOM     22  C   UNL     1     -34.371  24.571   4.567  0.00  0.00    +0.197 C 
ATOM     23  C   UNL     1     -35.494  22.654   3.824  0.00  0.00    +0.174 C 
ATOM     24  C   UNL     1     -35.435  24.235   5.602  0.00  0.00    +0.083 C 
BRANCH  21  25
ATOM     25  O   UNL     1     -34.640  22.022   5.989  0.00  0.00    -0.382 OA
ATOM     26  H   UNL     1     -33.791  22.481   5.883  0.00  0.00    +0.210 HD
ENDBRANCH  21  25
BRANCH  23  27
ATOM     27  C   UNL     1     -36.810  22.796   3.072  0.00  0.00    +0.186 C 
BRANCH  27  28
ATOM     28  O   UNL     1     -36.667  22.178   1.812  0.00  0.00    -0.271 OA
BRANCH  28  29
ATOM     29  P   UNL     1     -37.501  20.819   1.512  0.00  0.00    +0.473 P 
ATOM     30  O   UNL     1     -37.593  20.441   0.063  0.00  0.00    -0.227 OA
BRANCH  29  31
ATOM     31  O   UNL     1     -36.774  19.726   2.457  0.00  0.00    -0.303 OA
ATOM     32  H   UNL     1     -37.234  19.681   3.311  0.00  0.00    +0.222 HD
ENDBRANCH  29  31
BRANCH  29  33
ATOM     33  O   UNL     1     -38.916  21.069   2.253  0.00  0.00    -0.303 OA
ATOM     34  H   UNL     1     -38.776  21.611   3.046  0.00  0.00    +0.222 HD
ENDBRANCH  29  33
ENDBRANCH  28  29
ENDBRANCH  27  28
ENDBRANCH  23  27
ENDBRANCH   1  22
TORSDOF 8
ENDMDL
MODEL 4
REMARK VINA RESULT:      -6.8      2.925      4.304
REMARK  Name = 191503
REMARK  8 active torsions:
REMARK  status: ('A' for Active; 'I' for Inactive)
REMARK    1  A    between atoms: N_1  and  C_12
REMARK    2  A    between atoms: C_11  and  O_15
REMARK    3  A    between atoms: C_13  and  C_17
REMARK    4  A    between atoms: C_17  and  O_18
REMARK    5  A    between atoms: O_18  and  P_19
REMARK    6  A    between atoms: P_19  and  O_21
REMARK    7  A    between atoms: P_19  and  O_23
REMARK    8  A    between atoms: C_27  and  C_29
REMARK                            x       y       z     vdW  Elec       q    Type
REMARK                         _______ _______ _______ _____ _____    ______ ____
ROOT
ATOM      1  N   UNL     1     -37.157  25.708   2.464  0.00  0.00    -0.249 N 
ATOM      2  N   UNL     1     -35.624  27.330   2.564  0.00  0.00    -0.242 NA
ATOM      3  N   UNL     1     -36.565  24.458   4.462  0.00  0.00    -0.228 NA
ATOM      4  N   UNL     1     -34.672  25.475   5.620  0.00  0.00    -0.228 NA
ATOM      5  C   UNL     1     -36.415  25.464   3.588  0.00  0.00    +0.152 C 
ATOM      6  C   UNL     1     -36.640  26.839   1.885  0.00  0.00    +0.223 C 
ATOM      7  C   UNL     1     -35.473  26.480   3.632  0.00  0.00    +0.141 C 
ATOM      8  C   UNL     1     -34.579  26.463   4.697  0.00  0.00    +0.152 C 
ATOM      9  C   UNL     1     -35.645  24.548   5.447  0.00  0.00    +0.253 C 
ATOM     10  O   UNL     1     -32.457  26.851   6.779  0.00  0.00    -0.270 OA
ATOM     11  N   UNL     1     -33.599  27.449   4.813  0.00  0.00    -0.265 N 
ATOM     12  C   UNL     1     -32.626  27.585   5.812  0.00  0.00    +0.251 C 
ATOM     13  H   UNL     1     -33.589  28.134   4.106  0.00  0.00    +0.157 HD
ENDROOT
BRANCH  12  14
ATOM     14  C   UNL     1     -31.733  28.765   5.675  0.00  0.00    +0.054 C 
ATOM     15  C   UNL     1     -30.477  28.719   6.243  0.00  0.00    +0.005 C 
ATOM     16  C   UNL     1     -32.189  29.867   4.983  0.00  0.00    +0.005 C 
ATOM     17  C   UNL     1     -29.639  29.827   6.113  0.00  0.00    +0.000 C 
ATOM     18  C   UNL     1     -31.351  30.976   4.854  0.00  0.00    +0.000 C 
ATOM     19  C   UNL     1     -30.075  30.955   5.418  0.00  0.00    +0.000 C 
ENDBRANCH  12  14
BRANCH   1  22
ATOM     20  O   UNL     1     -38.944  25.631   0.907  0.00  0.00    -0.335 OA
ATOM     21  C   UNL     1     -40.567  24.412   2.158  0.00  0.00    +0.144 C 
ATOM     22  C   UNL     1     -38.279  24.921   1.966  0.00  0.00    +0.197 C 
ATOM     23  C   UNL     1     -40.368  25.419   1.030  0.00  0.00    +0.174 C 
ATOM     24  C   UNL     1     -39.336  24.606   3.015  0.00  0.00    +0.083 C 
BRANCH  21  25
ATOM     25  O   UNL     1     -40.542  23.090   1.628  0.00  0.00    -0.382 OA
ATOM     26  H   UNL     1     -41.084  23.053   0.823  0.00  0.00    +0.210 HD
ENDBRANCH  21  25
BRANCH  23  27
ATOM     27  C   UNL     1     -41.021  26.763   1.319  0.00  0.00    +0.186 C 
BRANCH  27  28
ATOM     28  O   UNL     1     -42.211  26.529   2.041  0.00  0.00    -0.271 OA
BRANCH  28  29
ATOM     29  P   UNL     1     -42.524  27.441   3.345  0.00  0.00    +0.473 P 
ATOM     30  O   UNL     1     -43.805  27.113   4.053  0.00  0.00    -0.227 OA
BRANCH  29  31
ATOM     31  O   UNL     1     -41.187  27.272   4.241  0.00  0.00    -0.303 OA
ATOM     32  H   UNL     1     -41.418  26.867   5.092  0.00  0.00    +0.222 HD
ENDBRANCH  29  31
BRANCH  29  33
ATOM     33  O   UNL     1     -42.409  28.955   2.788  0.00  0.00    -0.303 OA
ATOM     34  H   UNL     1     -42.825  29.011   1.913  0.00  0.00    +0.222 HD
ENDBRANCH  29  33
ENDBRANCH  28  29
ENDBRANCH  27  28
ENDBRANCH  23  27
ENDBRANCH   1  22
TORSDOF 8
ENDMDL
MODEL 5
REMARK VINA RESULT:      -6.8      3.102      4.739
REMARK  Name = 191503
REMARK  8 active torsions:
REMARK  status: ('A' for Active; 'I' for Inactive)
REMARK    1  A    between atoms: N_1  and  C_12
REMARK    2  A    between atoms: C_11  and  O_15
REMARK    3  A    between atoms: C_13  and  C_17
REMARK    4  A    between atoms: C_17  and  O_18
REMARK    5  A    between atoms: O_18  and  P_19
REMARK    6  A    between atoms: P_19  and  O_21
REMARK    7  A    between atoms: P_19  and  O_23
REMARK    8  A    between atoms: C_27  and  C_29
REMARK                            x       y       z     vdW  Elec       q    Type
REMARK                         _______ _______ _______ _____ _____    ______ ____
ROOT
ATOM      1  N   UNL     1     -34.465  26.087   3.871  0.00  0.00    -0.249 N 
ATOM      2  N   UNL     1     -35.211  27.898   2.797  0.00  0.00    -0.242 NA
ATOM      3  N   UNL     1     -32.466  27.012   4.897  0.00  0.00    -0.228 NA
ATOM      4  N   UNL     1     -32.183  29.369   4.332  0.00  0.00    -0.228 NA
ATOM      5  C   UNL     1     -33.572  27.088   4.142  0.00  0.00    +0.152 C 
ATOM      6  C   UNL     1     -35.430  26.626   3.059  0.00  0.00    +0.223 C 
ATOM      7  C   UNL     1     -34.052  28.200   3.469  0.00  0.00    +0.141 C 
ATOM      8  C   UNL     1     -33.313  29.372   3.583  0.00  0.00    +0.152 C 
ATOM      9  C   UNL     1     -31.835  28.206   4.933  0.00  0.00    +0.253 C 
ATOM     10  O   UNL     1     -32.080  32.105   3.525  0.00  0.00    -0.270 OA
ATOM     11  N   UNL     1     -33.729  30.536   2.934  0.00  0.00    -0.265 N 
ATOM     12  C   UNL     1     -33.111  31.794   2.940  0.00  0.00    +0.251 C 
ATOM     13  H   UNL     1     -34.556  30.464   2.407  0.00  0.00    +0.157 HD
ENDROOT
BRANCH  12  14
ATOM     14  C   UNL     1     -33.815  32.851   2.169  0.00  0.00    +0.054 C 
ATOM     15  C   UNL     1     -34.948  32.514   1.458  0.00  0.00    +0.005 C 
ATOM     16  C   UNL     1     -33.313  34.136   2.191  0.00  0.00    +0.005 C 
ATOM     17  C   UNL     1     -35.609  33.508   0.735  0.00  0.00    +0.000 C 
ATOM     18  C   UNL     1     -33.974  35.130   1.467  0.00  0.00    +0.000 C 
ATOM     19  C   UNL     1     -35.122  34.815   0.740  0.00  0.00    +0.000 C 
ENDBRANCH  12  14
BRANCH   1  22
ATOM     20  O   UNL     1     -34.726  23.807   3.272  0.00  0.00    -0.335 OA
ATOM     21  C   UNL     1     -35.576  22.910   5.310  0.00  0.00    +0.144 C 
ATOM     22  C   UNL     1     -34.410  24.709   4.346  0.00  0.00    +0.197 C 
ATOM     23  C   UNL     1     -35.519  22.721   3.798  0.00  0.00    +0.174 C 
ATOM     24  C   UNL     1     -35.376  24.399   5.479  0.00  0.00    +0.083 C 
BRANCH  21  25
ATOM     25  O   UNL     1     -34.477  22.237   5.918  0.00  0.00    -0.382 OA
ATOM     26  H   UNL     1     -33.981  21.749   5.241  0.00  0.00    +0.210 HD
ENDBRANCH  21  25
BRANCH  23  27
ATOM     27  C   UNL     1     -36.893  22.780   3.147  0.00  0.00    +0.186 C 
BRANCH  27  28
ATOM     28  O   UNL     1     -36.791  22.237   1.849  0.00  0.00    -0.271 OA
BRANCH  28  29
ATOM     29  P   UNL     1     -37.539  20.833   1.530  0.00  0.00    +0.473 P 
ATOM     30  O   UNL     1     -37.554  20.441   0.082  0.00  0.00    -0.227 OA
BRANCH  29  31
ATOM     31  O   UNL     1     -36.792  19.788   2.513  0.00  0.00    -0.303 OA
ATOM     32  H   UNL     1     -35.854  20.026   2.585  0.00  0.00    +0.222 HD
ENDBRANCH  29  31
BRANCH  29  33
ATOM     33  O   UNL     1     -38.993  21.012   2.213  0.00  0.00    -0.303 OA
ATOM     34  H   UNL     1     -39.246  21.949   2.198  0.00  0.00    +0.222 HD
ENDBRANCH  29  33
ENDBRANCH  28  29
ENDBRANCH  27  28
ENDBRANCH  23  27
ENDBRANCH   1  22
TORSDOF 8
ENDMDL
MODEL 6
REMARK VINA RESULT:      -6.6      6.955      9.579
REMARK  Name = 191503
REMARK  8 active torsions:
REMARK  status: ('A' for Active; 'I' for Inactive)
REMARK    1  A    between atoms: N_1  and  C_12
REMARK    2  A    between atoms: C_11  and  O_15
REMARK    3  A    between atoms: C_13  and  C_17
REMARK    4  A    between atoms: C_17  and  O_18
REMARK    5  A    between atoms: O_18  and  P_19
REMARK    6  A    between atoms: P_19  and  O_21
REMARK    7  A    between atoms: P_19  and  O_23
REMARK    8  A    between atoms: C_27  and  C_29
REMARK                            x       y       z     vdW  Elec       q    Type
REMARK                         _______ _______ _______ _____ _____    ______ ____
ROOT
ATOM      1  N   UNL     1     -43.213  27.620   3.093  0.00  0.00    -0.249 N 
ATOM      2  N   UNL     1     -41.264  27.431   4.167  0.00  0.00    -0.242 NA
ATOM      3  N   UNL     1     -42.955  25.841   1.457  0.00  0.00    -0.228 NA
ATOM      4  N   UNL     1     -40.808  24.707   1.705  0.00  0.00    -0.228 NA
ATOM      5  C   UNL     1     -42.541  26.592   2.488  0.00  0.00    +0.152 C 
ATOM      6  C   UNL     1     -42.402  28.090   4.094  0.00  0.00    +0.223 C 
ATOM      7  C   UNL     1     -41.337  26.491   3.169  0.00  0.00    +0.141 C 
ATOM      8  C   UNL     1     -40.454  25.505   2.743  0.00  0.00    +0.152 C 
ATOM      9  C   UNL     1     -42.018  24.923   1.136  0.00  0.00    +0.253 C 
ATOM     10  O   UNL     1     -38.246  23.551   2.200  0.00  0.00    -0.270 OA
ATOM     11  N   UNL     1     -39.222  25.339   3.375  0.00  0.00    -0.265 N 
ATOM     12  C   UNL     1     -38.220  24.404   3.080  0.00  0.00    +0.251 C 
ATOM     13  H   UNL     1     -39.032  25.953   4.119  0.00  0.00    +0.157 HD
ENDROOT
BRANCH  12  14
ATOM     14  C   UNL     1     -37.021  24.458   3.956  0.00  0.00    +0.054 C 
ATOM     15  C   UNL     1     -36.693  25.653   4.561  0.00  0.00    +0.005 C 
ATOM     16  C   UNL     1     -36.277  23.311   4.135  0.00  0.00    +0.005 C 
ATOM     17  C   UNL     1     -35.567  25.703   5.384  0.00  0.00    +0.000 C 
ATOM     18  C   UNL     1     -35.150  23.362   4.959  0.00  0.00    +0.000 C 
ATOM     19  C   UNL     1     -34.797  24.558   5.584  0.00  0.00    +0.000 C 
ENDBRANCH  12  14
BRANCH   1  22
ATOM     20  O   UNL     1     -44.498  29.562   2.648  0.00  0.00    -0.335 OA
ATOM     21  C   UNL     1     -46.615  28.900   3.522  0.00  0.00    +0.144 C 
ATOM     22  C   UNL     1     -44.534  28.128   2.745  0.00  0.00    +0.197 C 
ATOM     23  C   UNL     1     -45.726  30.094   3.193  0.00  0.00    +0.174 C 
ATOM     24  C   UNL     1     -45.622  27.783   3.752  0.00  0.00    +0.083 C 
BRANCH  21  25
ATOM     25  O   UNL     1     -47.410  28.568   2.386  0.00  0.00    -0.382 OA
ATOM     26  H   UNL     1     -47.768  29.381   1.994  0.00  0.00    +0.210 HD
ENDBRANCH  21  25
BRANCH  23  27
ATOM     27  C   UNL     1     -45.377  30.922   4.422  0.00  0.00    +0.186 C 
BRANCH  27  28
ATOM     28  O   UNL     1     -44.340  31.813   4.074  0.00  0.00    -0.271 OA
BRANCH  28  29
ATOM     29  P   UNL     1     -44.509  33.385   4.437  0.00  0.00    +0.473 P 
ATOM     30  O   UNL     1     -45.750  33.725   5.210  0.00  0.00    -0.227 OA
BRANCH  29  31
ATOM     31  O   UNL     1     -43.120  33.741   5.186  0.00  0.00    -0.303 OA
ATOM     32  H   UNL     1     -42.949  33.084   5.879  0.00  0.00    +0.222 HD
ENDBRANCH  29  31
BRANCH  29  33
ATOM     33  O   UNL     1     -44.361  34.124   3.007  0.00  0.00    -0.303 OA
ATOM     34  H   UNL     1     -44.734  33.561   2.310  0.00  0.00    +0.222 HD
ENDBRANCH  29  33
ENDBRANCH  28  29
ENDBRANCH  27  28
ENDBRANCH  23  27
ENDBRANCH   1  22
TORSDOF 8
ENDMDL
MODEL 7
REMARK VINA RESULT:      -6.6      3.273      5.253
REMARK  Name = 191503
REMARK  8 active torsions:
REMARK  status: ('A' for Active; 'I' for Inactive)
REMARK    1  A    between atoms: N_1  and  C_12
REMARK    2  A    between atoms: C_11  and  O_15
REMARK    3  A    between atoms: C_13  and  C_17
REMARK    4  A    between atoms: C_17  and  O_18
REMARK    5  A    between atoms: O_18  and  P_19
REMARK    6  A    between atoms: P_19  and  O_21
REMARK    7  A    between atoms: P_19  and  O_23
REMARK    8  A    between atoms: C_27  and  C_29
REMARK                            x       y       z     vdW  Elec       q    Type
REMARK                         _______ _______ _______ _____ _____    ______ ____
ROOT
ATOM      1  N   UNL     1     -33.893  26.557   4.426  0.00  0.00    -0.249 N 
ATOM      2  N   UNL     1     -32.979  28.593   4.516  0.00  0.00    -0.242 NA
ATOM      3  N   UNL     1     -35.538  26.921   2.675  0.00  0.00    -0.228 NA
ATOM      4  N   UNL     1     -35.459  29.215   1.842  0.00  0.00    -0.228 NA
ATOM      5  C   UNL     1     -34.546  27.311   3.489  0.00  0.00    +0.152 C 
ATOM      6  C   UNL     1     -32.962  27.374   5.015  0.00  0.00    +0.223 C 
ATOM      7  C   UNL     1     -33.965  28.567   3.560  0.00  0.00    +0.141 C 
ATOM      8  C   UNL     1     -34.457  29.539   2.695  0.00  0.00    +0.152 C 
ATOM      9  C   UNL     1     -35.930  27.945   1.885  0.00  0.00    +0.253 C 
ATOM     10  O   UNL     1     -35.170  31.940   1.048  0.00  0.00    -0.270 OA
ATOM     11  N   UNL     1     -33.926  30.829   2.706  0.00  0.00    -0.265 N 
ATOM     12  C   UNL     1     -34.298  31.921   1.910  0.00  0.00    +0.251 C 
ATOM     13  H   UNL     1     -33.202  30.992   3.351  0.00  0.00    +0.157 HD
ENDROOT
BRANCH  12  14
ATOM     14  C   UNL     1     -33.522  33.167   2.137  0.00  0.00    +0.054 C 
ATOM     15  C   UNL     1     -34.076  34.373   1.764  0.00  0.00    +0.005 C 
ATOM     16  C   UNL     1     -32.272  33.077   2.714  0.00  0.00    +0.005 C 
ATOM     17  C   UNL     1     -33.347  35.544   1.978  0.00  0.00    +0.000 C 
ATOM     18  C   UNL     1     -31.543  34.248   2.928  0.00  0.00    +0.000 C 
ATOM     19  C   UNL     1     -32.082  35.481   2.561  0.00  0.00    +0.000 C 
ENDBRANCH  12  14
BRANCH   1  22
ATOM     20  O   UNL     1     -34.250  24.387   3.537  0.00  0.00    -0.335 OA
ATOM     21  C   UNL     1     -35.727  23.478   5.172  0.00  0.00    +0.144 C 
ATOM     22  C   UNL     1     -34.135  25.155   4.747  0.00  0.00    +0.197 C 
ATOM     23  C   UNL     1     -35.280  23.391   3.717  0.00  0.00    +0.174 C 
ATOM     24  C   UNL     1     -35.405  24.907   5.547  0.00  0.00    +0.083 C 
BRANCH  21  25
ATOM     25  O   UNL     1     -34.925  22.612   5.971  0.00  0.00    -0.382 OA
ATOM     26  H   UNL     1     -34.112  23.074   6.234  0.00  0.00    +0.210 HD
ENDBRANCH  21  25
BRANCH  23  27
ATOM     27  C   UNL     1     -36.405  23.694   2.738  0.00  0.00    +0.186 C 
BRANCH  27  28
ATOM     28  O   UNL     1     -37.592  23.890   3.475  0.00  0.00    -0.271 OA
BRANCH  28  29
ATOM     29  P   UNL     1     -38.684  24.957   2.927  0.00  0.00    +0.473 P 
ATOM     30  O   UNL     1     -40.111  24.500   3.013  0.00  0.00    -0.227 OA
BRANCH  29  31
ATOM     31  O   UNL     1     -38.343  26.296   3.767  0.00  0.00    -0.303 OA
ATOM     32  H   UNL     1     -38.131  26.056   4.684  0.00  0.00    +0.222 HD
ENDBRANCH  29  31
BRANCH  29  33
ATOM     33  O   UNL     1     -38.158  25.308   1.439  0.00  0.00    -0.303 OA
ATOM     34  H   UNL     1     -38.246  24.526   0.870  0.00  0.00    +0.222 HD
ENDBRANCH  29  33
ENDBRANCH  28  29
ENDBRANCH  27  28
ENDBRANCH  23  27
ENDBRANCH   1  22
TORSDOF 8
ENDMDL
MODEL 8
REMARK VINA RESULT:      -6.6      3.293      5.230
REMARK  Name = 191503
REMARK  8 active torsions:
REMARK  status: ('A' for Active; 'I' for Inactive)
REMARK    1  A    between atoms: N_1  and  C_12
REMARK    2  A    between atoms: C_11  and  O_15
REMARK    3  A    between atoms: C_13  and  C_17
REMARK    4  A    between atoms: C_17  and  O_18
REMARK    5  A    between atoms: O_18  and  P_19
REMARK    6  A    between atoms: P_19  and  O_21
REMARK    7  A    between atoms: P_19  and  O_23
REMARK    8  A    between atoms: C_27  and  C_29
REMARK                            x       y       z     vdW  Elec       q    Type
REMARK                         _______ _______ _______ _____ _____    ______ ____
ROOT
ATOM      1  N   UNL     1     -34.283  26.563   3.827  0.00  0.00    -0.249 N 
ATOM      2  N   UNL     1     -34.912  28.478   2.865  0.00  0.00    -0.242 NA
ATOM      3  N   UNL     1     -32.170  27.265   4.800  0.00  0.00    -0.228 NA
ATOM      4  N   UNL     1     -31.706  29.613   4.322  0.00  0.00    -0.228 NA
ATOM      5  C   UNL     1     -33.295  27.470   4.100  0.00  0.00    +0.152 C 
ATOM      6  C   UNL     1     -35.230  27.219   3.082  0.00  0.00    +0.223 C 
ATOM      7  C   UNL     1     -33.704  28.649   3.496  0.00  0.00    +0.141 C 
ATOM      8  C   UNL     1     -32.861  29.747   3.625  0.00  0.00    +0.152 C 
ATOM      9  C   UNL     1     -31.437  28.398   4.858  0.00  0.00    +0.253 C 
ATOM     10  O   UNL     1     -31.398  32.364   3.627  0.00  0.00    -0.270 OA
ATOM     11  N   UNL     1     -33.200  30.970   3.046  0.00  0.00    -0.265 N 
ATOM     12  C   UNL     1     -32.476  32.170   3.076  0.00  0.00    +0.251 C 
ATOM     13  H   UNL     1     -34.052  30.994   2.554  0.00  0.00    +0.157 HD
ENDROOT
BRANCH  12  14
ATOM     14  C   UNL     1     -33.116  33.317   2.383  0.00  0.00    +0.054 C 
ATOM     15  C   UNL     1     -32.544  34.567   2.499  0.00  0.00    +0.005 C 
ATOM     16  C   UNL     1     -34.260  33.095   1.646  0.00  0.00    +0.005 C 
ATOM     17  C   UNL     1     -33.145  35.645   1.847  0.00  0.00    +0.000 C 
ATOM     18  C   UNL     1     -34.861  34.173   0.994  0.00  0.00    +0.000 C 
ATOM     19  C   UNL     1     -34.302  35.448   1.094  0.00  0.00    +0.000 C 
ENDBRANCH  12  14
BRANCH   1  22
ATOM     20  O   UNL     1     -34.626  24.328   3.109  0.00  0.00    -0.335 OA
ATOM     21  C   UNL     1     -35.644  23.393   5.051  0.00  0.00    +0.144 C 
ATOM     22  C   UNL     1     -34.329  25.165   4.241  0.00  0.00    +0.197 C 
ATOM     23  C   UNL     1     -35.505  23.265   3.538  0.00  0.00    +0.174 C 
ATOM     24  C   UNL     1     -35.378  24.860   5.300  0.00  0.00    +0.083 C 
BRANCH  21  25
ATOM     25  O   UNL     1     -34.621  22.635   5.691  0.00  0.00    -0.382 OA
ATOM     26  H   UNL     1     -33.784  23.127   5.656  0.00  0.00    +0.210 HD
ENDBRANCH  21  25
BRANCH  23  27
ATOM     27  C   UNL     1     -36.831  23.427   2.810  0.00  0.00    +0.186 C 
BRANCH  27  28
ATOM     28  O   UNL     1     -37.745  24.047   3.689  0.00  0.00    -0.271 OA
BRANCH  28  29
ATOM     29  P   UNL     1     -38.909  24.989   3.065  0.00  0.00    +0.473 P 
ATOM     30  O   UNL     1     -39.268  24.689   1.639  0.00  0.00    -0.227 OA
BRANCH  29  31
ATOM     31  O   UNL     1     -40.121  24.823   4.123  0.00  0.00    -0.303 OA
ATOM     32  H   UNL     1     -40.191  23.893   4.392  0.00  0.00    +0.222 HD
ENDBRANCH  29  31
BRANCH  29  33
ATOM     33  O   UNL     1     -38.376  26.489   3.344  0.00  0.00    -0.303 OA
ATOM     34  H   UNL     1     -38.521  27.037   2.556  0.00  0.00    +0.222 HD
ENDBRANCH  29  33
ENDBRANCH  28  29
ENDBRANCH  27  28
ENDBRANCH  23  27
ENDBRANCH   1  22
TORSDOF 8
ENDMDL
MODEL 9
REMARK VINA RESULT:      -6.5      6.925      9.431
REMARK  Name = 191503
REMARK  8 active torsions:
REMARK  status: ('A' for Active; 'I' for Inactive)
REMARK    1  A    between atoms: N_1  and  C_12
REMARK    2  A    between atoms: C_11  and  O_15
REMARK    3  A    between atoms: C_13  and  C_17
REMARK    4  A    between atoms: C_17  and  O_18
REMARK    5  A    between atoms: O_18  and  P_19
REMARK    6  A    between atoms: P_19  and  O_21
REMARK    7  A    between atoms: P_19  and  O_23
REMARK    8  A    between atoms: C_27  and  C_29
REMARK                            x       y       z     vdW  Elec       q    Type
REMARK                         _______ _______ _______ _____ _____    ______ ____
ROOT
ATOM      1  N   UNL     1     -36.143  30.826   1.024  0.00  0.00    -0.249 N 
ATOM      2  N   UNL     1     -36.599  28.675   1.420  0.00  0.00    -0.242 NA
ATOM      3  N   UNL     1     -34.218  31.112   2.478  0.00  0.00    -0.228 NA
ATOM      4  N   UNL     1     -33.672  29.043   3.652  0.00  0.00    -0.228 NA
ATOM      5  C   UNL     1     -35.211  30.397   1.929  0.00  0.00    +0.152 C 
ATOM      6  C   UNL     1     -36.954  29.753   0.751  0.00  0.00    +0.223 C 
ATOM      7  C   UNL     1     -35.510  29.064   2.160  0.00  0.00    +0.141 C 
ATOM      8  C   UNL     1     -34.697  28.382   3.059  0.00  0.00    +0.152 C 
ATOM      9  C   UNL     1     -33.500  30.348   3.329  0.00  0.00    +0.253 C 
ATOM     10  O   UNL     1     -33.244  26.510   4.896  0.00  0.00    -0.270 OA
ATOM     11  N   UNL     1     -34.933  27.038   3.347  0.00  0.00    -0.265 N 
ATOM     12  C   UNL     1     -34.219  26.204   4.219  0.00  0.00    +0.251 C 
ATOM     13  H   UNL     1     -35.694  26.624   2.881  0.00  0.00    +0.157 HD
ENDROOT
BRANCH  12  14
ATOM     14  C   UNL     1     -34.700  24.800   4.293  0.00  0.00    +0.054 C 
ATOM     15  C   UNL     1     -34.964  24.125   3.121  0.00  0.00    +0.005 C 
ATOM     16  C   UNL     1     -34.865  24.219   5.533  0.00  0.00    +0.005 C 
ATOM     17  C   UNL     1     -35.415  22.806   3.191  0.00  0.00    +0.000 C 
ATOM     18  C   UNL     1     -35.317  22.900   5.603  0.00  0.00    +0.000 C 
ATOM     19  C   UNL     1     -35.590  22.193   4.431  0.00  0.00    +0.000 C 
ENDBRANCH  12  14
BRANCH   1  22
ATOM     20  O   UNL     1     -36.528  33.118   1.498  0.00  0.00    -0.335 OA
ATOM     21  C   UNL     1     -37.687  33.787  -0.475  0.00  0.00    +0.144 C 
ATOM     22  C   UNL     1     -36.264  32.163   0.455  0.00  0.00    +0.197 C 
ATOM     23  C   UNL     1     -37.468  34.096   1.003  0.00  0.00    +0.174 C 
ATOM     24  C   UNL     1     -37.381  32.309  -0.567  0.00  0.00    +0.083 C 
BRANCH  21  25
ATOM     25  O   UNL     1     -36.730  34.495  -1.258  0.00  0.00    -0.382 OA
ATOM     26  H   UNL     1     -35.919  34.623  -0.740  0.00  0.00    +0.210 HD
ENDBRANCH  21  25
BRANCH  23  27
ATOM     27  C   UNL     1     -38.745  33.980   1.823  0.00  0.00    +0.186 C 
BRANCH  27  28
ATOM     28  O   UNL     1     -39.638  34.984   1.393  0.00  0.00    -0.271 OA
BRANCH  28  29
ATOM     29  P   UNL     1     -40.993  35.240   2.248  0.00  0.00    +0.473 P 
ATOM     30  O   UNL     1     -41.966  34.097   2.247  0.00  0.00    -0.227 OA
BRANCH  29  31
ATOM     31  O   UNL     1     -40.433  35.659   3.707  0.00  0.00    -0.303 OA
ATOM     32  H   UNL     1     -40.905  35.156   4.390  0.00  0.00    +0.222 HD
ENDBRANCH  29  31
BRANCH  29  33
ATOM     33  O   UNL     1     -41.561  36.632   1.654  0.00  0.00    -0.303 OA
ATOM     34  H   UNL     1     -40.963  37.357   1.897  0.00  0.00    +0.222 HD
ENDBRANCH  29  33
ENDBRANCH  28  29
ENDBRANCH  27  28
ENDBRANCH  23  27
ENDBRANCH   1  22
TORSDOF 8
ENDMDL
