MODEL 1
REMARK VINA RESULT:      -6.4      0.000      0.000
REMARK  Name = 5284461
REMARK  10 active torsions:
REMARK  status: ('A' for Active; 'I' for Inactive)
REMARK    1  A    between atoms: C_5  and  C_30
REMARK    2  A    between atoms: C_7  and  O_19
REMARK    3  A    between atoms: C_9  and  O_17
REMARK    4  A    between atoms: C_13  and  O_23
REMARK    5  A    between atoms: O_19  and  C_21
REMARK    6  A    between atoms: O_23  and  C_25
REMARK    7  A    between atoms: C_25  and  C_26
REMARK    8  A    between atoms: C_26  and  C_27
REMARK    9  A    between atoms: C_30  and  O_31
REMARK   10  A    between atoms: O_31  and  C_33
REMARK                            x       y       z     vdW  Elec       q    Type
REMARK                         _______ _______ _______ _____ _____    ______ ____
ROOT
ATOM      1  O   UNL     1     -32.649  26.914   0.899  0.00  0.00    -0.351 OA
ATOM      2  O   UNL     1     -33.017  25.636   4.295  0.00  0.00    -0.349 OA
ATOM      3  C   UNL     1     -34.747  26.586   2.229  0.00  0.00    +0.073 C 
ATOM      4  C   UNL     1     -33.271  26.293   2.036  0.00  0.00    +0.151 C 
ATOM      5  C   UNL     1     -35.288  25.452   3.225  0.00  0.00    +0.079 C 
ATOM      6  C   UNL     1     -32.637  26.633   3.341  0.00  0.00    +0.173 C 
ATOM      7  C   UNL     1     -34.653  27.975   2.986  0.00  0.00    +0.200 C 
ATOM      8  C   UNL     1     -32.619  25.481   0.943  0.00  0.00    +0.172 C 
ATOM      9  C   UNL     1     -33.237  28.019   3.619  0.00  0.00    +0.180 C 
ATOM     10  C   UNL     1     -34.427  25.474   4.536  0.00  0.00    +0.140 C 
ATOM     11  C   UNL     1     -35.547  26.678   0.924  0.00  0.00    +0.006 C 
ATOM     12  C   UNL     1     -35.171  24.024   2.597  0.00  0.00    +0.054 C 
ATOM     13  C   UNL     1     -35.549  22.872   3.545  0.00  0.00    +0.187 C 
ATOM     14  C   UNL     1     -34.558  24.237   5.384  0.00  0.00    -0.002 C 
ATOM     15  C   UNL     1     -35.079  23.072   4.964  0.00  0.00    -0.007 C 
ATOM     16  C   UNL     1     -35.182  21.889   5.884  0.00  0.00    +0.030 C 
ENDROOT
BRANCH   9  17
ATOM     17  O   UNL     1     -33.266  28.321   5.001  0.00  0.00    -0.379 OA
ATOM     18  H   UNL     1     -33.382  29.276   5.120  0.00  0.00    +0.211 HD
ENDBRANCH   9  17
BRANCH   7  19
ATOM     19  O   UNL     1     -34.763  29.064   2.069  0.00  0.00    -0.450 OA
BRANCH  19  21
ATOM     20  O   UNL     1     -35.070  30.699   3.671  0.00  0.00    -0.250 OA
ATOM     21  C   UNL     1     -35.305  30.210   2.574  0.00  0.00    +0.318 C 
ATOM     22  C   UNL     1     -36.252  30.804   1.577  0.00  0.00    +0.121 C 
ENDBRANCH  19  21
ENDBRANCH   7  19
BRANCH  13  23
ATOM     23  O   UNL     1     -36.963  22.687   3.516  0.00  0.00    -0.448 OA
BRANCH  23  25
ATOM     24  O   UNL     1     -38.372  22.158   1.768  0.00  0.00    -0.250 OA
ATOM     25  C   UNL     1     -37.436  21.890   2.510  0.00  0.00    +0.317 C 
BRANCH  25  26
ATOM     26  C   UNL     1     -36.643  20.601   2.482  0.00  0.00    +0.110 C 
BRANCH  26  27
ATOM     27  C   UNL     1     -35.903  20.376   1.155  0.00  0.00    +0.011 C 
ATOM     28  C   UNL     1     -36.665  19.369   0.292  0.00  0.00    +0.001 C 
ATOM     29  C   UNL     1     -34.473  19.879   1.390  0.00  0.00    +0.001 C 
ENDBRANCH  26  27
ENDBRANCH  25  26
ENDBRANCH  23  25
ENDBRANCH  13  23
BRANCH   5  30
ATOM     30  C   UNL     1     -36.779  25.708   3.577  0.00  0.00    +0.211 C 
BRANCH  30  31
ATOM     31  O   UNL     1     -37.538  25.443   2.422  0.00  0.00    -0.448 OA
BRANCH  31  33
ATOM     32  O   UNL     1     -39.275  26.849   1.833  0.00  0.00    -0.250 OA
ATOM     33  C   UNL     1     -38.841  25.876   2.437  0.00  0.00    +0.318 C 
ATOM     34  C   UNL     1     -39.680  24.985   3.303  0.00  0.00    +0.121 C 
ENDBRANCH  31  33
ENDBRANCH  30  31
ENDBRANCH   5  30
TORSDOF 10
ENDMDL
MODEL 2
REMARK VINA RESULT:      -6.4      2.434      6.991
REMARK  Name = 5284461
REMARK  10 active torsions:
REMARK  status: ('A' for Active; 'I' for Inactive)
REMARK    1  A    between atoms: C_5  and  C_30
REMARK    2  A    between atoms: C_7  and  O_19
REMARK    3  A    between atoms: C_9  and  O_17
REMARK    4  A    between atoms: C_13  and  O_23
REMARK    5  A    between atoms: O_19  and  C_21
REMARK    6  A    between atoms: O_23  and  C_25
REMARK    7  A    between atoms: C_25  and  C_26
REMARK    8  A    between atoms: C_26  and  C_27
REMARK    9  A    between atoms: C_30  and  O_31
REMARK   10  A    between atoms: O_31  and  C_33
REMARK                            x       y       z     vdW  Elec       q    Type
REMARK                         _______ _______ _______ _____ _____    ______ ____
ROOT
ATOM      1  O   UNL     1     -35.533  21.465  -2.215  0.00  0.00    -0.351 OA
ATOM      2  O   UNL     1     -37.961  21.344   0.505  0.00  0.00    -0.349 OA
ATOM      3  C   UNL     1     -35.196  22.005   0.209  0.00  0.00    +0.073 C 
ATOM      4  C   UNL     1     -36.145  21.773  -0.952  0.00  0.00    +0.151 C 
ATOM      5  C   UNL     1     -36.054  22.770   1.326  0.00  0.00    +0.079 C 
ATOM      6  C   UNL     1     -37.101  20.738  -0.467  0.00  0.00    +0.173 C 
ATOM      7  C   UNL     1     -34.937  20.506   0.654  0.00  0.00    +0.200 C 
ATOM      8  C   UNL     1     -36.353  22.639  -2.171  0.00  0.00    +0.172 C 
ATOM      9  C   UNL     1     -36.144  19.691   0.119  0.00  0.00    +0.180 C 
ATOM     10  C   UNL     1     -37.326  21.914   1.665  0.00  0.00    +0.140 C 
ATOM     11  C   UNL     1     -33.904  22.739  -0.170  0.00  0.00    +0.006 C 
ATOM     12  C   UNL     1     -36.538  24.171   0.828  0.00  0.00    +0.054 C 
ATOM     13  C   UNL     1     -37.479  24.909   1.797  0.00  0.00    +0.187 C 
ATOM     14  C   UNL     1     -38.405  22.670   2.391  0.00  0.00    -0.002 C 
ATOM     15  C   UNL     1     -38.476  24.009   2.481  0.00  0.00    -0.007 C 
ATOM     16  C   UNL     1     -39.585  24.681   3.240  0.00  0.00    +0.030 C 
ENDROOT
BRANCH   9  17
ATOM     17  O   UNL     1     -36.760  18.906   1.121  0.00  0.00    -0.379 OA
ATOM     18  H   UNL     1     -36.083  18.400   1.597  0.00  0.00    +0.211 HD
ENDBRANCH   9  17
BRANCH   7  19
ATOM     19  O   UNL     1     -33.750  19.992   0.048  0.00  0.00    -0.450 OA
BRANCH  19  21
ATOM     20  O   UNL     1     -33.282  18.617   1.844  0.00  0.00    -0.250 OA
ATOM     21  C   UNL     1     -32.934  19.270   0.869  0.00  0.00    +0.318 C 
ATOM     22  C   UNL     1     -31.515  19.387   0.400  0.00  0.00    +0.121 C 
ENDBRANCH  19  21
ENDBRANCH   7  19
BRANCH  13  23
ATOM     23  O   UNL     1     -36.698  25.607   2.766  0.00  0.00    -0.448 OA
BRANCH  23  25
ATOM     24  O   UNL     1     -37.062  27.634   1.730  0.00  0.00    -0.250 OA
ATOM     25  C   UNL     1     -36.409  26.910   2.469  0.00  0.00    +0.317 C 
BRANCH  25  26
ATOM     26  C   UNL     1     -35.127  27.307   3.169  0.00  0.00    +0.110 C 
BRANCH  26  27
ATOM     27  C   UNL     1     -34.300  26.104   3.644  0.00  0.00    +0.011 C 
ATOM     28  C   UNL     1     -33.944  26.262   5.124  0.00  0.00    +0.001 C 
ATOM     29  C   UNL     1     -33.020  25.943   2.819  0.00  0.00    +0.001 C 
ENDBRANCH  26  27
ENDBRANCH  25  26
ENDBRANCH  23  25
ENDBRANCH  13  23
BRANCH   5  30
ATOM     30  C   UNL     1     -35.208  22.975   2.612  0.00  0.00    +0.211 C 
BRANCH  30  31
ATOM     31  O   UNL     1     -35.696  22.084   3.585  0.00  0.00    -0.448 OA
BRANCH  31  33
ATOM     32  O   UNL     1     -36.295  23.581   5.240  0.00  0.00    -0.250 OA
ATOM     33  C   UNL     1     -35.739  22.554   4.875  0.00  0.00    +0.318 C 
ATOM     34  C   UNL     1     -35.003  21.626   5.796  0.00  0.00    +0.121 C 
ENDBRANCH  31  33
ENDBRANCH  30  31
ENDBRANCH   5  30
TORSDOF 10
ENDMDL
MODEL 3
REMARK VINA RESULT:      -6.3      1.326      1.767
REMARK  Name = 5284461
REMARK  10 active torsions:
REMARK  status: ('A' for Active; 'I' for Inactive)
REMARK    1  A    between atoms: C_5  and  C_30
REMARK    2  A    between atoms: C_7  and  O_19
REMARK    3  A    between atoms: C_9  and  O_17
REMARK    4  A    between atoms: C_13  and  O_23
REMARK    5  A    between atoms: O_19  and  C_21
REMARK    6  A    between atoms: O_23  and  C_25
REMARK    7  A    between atoms: C_25  and  C_26
REMARK    8  A    between atoms: C_26  and  C_27
REMARK    9  A    between atoms: C_30  and  O_31
REMARK   10  A    between atoms: O_31  and  C_33
REMARK                            x       y       z     vdW  Elec       q    Type
REMARK                         _______ _______ _______ _____ _____    ______ ____
ROOT
ATOM      1  O   UNL     1     -32.734  26.818   0.590  0.00  0.00    -0.351 OA
ATOM      2  O   UNL     1     -34.023  26.278   3.958  0.00  0.00    -0.349 OA
ATOM      3  C   UNL     1     -35.012  26.042   1.287  0.00  0.00    +0.073 C 
ATOM      4  C   UNL     1     -33.554  26.279   1.639  0.00  0.00    +0.151 C 
ATOM      5  C   UNL     1     -35.570  25.038   2.406  0.00  0.00    +0.079 C 
ATOM      6  C   UNL     1     -33.586  27.108   2.876  0.00  0.00    +0.173 C 
ATOM      7  C   UNL     1     -35.591  27.498   1.526  0.00  0.00    +0.200 C 
ATOM      8  C   UNL     1     -32.342  25.545   1.120  0.00  0.00    +0.172 C 
ATOM      9  C   UNL     1     -34.594  28.199   2.486  0.00  0.00    +0.180 C 
ATOM     10  C   UNL     1     -35.319  25.665   3.823  0.00  0.00    +0.140 C 
ATOM     11  C   UNL     1     -35.242  25.543  -0.144  0.00  0.00    +0.006 C 
ATOM     12  C   UNL     1     -34.844  23.654   2.358  0.00  0.00    +0.054 C 
ATOM     13  C   UNL     1     -35.234  22.683   3.487  0.00  0.00    +0.187 C 
ATOM     14  C   UNL     1     -35.429  24.687   4.961  0.00  0.00    -0.002 C 
ATOM     15  C   UNL     1     -35.417  23.350   4.827  0.00  0.00    -0.007 C 
ATOM     16  C   UNL     1     -35.546  22.446   6.020  0.00  0.00    +0.030 C 
ENDROOT
BRANCH   9  17
ATOM     17  O   UNL     1     -35.231  28.766   3.615  0.00  0.00    -0.379 OA
ATOM     18  H   UNL     1     -36.139  28.432   3.675  0.00  0.00    +0.211 HD
ENDBRANCH   9  17
BRANCH   7  19
ATOM     19  O   UNL     1     -35.626  28.238   0.305  0.00  0.00    -0.450 OA
BRANCH  19  21
ATOM     20  O   UNL     1     -37.865  28.727   0.599  0.00  0.00    -0.250 OA
ATOM     21  C   UNL     1     -36.782  28.922   0.063  0.00  0.00    +0.318 C 
ATOM     22  C   UNL     1     -36.537  29.976  -0.974  0.00  0.00    +0.121 C 
ENDBRANCH  19  21
ENDBRANCH   7  19
BRANCH  13  23
ATOM     23  O   UNL     1     -36.423  21.988   3.116  0.00  0.00    -0.448 OA
BRANCH  23  25
ATOM     24  O   UNL     1     -37.080  20.595   1.399  0.00  0.00    -0.250 OA
ATOM     25  C   UNL     1     -36.257  20.961   2.228  0.00  0.00    +0.317 C 
BRANCH  25  26
ATOM     26  C   UNL     1     -34.906  20.318   2.458  0.00  0.00    +0.110 C 
BRANCH  26  27
ATOM     27  C   UNL     1     -34.250  19.812   1.165  0.00  0.00    +0.011 C 
ATOM     28  C   UNL     1     -33.245  18.705   1.484  0.00  0.00    +0.001 C 
ATOM     29  C   UNL     1     -33.548  20.946   0.412  0.00  0.00    +0.001 C 
ENDBRANCH  26  27
ENDBRANCH  25  26
ENDBRANCH  23  25
ENDBRANCH  13  23
BRANCH   5  30
ATOM     30  C   UNL     1     -37.091  24.798   2.206  0.00  0.00    +0.211 C 
BRANCH  30  31
ATOM     31  O   UNL     1     -37.774  25.811   2.904  0.00  0.00    -0.448 OA
BRANCH  31  33
ATOM     32  O   UNL     1     -39.917  26.676   2.906  0.00  0.00    -0.250 OA
ATOM     33  C   UNL     1     -39.145  25.726   2.914  0.00  0.00    +0.318 C 
ATOM     34  C   UNL     1     -39.581  24.292   2.937  0.00  0.00    +0.121 C 
ENDBRANCH  31  33
ENDBRANCH  30  31
ENDBRANCH   5  30
TORSDOF 10
ENDMDL
MODEL 4
REMARK VINA RESULT:      -6.1      2.092      6.452
REMARK  Name = 5284461
REMARK  10 active torsions:
REMARK  status: ('A' for Active; 'I' for Inactive)
REMARK    1  A    between atoms: C_5  and  C_30
REMARK    2  A    between atoms: C_7  and  O_19
REMARK    3  A    between atoms: C_9  and  O_17
REMARK    4  A    between atoms: C_13  and  O_23
REMARK    5  A    between atoms: O_19  and  C_21
REMARK    6  A    between atoms: O_23  and  C_25
REMARK    7  A    between atoms: C_25  and  C_26
REMARK    8  A    between atoms: C_26  and  C_27
REMARK    9  A    between atoms: C_30  and  O_31
REMARK   10  A    between atoms: O_31  and  C_33
REMARK                            x       y       z     vdW  Elec       q    Type
REMARK                         _______ _______ _______ _____ _____    ______ ____
ROOT
ATOM      1  O   UNL     1     -36.311  22.742   5.244  0.00  0.00    -0.351 OA
ATOM      2  O   UNL     1     -34.715  23.227   2.001  0.00  0.00    -0.349 OA
ATOM      3  C   UNL     1     -36.211  24.818   3.845  0.00  0.00    +0.073 C 
ATOM      4  C   UNL     1     -35.680  23.430   4.153  0.00  0.00    +0.151 C 
ATOM      5  C   UNL     1     -35.081  25.528   2.956  0.00  0.00    +0.079 C 
ATOM      6  C   UNL     1     -35.737  22.699   2.855  0.00  0.00    +0.173 C 
ATOM      7  C   UNL     1     -37.457  24.440   2.941  0.00  0.00    +0.200 C 
ATOM      8  C   UNL     1     -34.903  22.979   5.366  0.00  0.00    +0.172 C 
ATOM      9  C   UNL     1     -37.163  23.020   2.388  0.00  0.00    +0.180 C 
ATOM     10  C   UNL     1     -34.785  24.634   1.701  0.00  0.00    +0.140 C 
ATOM     11  C   UNL     1     -36.606  25.630   5.084  0.00  0.00    +0.006 C 
ATOM     12  C   UNL     1     -33.744  25.702   3.748  0.00  0.00    +0.054 C 
ATOM     13  C   UNL     1     -32.572  26.256   2.918  0.00  0.00    +0.187 C 
ATOM     14  C   UNL     1     -33.498  24.965   0.994  0.00  0.00    -0.002 C 
ATOM     15  C   UNL     1     -32.508  25.709   1.514  0.00  0.00    -0.007 C 
ATOM     16  C   UNL     1     -31.259  26.001   0.731  0.00  0.00    +0.030 C 
ENDROOT
BRANCH   9  17
ATOM     17  O   UNL     1     -37.294  22.944   0.981  0.00  0.00    -0.379 OA
ATOM     18  H   UNL     1     -37.600  22.059   0.732  0.00  0.00    +0.211 HD
ENDBRANCH   9  17
BRANCH   7  19
ATOM     19  O   UNL     1     -38.651  24.375   3.720  0.00  0.00    -0.450 OA
BRANCH  19  21
ATOM     20  O   UNL     1     -40.383  23.568   2.422  0.00  0.00    -0.250 OA
ATOM     21  C   UNL     1     -39.818  24.474   3.021  0.00  0.00    +0.318 C 
ATOM     22  C   UNL     1     -40.330  25.881   3.089  0.00  0.00    +0.121 C 
ENDBRANCH  19  21
ENDBRANCH   7  19
BRANCH  13  23
ATOM     23  O   UNL     1     -32.652  27.680   2.889  0.00  0.00    -0.448 OA
BRANCH  23  25
ATOM     24  O   UNL     1     -30.496  28.392   3.289  0.00  0.00    -0.250 OA
ATOM     25  C   UNL     1     -31.682  28.343   3.588  0.00  0.00    +0.317 C 
BRANCH  25  26
ATOM     26  C   UNL     1     -32.298  28.978   4.816  0.00  0.00    +0.110 C 
BRANCH  26  27
ATOM     27  C   UNL     1     -31.678  28.481   6.130  0.00  0.00    +0.011 C 
ATOM     28  C   UNL     1     -32.562  27.396   6.750  0.00  0.00    +0.001 C 
ATOM     29  C   UNL     1     -31.488  29.626   7.128  0.00  0.00    +0.001 C 
ENDBRANCH  26  27
ENDBRANCH  25  26
ENDBRANCH  23  25
ENDBRANCH  13  23
BRANCH   5  30
ATOM     30  C   UNL     1     -35.559  26.931   2.494  0.00  0.00    +0.211 C 
BRANCH  30  31
ATOM     31  O   UNL     1     -35.983  26.814   1.157  0.00  0.00    -0.448 OA
BRANCH  31  33
ATOM     32  O   UNL     1     -37.437  28.609   1.102  0.00  0.00    -0.250 OA
ATOM     33  C   UNL     1     -37.157  27.449   0.832  0.00  0.00    +0.318 C 
ATOM     34  C   UNL     1     -38.069  26.518   0.090  0.00  0.00    +0.121 C 
ENDBRANCH  31  33
ENDBRANCH  30  31
ENDBRANCH   5  30
TORSDOF 10
ENDMDL
MODEL 5
REMARK VINA RESULT:      -6.0      1.099      1.611
REMARK  Name = 5284461
REMARK  10 active torsions:
REMARK  status: ('A' for Active; 'I' for Inactive)
REMARK    1  A    between atoms: C_5  and  C_30
REMARK    2  A    between atoms: C_7  and  O_19
REMARK    3  A    between atoms: C_9  and  O_17
REMARK    4  A    between atoms: C_13  and  O_23
REMARK    5  A    between atoms: O_19  and  C_21
REMARK    6  A    between atoms: O_23  and  C_25
REMARK    7  A    between atoms: C_25  and  C_26
REMARK    8  A    between atoms: C_26  and  C_27
REMARK    9  A    between atoms: C_30  and  O_31
REMARK   10  A    between atoms: O_31  and  C_33
REMARK                            x       y       z     vdW  Elec       q    Type
REMARK                         _______ _______ _______ _____ _____    ______ ____
ROOT
ATOM      1  O   UNL     1     -32.729  26.913   0.795  0.00  0.00    -0.351 OA
ATOM      2  O   UNL     1     -33.056  25.537   4.157  0.00  0.00    -0.349 OA
ATOM      3  C   UNL     1     -34.810  26.565   2.147  0.00  0.00    +0.073 C 
ATOM      4  C   UNL     1     -33.339  26.264   1.923  0.00  0.00    +0.151 C 
ATOM      5  C   UNL     1     -35.346  25.407   3.117  0.00  0.00    +0.079 C 
ATOM      6  C   UNL     1     -32.681  26.559   3.227  0.00  0.00    +0.173 C 
ATOM      7  C   UNL     1     -34.690  27.930   2.945  0.00  0.00    +0.200 C 
ATOM      8  C   UNL     1     -32.712  25.480   0.796  0.00  0.00    +0.172 C 
ATOM      9  C   UNL     1     -33.264  27.941   3.556  0.00  0.00    +0.180 C 
ATOM     10  C   UNL     1     -34.465  25.382   4.415  0.00  0.00    +0.140 C 
ATOM     11  C   UNL     1     -35.628  26.705   0.859  0.00  0.00    +0.006 C 
ATOM     12  C   UNL     1     -35.253  23.998   2.446  0.00  0.00    +0.054 C 
ATOM     13  C   UNL     1     -35.627  22.821   3.364  0.00  0.00    +0.187 C 
ATOM     14  C   UNL     1     -34.594  24.121   5.227  0.00  0.00    -0.002 C 
ATOM     15  C   UNL     1     -35.133  22.974   4.781  0.00  0.00    -0.007 C 
ATOM     16  C   UNL     1     -35.234  21.764   5.666  0.00  0.00    +0.030 C 
ENDROOT
BRANCH   9  17
ATOM     17  O   UNL     1     -33.268  28.201   4.946  0.00  0.00    -0.379 OA
ATOM     18  H   UNL     1     -33.567  27.411   5.422  0.00  0.00    +0.211 HD
ENDBRANCH   9  17
BRANCH   7  19
ATOM     19  O   UNL     1     -34.804  29.047   2.062  0.00  0.00    -0.450 OA
BRANCH  19  21
ATOM     20  O   UNL     1     -34.979  30.641   3.725  0.00  0.00    -0.250 OA
ATOM     21  C   UNL     1     -35.277  30.197   2.624  0.00  0.00    +0.318 C 
ATOM     22  C   UNL     1     -36.234  30.862   1.682  0.00  0.00    +0.121 C 
ENDBRANCH  19  21
ENDBRANCH   7  19
BRANCH  13  23
ATOM     23  O   UNL     1     -37.043  22.650   3.352  0.00  0.00    -0.448 OA
BRANCH  23  25
ATOM     24  O   UNL     1     -36.925  20.671   2.175  0.00  0.00    -0.250 OA
ATOM     25  C   UNL     1     -37.518  21.691   2.500  0.00  0.00    +0.317 C 
BRANCH  25  26
ATOM     26  C   UNL     1     -38.881  22.107   1.991  0.00  0.00    +0.110 C 
BRANCH  26  27
ATOM     27  C   UNL     1     -39.012  22.007   0.464  0.00  0.00    +0.011 C 
ATOM     28  C   UNL     1     -38.471  23.278  -0.194  0.00  0.00    +0.001 C 
ATOM     29  C   UNL     1     -40.466  21.783   0.040  0.00  0.00    +0.001 C 
ENDBRANCH  26  27
ENDBRANCH  25  26
ENDBRANCH  23  25
ENDBRANCH  13  23
BRANCH   5  30
ATOM     30  C   UNL     1     -36.828  25.667   3.501  0.00  0.00    +0.211 C 
BRANCH  30  31
ATOM     31  O   UNL     1     -37.611  25.414   2.359  0.00  0.00    -0.448 OA
BRANCH  31  33
ATOM     32  O   UNL     1     -39.207  26.950   1.699  0.00  0.00    -0.250 OA
ATOM     33  C   UNL     1     -38.868  25.968   2.346  0.00  0.00    +0.318 C 
ATOM     34  C   UNL     1     -39.788  25.198   3.245  0.00  0.00    +0.121 C 
ENDBRANCH  31  33
ENDBRANCH  30  31
ENDBRANCH   5  30
TORSDOF 10
ENDMDL
MODEL 6
REMARK VINA RESULT:      -5.5      2.559      6.119
REMARK  Name = 5284461
REMARK  10 active torsions:
REMARK  status: ('A' for Active; 'I' for Inactive)
REMARK    1  A    between atoms: C_5  and  C_30
REMARK    2  A    between atoms: C_7  and  O_19
REMARK    3  A    between atoms: C_9  and  O_17
REMARK    4  A    between atoms: C_13  and  O_23
REMARK    5  A    between atoms: O_19  and  C_21
REMARK    6  A    between atoms: O_23  and  C_25
REMARK    7  A    between atoms: C_25  and  C_26
REMARK    8  A    between atoms: C_26  and  C_27
REMARK    9  A    between atoms: C_30  and  O_31
REMARK   10  A    between atoms: O_31  and  C_33
REMARK                            x       y       z     vdW  Elec       q    Type
REMARK                         _______ _______ _______ _____ _____    ______ ____
ROOT
ATOM      1  O   UNL     1     -38.567  22.023   2.436  0.00  0.00    -0.351 OA
ATOM      2  O   UNL     1     -37.701  25.258   0.992  0.00  0.00    -0.349 OA
ATOM      3  C   UNL     1     -36.308  23.087   2.223  0.00  0.00    +0.073 C 
ATOM      4  C   UNL     1     -37.767  23.037   1.807  0.00  0.00    +0.151 C 
ATOM      5  C   UNL     1     -35.561  23.934   1.085  0.00  0.00    +0.079 C 
ATOM      6  C   UNL     1     -38.272  24.425   2.007  0.00  0.00    +0.173 C 
ATOM      7  C   UNL     1     -36.431  23.947   3.549  0.00  0.00    +0.200 C 
ATOM      8  C   UNL     1     -38.470  21.967   1.008  0.00  0.00    +0.172 C 
ATOM      9  C   UNL     1     -37.763  24.733   3.422  0.00  0.00    +0.180 C 
ATOM     10  C   UNL     1     -36.263  25.330   0.947  0.00  0.00    +0.140 C 
ATOM     11  C   UNL     1     -35.676  21.712   2.469  0.00  0.00    +0.006 C 
ATOM     12  C   UNL     1     -35.629  23.223  -0.306  0.00  0.00    +0.054 C 
ATOM     13  C   UNL     1     -35.048  24.038  -1.475  0.00  0.00    +0.187 C 
ATOM     14  C   UNL     1     -35.931  26.068  -0.323  0.00  0.00    -0.002 C 
ATOM     15  C   UNL     1     -35.365  25.511  -1.407  0.00  0.00    -0.007 C 
ATOM     16  C   UNL     1     -35.056  26.326  -2.630  0.00  0.00    +0.030 C 
ENDROOT
BRANCH   9  17
ATOM     17  O   UNL     1     -37.600  26.122   3.640  0.00  0.00    -0.379 OA
ATOM     18  H   UNL     1     -37.572  26.581   2.786  0.00  0.00    +0.211 HD
ENDBRANCH   9  17
BRANCH   7  19
ATOM     19  O   UNL     1     -36.520  23.104   4.697  0.00  0.00    -0.450 OA
BRANCH  19  21
ATOM     20  O   UNL     1     -34.866  24.284   5.795  0.00  0.00    -0.250 OA
ATOM     21  C   UNL     1     -35.545  23.278   5.635  0.00  0.00    +0.318 C 
ATOM     22  C   UNL     1     -35.417  22.038   6.467  0.00  0.00    +0.121 C 
ENDBRANCH  19  21
ENDBRANCH   7  19
BRANCH  13  23
ATOM     23  O   UNL     1     -33.636  23.840  -1.527  0.00  0.00    -0.448 OA
BRANCH  23  25
ATOM     24  O   UNL     1     -33.077  23.491  -3.737  0.00  0.00    -0.250 OA
ATOM     25  C   UNL     1     -33.179  23.099  -2.582  0.00  0.00    +0.317 C 
BRANCH  25  26
ATOM     26  C   UNL     1     -32.852  21.701  -2.104  0.00  0.00    +0.110 C 
BRANCH  26  27
ATOM     27  C   UNL     1     -32.168  21.677  -0.729  0.00  0.00    +0.011 C 
ATOM     28  C   UNL     1     -30.698  21.285  -0.881  0.00  0.00    +0.001 C 
ATOM     29  C   UNL     1     -32.866  20.705   0.227  0.00  0.00    +0.001 C 
ENDBRANCH  26  27
ENDBRANCH  25  26
ENDBRANCH  23  25
ENDBRANCH  13  23
BRANCH   5  30
ATOM     30  C   UNL     1     -34.067  24.137   1.455  0.00  0.00    +0.211 C 
BRANCH  30  31
ATOM     31  O   UNL     1     -33.993  25.245   2.320  0.00  0.00    -0.448 OA
BRANCH  31  33
ATOM     32  O   UNL     1     -32.355  26.560   3.283  0.00  0.00    -0.250 OA
ATOM     33  C   UNL     1     -32.802  25.929   2.334  0.00  0.00    +0.318 C 
ATOM     34  C   UNL     1     -32.108  25.800   1.012  0.00  0.00    +0.121 C 
ENDBRANCH  31  33
ENDBRANCH  30  31
ENDBRANCH   5  30
TORSDOF 10
ENDMDL
MODEL 7
REMARK VINA RESULT:      -5.5      2.369      6.085
REMARK  Name = 5284461
REMARK  10 active torsions:
REMARK  status: ('A' for Active; 'I' for Inactive)
REMARK    1  A    between atoms: C_5  and  C_30
REMARK    2  A    between atoms: C_7  and  O_19
REMARK    3  A    between atoms: C_9  and  O_17
REMARK    4  A    between atoms: C_13  and  O_23
REMARK    5  A    between atoms: O_19  and  C_21
REMARK    6  A    between atoms: O_23  and  C_25
REMARK    7  A    between atoms: C_25  and  C_26
REMARK    8  A    between atoms: C_26  and  C_27
REMARK    9  A    between atoms: C_30  and  O_31
REMARK   10  A    between atoms: O_31  and  C_33
REMARK                            x       y       z     vdW  Elec       q    Type
REMARK                         _______ _______ _______ _____ _____    ______ ____
ROOT
ATOM      1  O   UNL     1     -39.316  26.122   0.028  0.00  0.00    -0.351 OA
ATOM      2  O   UNL     1     -37.996  26.454   3.412  0.00  0.00    -0.349 OA
ATOM      3  C   UNL     1     -37.718  24.618   1.239  0.00  0.00    +0.073 C 
ATOM      4  C   UNL     1     -38.412  25.964   1.134  0.00  0.00    +0.151 C 
ATOM      5  C   UNL     1     -36.467  24.850   2.215  0.00  0.00    +0.079 C 
ATOM      6  C   UNL     1     -39.038  26.179   2.469  0.00  0.00    +0.173 C 
ATOM      7  C   UNL     1     -38.843  23.787   1.985  0.00  0.00    +0.200 C 
ATOM      8  C   UNL     1     -38.212  27.035   0.090  0.00  0.00    +0.172 C 
ATOM      9  C   UNL     1     -39.741  24.833   2.697  0.00  0.00    +0.180 C 
ATOM     10  C   UNL     1     -36.985  25.441   3.574  0.00  0.00    +0.140 C 
ATOM     11  C   UNL     1     -37.328  24.004  -0.110  0.00  0.00    +0.006 C 
ATOM     12  C   UNL     1     -35.440  25.863   1.612  0.00  0.00    +0.054 C 
ATOM     13  C   UNL     1     -34.278  26.237   2.549  0.00  0.00    +0.187 C 
ATOM     14  C   UNL     1     -35.914  26.066   4.426  0.00  0.00    -0.002 C 
ATOM     15  C   UNL     1     -34.689  26.406   3.991  0.00  0.00    -0.007 C 
ATOM     16  C   UNL     1     -33.674  27.015   4.916  0.00  0.00    +0.030 C 
ENDROOT
BRANCH   9  17
ATOM     17  O   UNL     1     -39.922  24.551   4.071  0.00  0.00    -0.379 OA
ATOM     18  H   UNL     1     -40.399  25.284   4.491  0.00  0.00    +0.211 HD
ENDBRANCH   9  17
BRANCH   7  19
ATOM     19  O   UNL     1     -39.650  23.071   1.050  0.00  0.00    -0.450 OA
BRANCH  19  21
ATOM     20  O   UNL     1     -40.351  21.276   2.325  0.00  0.00    -0.250 OA
ATOM     21  C   UNL     1     -39.832  21.746   1.321  0.00  0.00    +0.318 C 
ATOM     22  C   UNL     1     -39.295  20.921   0.190  0.00  0.00    +0.121 C 
ENDBRANCH  19  21
ENDBRANCH   7  19
BRANCH  13  23
ATOM     23  O   UNL     1     -33.254  25.250   2.441  0.00  0.00    -0.448 OA
BRANCH  23  25
ATOM     24  O   UNL     1     -31.065  25.955   2.265  0.00  0.00    -0.250 OA
ATOM     25  C   UNL     1     -32.132  25.632   1.759  0.00  0.00    +0.317 C 
BRANCH  25  26
ATOM     26  C   UNL     1     -32.427  25.629   0.274  0.00  0.00    +0.110 C 
BRANCH  26  27
ATOM     27  C   UNL     1     -32.735  24.230  -0.279  0.00  0.00    +0.011 C 
ATOM     28  C   UNL     1     -31.474  23.619  -0.893  0.00  0.00    +0.001 C 
ATOM     29  C   UNL     1     -33.851  24.275  -1.326  0.00  0.00    +0.001 C 
ENDBRANCH  26  27
ENDBRANCH  25  26
ENDBRANCH  23  25
ENDBRANCH  13  23
BRANCH   5  30
ATOM     30  C   UNL     1     -35.731  23.509   2.479  0.00  0.00    +0.211 C 
BRANCH  30  31
ATOM     31  O   UNL     1     -36.326  22.915   3.607  0.00  0.00    -0.448 OA
BRANCH  31  33
ATOM     32  O   UNL     1     -35.245  20.893   3.897  0.00  0.00    -0.250 OA
ATOM     33  C   UNL     1     -35.557  22.008   4.295  0.00  0.00    +0.318 C 
ATOM     34  C   UNL     1     -35.143  22.572   5.621  0.00  0.00    +0.121 C 
ENDBRANCH  31  33
ENDBRANCH  30  31
ENDBRANCH   5  30
TORSDOF 10
ENDMDL
MODEL 8
REMARK VINA RESULT:      -5.5      2.344      4.339
REMARK  Name = 5284461
REMARK  10 active torsions:
REMARK  status: ('A' for Active; 'I' for Inactive)
REMARK    1  A    between atoms: C_5  and  C_30
REMARK    2  A    between atoms: C_7  and  O_19
REMARK    3  A    between atoms: C_9  and  O_17
REMARK    4  A    between atoms: C_13  and  O_23
REMARK    5  A    between atoms: O_19  and  C_21
REMARK    6  A    between atoms: O_23  and  C_25
REMARK    7  A    between atoms: C_25  and  C_26
REMARK    8  A    between atoms: C_26  and  C_27
REMARK    9  A    between atoms: C_30  and  O_31
REMARK   10  A    between atoms: O_31  and  C_33
REMARK                            x       y       z     vdW  Elec       q    Type
REMARK                         _______ _______ _______ _____ _____    ______ ____
ROOT
ATOM      1  O   UNL     1     -35.514  24.940   5.665  0.00  0.00    -0.351 OA
ATOM      2  O   UNL     1     -37.921  23.775   3.184  0.00  0.00    -0.349 OA
ATOM      3  C   UNL     1     -35.252  24.800   3.177  0.00  0.00    +0.073 C 
ATOM      4  C   UNL     1     -36.006  24.394   4.430  0.00  0.00    +0.151 C 
ATOM      5  C   UNL     1     -35.670  23.733   2.055  0.00  0.00    +0.079 C 
ATOM      6  C   UNL     1     -37.432  24.719   4.144  0.00  0.00    +0.173 C 
ATOM      7  C   UNL     1     -35.942  26.196   2.883  0.00  0.00    +0.200 C 
ATOM      8  C   UNL     1     -35.529  23.510   5.557  0.00  0.00    +0.172 C 
ATOM      9  C   UNL     1     -37.316  26.151   3.603  0.00  0.00    +0.180 C 
ATOM     10  C   UNL     1     -37.234  23.724   1.920  0.00  0.00    +0.140 C 
ATOM     11  C   UNL     1     -33.736  24.919   3.365  0.00  0.00    +0.006 C 
ATOM     12  C   UNL     1     -35.212  22.286   2.431  0.00  0.00    +0.054 C 
ATOM     13  C   UNL     1     -35.693  21.188   1.466  0.00  0.00    +0.187 C 
ATOM     14  C   UNL     1     -37.786  22.521   1.203  0.00  0.00    -0.002 C 
ATOM     15  C   UNL     1     -37.103  21.387   0.970  0.00  0.00    -0.007 C 
ATOM     16  C   UNL     1     -37.730  20.237   0.234  0.00  0.00    +0.030 C 
ENDROOT
BRANCH   9  17
ATOM     17  O   UNL     1     -38.391  26.487   2.748  0.00  0.00    -0.379 OA
ATOM     18  H   UNL     1     -39.085  25.814   2.822  0.00  0.00    +0.211 HD
ENDBRANCH   9  17
BRANCH   7  19
ATOM     19  O   UNL     1     -35.182  27.267   3.444  0.00  0.00    -0.450 OA
BRANCH  19  21
ATOM     20  O   UNL     1     -34.926  29.534   3.078  0.00  0.00    -0.250 OA
ATOM     21  C   UNL     1     -35.087  28.390   2.673  0.00  0.00    +0.318 C 
ATOM     22  C   UNL     1     -35.207  28.021   1.226  0.00  0.00    +0.121 C 
ENDBRANCH  19  21
ENDBRANCH   7  19
BRANCH  13  23
ATOM     23  O   UNL     1     -34.790  21.107   0.364  0.00  0.00    -0.448 OA
BRANCH  23  25
ATOM     24  O   UNL     1     -32.497  20.932   0.200  0.00  0.00    -0.250 OA
ATOM     25  C   UNL     1     -33.573  20.544   0.634  0.00  0.00    +0.317 C 
BRANCH  25  26
ATOM     26  C   UNL     1     -33.769  19.338   1.527  0.00  0.00    +0.110 C 
BRANCH  26  27
ATOM     27  C   UNL     1     -33.257  18.033   0.900  0.00  0.00    +0.011 C 
ATOM     28  C   UNL     1     -31.740  17.927   1.073  0.00  0.00    +0.001 C 
ATOM     29  C   UNL     1     -33.615  17.946  -0.586  0.00  0.00    +0.001 C 
ENDBRANCH  26  27
ENDBRANCH  25  26
ENDBRANCH  23  25
ENDBRANCH  13  23
BRANCH   5  30
ATOM     30  C   UNL     1     -35.032  24.107   0.690  0.00  0.00    +0.211 C 
BRANCH  30  31
ATOM     31  O   UNL     1     -36.009  24.786  -0.062  0.00  0.00    -0.448 OA
BRANCH  31  33
ATOM     32  O   UNL     1     -35.503  25.796  -2.078  0.00  0.00    -0.250 OA
ATOM     33  C   UNL     1     -35.823  24.813  -1.422  0.00  0.00    +0.318 C 
ATOM     34  C   UNL     1     -36.065  23.455  -2.011  0.00  0.00    +0.121 C 
ENDBRANCH  31  33
ENDBRANCH  30  31
ENDBRANCH   5  30
TORSDOF 10
ENDMDL
MODEL 9
REMARK VINA RESULT:      -5.4      2.159      4.123
REMARK  Name = 5284461
REMARK  10 active torsions:
REMARK  status: ('A' for Active; 'I' for Inactive)
REMARK    1  A    between atoms: C_5  and  C_30
REMARK    2  A    between atoms: C_7  and  O_19
REMARK    3  A    between atoms: C_9  and  O_17
REMARK    4  A    between atoms: C_13  and  O_23
REMARK    5  A    between atoms: O_19  and  C_21
REMARK    6  A    between atoms: O_23  and  C_25
REMARK    7  A    between atoms: C_25  and  C_26
REMARK    8  A    between atoms: C_26  and  C_27
REMARK    9  A    between atoms: C_30  and  O_31
REMARK   10  A    between atoms: O_31  and  C_33
REMARK                            x       y       z     vdW  Elec       q    Type
REMARK                         _______ _______ _______ _____ _____    ______ ____
ROOT
ATOM      1  O   UNL     1     -34.641  23.498   5.187  0.00  0.00    -0.351 OA
ATOM      2  O   UNL     1     -37.296  25.869   4.395  0.00  0.00    -0.349 OA
ATOM      3  C   UNL     1     -35.534  24.154   2.939  0.00  0.00    +0.073 C 
ATOM      4  C   UNL     1     -35.705  24.119   4.447  0.00  0.00    +0.151 C 
ATOM      5  C   UNL     1     -36.994  24.441   2.344  0.00  0.00    +0.079 C 
ATOM      6  C   UNL     1     -35.977  25.531   4.837  0.00  0.00    +0.173 C 
ATOM      7  C   UNL     1     -34.625  25.446   2.798  0.00  0.00    +0.200 C 
ATOM      8  C   UNL     1     -35.943  22.917   5.328  0.00  0.00    +0.172 C 
ATOM      9  C   UNL     1     -34.862  26.274   4.088  0.00  0.00    +0.180 C 
ATOM     10  C   UNL     1     -37.554  25.761   2.983  0.00  0.00    +0.140 C 
ATOM     11  C   UNL     1     -34.874  22.902   2.351  0.00  0.00    +0.006 C 
ATOM     12  C   UNL     1     -37.994  23.285   2.676  0.00  0.00    +0.054 C 
ATOM     13  C   UNL     1     -39.449  23.551   2.250  0.00  0.00    +0.187 C 
ATOM     14  C   UNL     1     -39.039  25.945   2.823  0.00  0.00    -0.002 C 
ATOM     15  C   UNL     1     -39.898  24.973   2.473  0.00  0.00    -0.007 C 
ATOM     16  C   UNL     1     -41.367  25.249   2.323  0.00  0.00    +0.030 C 
ENDROOT
BRANCH   9  17
ATOM     17  O   UNL     1     -35.206  27.620   3.817  0.00  0.00    -0.379 OA
ATOM     18  H   UNL     1     -35.879  27.647   3.120  0.00  0.00    +0.211 HD
ENDBRANCH   9  17
BRANCH   7  19
ATOM     19  O   UNL     1     -33.243  25.092   2.744  0.00  0.00    -0.450 OA
BRANCH  19  21
ATOM     20  O   UNL     1     -31.352  26.416   2.637  0.00  0.00    -0.250 OA
ATOM     21  C   UNL     1     -32.418  26.021   2.181  0.00  0.00    +0.318 C 
ATOM     22  C   UNL     1     -33.008  26.505   0.891  0.00  0.00    +0.121 C 
ENDBRANCH  19  21
ENDBRANCH   7  19
BRANCH  13  23
ATOM     23  O   UNL     1     -39.607  23.193   0.879  0.00  0.00    -0.448 OA
BRANCH  23  25
ATOM     24  O   UNL     1     -40.459  21.083   1.253  0.00  0.00    -0.250 OA
ATOM     25  C   UNL     1     -39.746  21.855   0.627  0.00  0.00    +0.317 C 
BRANCH  25  26
ATOM     26  C   UNL     1     -38.847  21.471  -0.529  0.00  0.00    +0.110 C 
BRANCH  26  27
ATOM     27  C   UNL     1     -37.485  20.924  -0.078  0.00  0.00    +0.011 C 
ATOM     28  C   UNL     1     -36.374  21.488  -0.966  0.00  0.00    +0.001 C 
ATOM     29  C   UNL     1     -37.453  19.394  -0.119  0.00  0.00    +0.001 C 
ENDBRANCH  26  27
ENDBRANCH  25  26
ENDBRANCH  23  25
ENDBRANCH  13  23
BRANCH   5  30
ATOM     30  C   UNL     1     -36.927  24.599   0.800  0.00  0.00    +0.211 C 
BRANCH  30  31
ATOM     31  O   UNL     1     -36.907  25.977   0.517  0.00  0.00    -0.448 OA
BRANCH  31  33
ATOM     32  O   UNL     1     -38.027  27.537  -0.768  0.00  0.00    -0.250 OA
ATOM     33  C   UNL     1     -37.656  26.390  -0.558  0.00  0.00    +0.318 C 
ATOM     34  C   UNL     1     -37.967  25.230  -1.456  0.00  0.00    +0.121 C 
ENDBRANCH  31  33
ENDBRANCH  30  31
ENDBRANCH   5  30
TORSDOF 10
ENDMDL
