MODEL 1
REMARK VINA RESULT:      -6.8      0.000      0.000
REMARK  Name = 5495926
REMARK  10 active torsions:
REMARK  status: ('A' for Active; 'I' for Inactive)
REMARK    1  A    between atoms: C_3  and  C_24
REMARK    2  A    between atoms: C_6  and  O_16
REMARK    3  A    between atoms: C_10  and  O_18
REMARK    4  A    between atoms: C_12  and  O_20
REMARK    5  A    between atoms: C_13  and  C_31
REMARK    6  A    between atoms: C_15  and  O_22
REMARK    7  A    between atoms: C_24  and  C_25
REMARK    8  A    between atoms: C_25  and  C_26
REMARK    9  A    between atoms: C_26  and  O_29
REMARK   10  A    between atoms: C_31  and  C_32
REMARK                            x       y       z     vdW  Elec       q    Type
REMARK                         _______ _______ _______ _____ _____    ______ ____
ROOT
ATOM      1  O   UNL     1     -33.671  25.357   6.193  0.00  0.00    -0.453 OA
ATOM      2  O   UNL     1     -33.872  26.587   2.296  0.00  0.00    -0.286 OA
ATOM      3  C   UNL     1     -32.687  28.324   4.205  0.00  0.00    +0.021 C 
ATOM      4  C   UNL     1     -33.211  27.065   4.510  0.00  0.00    +0.073 A 
ATOM      5  C   UNL     1     -33.177  26.581   5.817  0.00  0.00    +0.151 A 
ATOM      6  C   UNL     1     -32.125  29.099   5.219  0.00  0.00    +0.168 C 
ATOM      7  C   UNL     1     -33.811  26.226   3.461  0.00  0.00    +0.204 A 
ATOM      8  C   UNL     1     -34.335  24.918   3.884  0.00  0.00    +0.107 A 
ATOM      9  C   UNL     1     -34.234  24.558   5.228  0.00  0.00    +0.154 A 
ATOM     10  C   UNL     1     -32.087  28.620   6.528  0.00  0.00    +0.171 C 
ATOM     11  C   UNL     1     -32.612  27.361   6.828  0.00  0.00    +0.077 C 
ATOM     12  C   UNL     1     -34.922  24.050   2.959  0.00  0.00    +0.139 C 
ATOM     13  C   UNL     1     -35.411  22.816   3.388  0.00  0.00    +0.050 C 
ATOM     14  C   UNL     1     -34.725  23.321   5.651  0.00  0.00    +0.074 C 
ATOM     15  C   UNL     1     -35.312  22.452   4.731  0.00  0.00    +0.136 C 
ENDROOT
BRANCH   6  16
ATOM     16  O   UNL     1     -31.606  30.330   4.941  0.00  0.00    -0.469 OA
ATOM     17  C   UNL     1     -30.198  30.407   4.739  0.00  0.00    +0.253 C 
ENDBRANCH   6  16
BRANCH  10  18
ATOM     18  O   UNL     1     -31.538  29.368   7.526  0.00  0.00    -0.503 OA
ATOM     19  H   UNL     1     -31.573  29.063   8.412  0.00  0.00    +0.292 HD
ENDBRANCH  10  18
BRANCH  12  20
ATOM     20  O   UNL     1     -35.035  24.369   1.638  0.00  0.00    -0.506 OA
ATOM     21  H   UNL     1     -34.319  24.212   1.055  0.00  0.00    +0.292 HD
ENDBRANCH  12  20
BRANCH  15  22
ATOM     22  O   UNL     1     -35.786  21.249   5.165  0.00  0.00    -0.506 OA
ATOM     23  H   UNL     1     -35.328  20.780   5.834  0.00  0.00    +0.292 HD
ENDBRANCH  15  22
BRANCH   3  24
ATOM     24  C   UNL     1     -32.694  28.898   2.822  0.00  0.00    +0.032 C 
BRANCH  24  25
ATOM     25  C   UNL     1     -33.553  30.172   2.734  0.00  0.00    +0.032 C 
BRANCH  25  26
ATOM     26  C   UNL     1     -34.984  29.952   2.203  0.00  0.00    +0.089 C 
ATOM     27  C   UNL     1     -35.782  31.255   2.325  0.00  0.00    +0.029 C 
ATOM     28  C   UNL     1     -35.001  29.464   0.753  0.00  0.00    +0.029 C 
BRANCH  26  29
ATOM     29  O   UNL     1     -35.622  28.968   3.020  0.00  0.00    -0.387 OA
ATOM     30  H   UNL     1     -34.954  28.360   3.373  0.00  0.00    +0.210 HD
ENDBRANCH  26  29
ENDBRANCH  25  26
ENDBRANCH  24  25
ENDBRANCH   3  24
BRANCH  13  31
ATOM     31  C   UNL     1     -36.043  21.877   2.410  0.00  0.00    +0.058 C 
BRANCH  31  32
ATOM     32  C   UNL     1     -35.286  20.581   2.271  0.00  0.00    -0.030 C 
ATOM     33  C   UNL     1     -34.296  20.286   1.407  0.00  0.00    -0.048 C 
ATOM     34  C   UNL     1     -33.581  18.967   1.322  0.00  0.00    +0.026 C 
ATOM     35  C   UNL     1     -33.825  21.313   0.411  0.00  0.00    +0.026 C 
ENDBRANCH  31  32
ENDBRANCH  13  31
TORSDOF 10
ENDMDL
MODEL 2
REMARK VINA RESULT:      -6.6      5.149      8.333
REMARK  Name = 5495926
REMARK  10 active torsions:
REMARK  status: ('A' for Active; 'I' for Inactive)
REMARK    1  A    between atoms: C_3  and  C_24
REMARK    2  A    between atoms: C_6  and  O_16
REMARK    3  A    between atoms: C_10  and  O_18
REMARK    4  A    between atoms: C_12  and  O_20
REMARK    5  A    between atoms: C_13  and  C_31
REMARK    6  A    between atoms: C_15  and  O_22
REMARK    7  A    between atoms: C_24  and  C_25
REMARK    8  A    between atoms: C_25  and  C_26
REMARK    9  A    between atoms: C_26  and  O_29
REMARK   10  A    between atoms: C_31  and  C_32
REMARK                            x       y       z     vdW  Elec       q    Type
REMARK                         _______ _______ _______ _____ _____    ______ ____
ROOT
ATOM      1  O   UNL     1     -39.373  22.444   1.175  0.00  0.00    -0.453 OA
ATOM      2  O   UNL     1     -38.340  25.238   3.980  0.00  0.00    -0.286 OA
ATOM      3  C   UNL     1     -36.671  22.964   3.656  0.00  0.00    +0.021 C 
ATOM      4  C   UNL     1     -37.832  23.195   2.915  0.00  0.00    +0.073 A 
ATOM      5  C   UNL     1     -38.245  22.285   1.942  0.00  0.00    +0.151 A 
ATOM      6  C   UNL     1     -35.920  21.812   3.417  0.00  0.00    +0.168 C 
ATOM      7  C   UNL     1     -38.644  24.400   3.145  0.00  0.00    +0.204 A 
ATOM      8  C   UNL     1     -39.848  24.552   2.314  0.00  0.00    +0.107 A 
ATOM      9  C   UNL     1     -40.143  23.563   1.374  0.00  0.00    +0.154 A 
ATOM     10  C   UNL     1     -36.328  20.900   2.445  0.00  0.00    +0.171 C 
ATOM     11  C   UNL     1     -37.489  21.135   1.707  0.00  0.00    +0.077 C 
ATOM     12  C   UNL     1     -40.682  25.664   2.459  0.00  0.00    +0.139 C 
ATOM     13  C   UNL     1     -41.817  25.782   1.657  0.00  0.00    +0.050 C 
ATOM     14  C   UNL     1     -41.281  23.687   0.575  0.00  0.00    +0.074 C 
ATOM     15  C   UNL     1     -42.116  24.796   0.718  0.00  0.00    +0.136 C 
ENDROOT
BRANCH   6  16
ATOM     16  O   UNL     1     -34.782  21.569   4.130  0.00  0.00    -0.469 OA
ATOM     17  C   UNL     1     -34.941  21.196   5.495  0.00  0.00    +0.253 C 
ENDBRANCH   6  16
BRANCH  10  18
ATOM     18  O   UNL     1     -35.601  19.773   2.202  0.00  0.00    -0.503 OA
ATOM     19  H   UNL     1     -34.712  19.843   1.913  0.00  0.00    +0.292 HD
ENDBRANCH  10  18
BRANCH  12  20
ATOM     20  O   UNL     1     -40.423  26.649   3.366  0.00  0.00    -0.506 OA
ATOM     21  H   UNL     1     -40.496  27.548   3.114  0.00  0.00    +0.292 HD
ENDBRANCH  12  20
BRANCH  15  22
ATOM     22  O   UNL     1     -43.223  24.898  -0.073  0.00  0.00    -0.506 OA
ATOM     23  H   UNL     1     -43.842  25.585   0.075  0.00  0.00    +0.292 HD
ENDBRANCH  15  22
BRANCH   3  24
ATOM     24  C   UNL     1     -36.177  23.902   4.713  0.00  0.00    +0.032 C 
BRANCH  24  25
ATOM     25  C   UNL     1     -35.025  24.786   4.203  0.00  0.00    +0.032 C 
BRANCH  25  26
ATOM     26  C   UNL     1     -34.983  26.206   4.803  0.00  0.00    +0.089 C 
ATOM     27  C   UNL     1     -33.997  26.239   5.976  0.00  0.00    +0.029 C 
ATOM     28  C   UNL     1     -34.599  27.266   3.768  0.00  0.00    +0.029 C 
BRANCH  26  29
ATOM     29  O   UNL     1     -36.282  26.518   5.311  0.00  0.00    -0.387 OA
ATOM     30  H   UNL     1     -36.955  26.083   4.766  0.00  0.00    +0.210 HD
ENDBRANCH  26  29
ENDBRANCH  25  26
ENDBRANCH  24  25
ENDBRANCH   3  24
BRANCH  13  31
ATOM     31  C   UNL     1     -42.720  26.966   1.803  0.00  0.00    +0.058 C 
BRANCH  31  32
ATOM     32  C   UNL     1     -43.792  26.759   2.842  0.00  0.00    -0.030 C 
ATOM     33  C   UNL     1     -43.991  27.453   3.978  0.00  0.00    -0.048 C 
ATOM     34  C   UNL     1     -45.085  27.192   4.975  0.00  0.00    +0.026 C 
ATOM     35  C   UNL     1     -43.074  28.589   4.347  0.00  0.00    +0.026 C 
ENDBRANCH  31  32
ENDBRANCH  13  31
TORSDOF 10
ENDMDL
MODEL 3
REMARK VINA RESULT:      -6.5      1.724      2.630
REMARK  Name = 5495926
REMARK  10 active torsions:
REMARK  status: ('A' for Active; 'I' for Inactive)
REMARK    1  A    between atoms: C_3  and  C_24
REMARK    2  A    between atoms: C_6  and  O_16
REMARK    3  A    between atoms: C_10  and  O_18
REMARK    4  A    between atoms: C_12  and  O_20
REMARK    5  A    between atoms: C_13  and  C_31
REMARK    6  A    between atoms: C_15  and  O_22
REMARK    7  A    between atoms: C_24  and  C_25
REMARK    8  A    between atoms: C_25  and  C_26
REMARK    9  A    between atoms: C_26  and  O_29
REMARK   10  A    between atoms: C_31  and  C_32
REMARK                            x       y       z     vdW  Elec       q    Type
REMARK                         _______ _______ _______ _____ _____    ______ ____
ROOT
ATOM      1  O   UNL     1     -33.770  25.841   6.109  0.00  0.00    -0.453 OA
ATOM      2  O   UNL     1     -32.864  26.563   2.185  0.00  0.00    -0.286 OA
ATOM      3  C   UNL     1     -31.822  28.317   4.160  0.00  0.00    +0.021 C 
ATOM      4  C   UNL     1     -32.631  27.213   4.441  0.00  0.00    +0.073 A 
ATOM      5  C   UNL     1     -32.980  26.907   5.756  0.00  0.00    +0.151 A 
ATOM      6  C   UNL     1     -31.361  29.116   5.207  0.00  0.00    +0.168 C 
ATOM      7  C   UNL     1     -33.132  26.353   3.358  0.00  0.00    +0.204 A 
ATOM      8  C   UNL     1     -33.977  25.217   3.757  0.00  0.00    +0.107 A 
ATOM      9  C   UNL     1     -34.248  25.025   5.112  0.00  0.00    +0.154 A 
ATOM     10  C   UNL     1     -31.706  28.813   6.524  0.00  0.00    +0.171 C 
ATOM     11  C   UNL     1     -32.515  27.709   6.799  0.00  0.00    +0.077 C 
ATOM     12  C   UNL     1     -34.500  24.343   2.799  0.00  0.00    +0.139 C 
ATOM     13  C   UNL     1     -35.298  23.274   3.207  0.00  0.00    +0.050 C 
ATOM     14  C   UNL     1     -35.047  23.953   5.513  0.00  0.00    +0.074 C 
ATOM     15  C   UNL     1     -35.571  23.079   4.560  0.00  0.00    +0.136 C 
ENDROOT
BRANCH   6  16
ATOM     16  O   UNL     1     -30.567  30.197   4.954  0.00  0.00    -0.469 OA
ATOM     17  C   UNL     1     -31.212  31.464   4.863  0.00  0.00    +0.253 C 
ENDBRANCH   6  16
BRANCH  10  18
ATOM     18  O   UNL     1     -31.259  29.586   7.553  0.00  0.00    -0.503 OA
ATOM     19  H   UNL     1     -31.488  30.495   7.589  0.00  0.00    +0.292 HD
ENDBRANCH  10  18
BRANCH  12  20
ATOM     20  O   UNL     1     -34.254  24.500   1.467  0.00  0.00    -0.506 OA
ATOM     21  H   UNL     1     -34.878  24.197   0.837  0.00  0.00    +0.292 HD
ENDBRANCH  12  20
BRANCH  15  22
ATOM     22  O   UNL     1     -36.349  22.039   4.972  0.00  0.00    -0.506 OA
ATOM     23  H   UNL     1     -36.311  21.750   5.863  0.00  0.00    +0.292 HD
ENDBRANCH  15  22
BRANCH   3  24
ATOM     24  C   UNL     1     -31.413  28.697   2.771  0.00  0.00    +0.032 C 
BRANCH  24  25
ATOM     25  C   UNL     1     -29.894  28.562   2.563  0.00  0.00    +0.032 C 
BRANCH  25  26
ATOM     26  C   UNL     1     -29.458  27.319   1.762  0.00  0.00    +0.089 C 
ATOM     27  C   UNL     1     -30.150  27.320   0.395  0.00  0.00    +0.029 C 
ATOM     28  C   UNL     1     -27.940  27.245   1.577  0.00  0.00    +0.029 C 
BRANCH  26  29
ATOM     29  O   UNL     1     -29.885  26.153   2.471  0.00  0.00    -0.387 OA
ATOM     30  H   UNL     1     -29.397  25.382   2.147  0.00  0.00    +0.210 HD
ENDBRANCH  26  29
ENDBRANCH  25  26
ENDBRANCH  24  25
ENDBRANCH   3  24
BRANCH  13  31
ATOM     31  C   UNL     1     -35.865  22.332   2.192  0.00  0.00    +0.058 C 
BRANCH  31  32
ATOM     32  C   UNL     1     -35.197  20.980   2.213  0.00  0.00    -0.030 C 
ATOM     33  C   UNL     1     -34.263  20.503   1.369  0.00  0.00    -0.048 C 
ATOM     34  C   UNL     1     -33.636  19.140   1.448  0.00  0.00    +0.026 C 
ATOM     35  C   UNL     1     -33.768  21.349   0.225  0.00  0.00    +0.026 C 
ENDBRANCH  31  32
ENDBRANCH  13  31
TORSDOF 10
ENDMDL
MODEL 4
REMARK VINA RESULT:      -6.4      1.920      2.660
REMARK  Name = 5495926
REMARK  10 active torsions:
REMARK  status: ('A' for Active; 'I' for Inactive)
REMARK    1  A    between atoms: C_3  and  C_24
REMARK    2  A    between atoms: C_6  and  O_16
REMARK    3  A    between atoms: C_10  and  O_18
REMARK    4  A    between atoms: C_12  and  O_20
REMARK    5  A    between atoms: C_13  and  C_31
REMARK    6  A    between atoms: C_15  and  O_22
REMARK    7  A    between atoms: C_24  and  C_25
REMARK    8  A    between atoms: C_25  and  C_26
REMARK    9  A    between atoms: C_26  and  O_29
REMARK   10  A    between atoms: C_31  and  C_32
REMARK                            x       y       z     vdW  Elec       q    Type
REMARK                         _______ _______ _______ _____ _____    ______ ____
ROOT
ATOM      1  O   UNL     1     -33.667  26.029   5.958  0.00  0.00    -0.453 OA
ATOM      2  O   UNL     1     -33.803  27.814   2.280  0.00  0.00    -0.286 OA
ATOM      3  C   UNL     1     -32.279  29.053   4.331  0.00  0.00    +0.021 C 
ATOM      4  C   UNL     1     -32.992  27.863   4.495  0.00  0.00    +0.073 A 
ATOM      5  C   UNL     1     -32.991  27.200   5.722  0.00  0.00    +0.151 A 
ATOM      6  C   UNL     1     -31.560  29.578   5.405  0.00  0.00    +0.168 C 
ATOM      7  C   UNL     1     -33.760  27.286   3.381  0.00  0.00    +0.204 A 
ATOM      8  C   UNL     1     -34.477  26.032   3.654  0.00  0.00    +0.107 A 
ATOM      9  C   UNL     1     -34.389  25.474   4.930  0.00  0.00    +0.154 A 
ATOM     10  C   UNL     1     -31.555  28.918   6.633  0.00  0.00    +0.171 C 
ATOM     11  C   UNL     1     -32.269  27.729   6.793  0.00  0.00    +0.077 C 
ATOM     12  C   UNL     1     -35.233  25.408   2.658  0.00  0.00    +0.139 C 
ATOM     13  C   UNL     1     -35.902  24.218   2.946  0.00  0.00    +0.050 C 
ATOM     14  C   UNL     1     -35.061  24.283   5.212  0.00  0.00    +0.074 C 
ATOM     15  C   UNL     1     -35.817  23.657   4.220  0.00  0.00    +0.136 C 
ENDROOT
BRANCH   6  16
ATOM     16  O   UNL     1     -30.855  30.738   5.264  0.00  0.00    -0.469 OA
ATOM     17  C   UNL     1     -29.463  30.619   4.987  0.00  0.00    +0.253 C 
ENDBRANCH   6  16
BRANCH  10  18
ATOM     18  O   UNL     1     -30.854  29.421   7.688  0.00  0.00    -0.503 OA
ATOM     19  H   UNL     1     -31.128  29.231   8.565  0.00  0.00    +0.292 HD
ENDBRANCH  10  18
BRANCH  12  20
ATOM     20  O   UNL     1     -35.339  25.924   1.400  0.00  0.00    -0.506 OA
ATOM     21  H   UNL     1     -35.711  25.409   0.713  0.00  0.00    +0.292 HD
ENDBRANCH  12  20
BRANCH  15  22
ATOM     22  O   UNL     1     -36.467  22.496   4.516  0.00  0.00    -0.506 OA
ATOM     23  H   UNL     1     -37.119  22.162   3.932  0.00  0.00    +0.292 HD
ENDBRANCH  15  22
BRANCH   3  24
ATOM     24  C   UNL     1     -32.241  29.811   3.040  0.00  0.00    +0.032 C 
BRANCH  24  25
ATOM     25  C   UNL     1     -32.957  31.169   3.151  0.00  0.00    +0.032 C 
BRANCH  25  26
ATOM     26  C   UNL     1     -34.189  31.327   2.236  0.00  0.00    +0.089 C 
ATOM     27  C   UNL     1     -35.451  30.907   2.997  0.00  0.00    +0.029 C 
ATOM     28  C   UNL     1     -34.347  32.757   1.713  0.00  0.00    +0.029 C 
BRANCH  26  29
ATOM     29  O   UNL     1     -34.036  30.450   1.118  0.00  0.00    -0.387 OA
ATOM     30  H   UNL     1     -33.505  29.683   1.381  0.00  0.00    +0.210 HD
ENDBRANCH  26  29
ENDBRANCH  25  26
ENDBRANCH  24  25
ENDBRANCH   3  24
BRANCH  13  31
ATOM     31  C   UNL     1     -36.716  23.540   1.890  0.00  0.00    +0.058 C 
BRANCH  31  32
ATOM     32  C   UNL     1     -38.091  24.138   1.738  0.00  0.00    -0.030 C 
ATOM     33  C   UNL     1     -39.280  23.509   1.795  0.00  0.00    -0.048 C 
ATOM     34  C   UNL     1     -40.620  24.170   1.634  0.00  0.00    +0.026 C 
ATOM     35  C   UNL     1     -39.346  22.023   2.026  0.00  0.00    +0.026 C 
ENDBRANCH  31  32
ENDBRANCH  13  31
TORSDOF 10
ENDMDL
MODEL 5
REMARK VINA RESULT:      -6.4      2.301      7.834
REMARK  Name = 5495926
REMARK  10 active torsions:
REMARK  status: ('A' for Active; 'I' for Inactive)
REMARK    1  A    between atoms: C_3  and  C_24
REMARK    2  A    between atoms: C_6  and  O_16
REMARK    3  A    between atoms: C_10  and  O_18
REMARK    4  A    between atoms: C_12  and  O_20
REMARK    5  A    between atoms: C_13  and  C_31
REMARK    6  A    between atoms: C_15  and  O_22
REMARK    7  A    between atoms: C_24  and  C_25
REMARK    8  A    between atoms: C_25  and  C_26
REMARK    9  A    between atoms: C_26  and  O_29
REMARK   10  A    between atoms: C_31  and  C_32
REMARK                            x       y       z     vdW  Elec       q    Type
REMARK                         _______ _______ _______ _____ _____    ______ ____
ROOT
ATOM      1  O   UNL     1     -33.926  29.092   2.878  0.00  0.00    -0.453 OA
ATOM      2  O   UNL     1     -33.639  26.153   5.708  0.00  0.00    -0.286 OA
ATOM      3  C   UNL     1     -35.696  25.960   3.760  0.00  0.00    +0.021 C 
ATOM      4  C   UNL     1     -34.766  27.001   3.817  0.00  0.00    +0.073 A 
ATOM      5  C   UNL     1     -34.804  28.037   2.884  0.00  0.00    +0.151 A 
ATOM      6  C   UNL     1     -36.668  25.960   2.759  0.00  0.00    +0.168 C 
ATOM      7  C   UNL     1     -33.730  27.028   4.861  0.00  0.00    +0.204 A 
ATOM      8  C   UNL     1     -32.799  28.166   4.837  0.00  0.00    +0.107 A 
ATOM      9  C   UNL     1     -32.950  29.135   3.844  0.00  0.00    +0.154 A 
ATOM     10  C   UNL     1     -36.710  26.993   1.824  0.00  0.00    +0.171 C 
ATOM     11  C   UNL     1     -35.778  28.031   1.885  0.00  0.00    +0.077 C 
ATOM     12  C   UNL     1     -31.781  28.279   5.788  0.00  0.00    +0.139 C 
ATOM     13  C   UNL     1     -30.912  29.369   5.740  0.00  0.00    +0.050 C 
ATOM     14  C   UNL     1     -32.078  30.223   3.801  0.00  0.00    +0.074 C 
ATOM     15  C   UNL     1     -31.061  30.339   4.749  0.00  0.00    +0.136 C 
ENDROOT
BRANCH   6  16
ATOM     16  O   UNL     1     -37.584  24.951   2.685  0.00  0.00    -0.469 OA
ATOM     17  C   UNL     1     -38.898  25.236   3.154  0.00  0.00    +0.253 C 
ENDBRANCH   6  16
BRANCH  10  18
ATOM     18  O   UNL     1     -37.654  27.002   0.841  0.00  0.00    -0.503 OA
ATOM     19  H   UNL     1     -38.156  27.778   0.682  0.00  0.00    +0.292 HD
ENDBRANCH  10  18
BRANCH  12  20
ATOM     20  O   UNL     1     -31.604  27.350   6.770  0.00  0.00    -0.506 OA
ATOM     21  H   UNL     1     -31.908  27.524   7.639  0.00  0.00    +0.292 HD
ENDBRANCH  12  20
BRANCH  15  22
ATOM     22  O   UNL     1     -30.219  31.411   4.691  0.00  0.00    -0.506 OA
ATOM     23  H   UNL     1     -29.538  31.507   5.327  0.00  0.00    +0.292 HD
ENDBRANCH  15  22
BRANCH   3  24
ATOM     24  C   UNL     1     -35.706  24.821   4.731  0.00  0.00    +0.032 C 
BRANCH  24  25
ATOM     25  C   UNL     1     -34.898  23.617   4.214  0.00  0.00    +0.032 C 
BRANCH  25  26
ATOM     26  C   UNL     1     -35.646  22.269   4.257  0.00  0.00    +0.089 C 
ATOM     27  C   UNL     1     -35.189  21.392   3.085  0.00  0.00    +0.029 C 
ATOM     28  C   UNL     1     -35.435  21.526   5.578  0.00  0.00    +0.029 C 
BRANCH  26  29
ATOM     29  O   UNL     1     -37.043  22.524   4.097  0.00  0.00    -0.387 OA
ATOM     30  H   UNL     1     -37.200  23.480   4.109  0.00  0.00    +0.210 HD
ENDBRANCH  26  29
ENDBRANCH  25  26
ENDBRANCH  24  25
ENDBRANCH   3  24
BRANCH  13  31
ATOM     31  C   UNL     1     -29.819  29.503   6.752  0.00  0.00    +0.058 C 
BRANCH  31  32
ATOM     32  C   UNL     1     -28.933  28.285   6.818  0.00  0.00    -0.030 C 
ATOM     33  C   UNL     1     -27.775  28.066   6.166  0.00  0.00    -0.048 C 
ATOM     34  C   UNL     1     -26.938  26.823   6.279  0.00  0.00    +0.026 C 
ATOM     35  C   UNL     1     -27.222  29.103   5.225  0.00  0.00    +0.026 C 
ENDBRANCH  31  32
ENDBRANCH  13  31
TORSDOF 10
ENDMDL
MODEL 6
REMARK VINA RESULT:      -6.4      6.980      9.393
REMARK  Name = 5495926
REMARK  10 active torsions:
REMARK  status: ('A' for Active; 'I' for Inactive)
REMARK    1  A    between atoms: C_3  and  C_24
REMARK    2  A    between atoms: C_6  and  O_16
REMARK    3  A    between atoms: C_10  and  O_18
REMARK    4  A    between atoms: C_12  and  O_20
REMARK    5  A    between atoms: C_13  and  C_31
REMARK    6  A    between atoms: C_15  and  O_22
REMARK    7  A    between atoms: C_24  and  C_25
REMARK    8  A    between atoms: C_25  and  C_26
REMARK    9  A    between atoms: C_26  and  O_29
REMARK   10  A    between atoms: C_31  and  C_32
REMARK                            x       y       z     vdW  Elec       q    Type
REMARK                         _______ _______ _______ _____ _____    ______ ____
ROOT
ATOM      1  O   UNL     1     -41.737  23.932   0.907  0.00  0.00    -0.453 OA
ATOM      2  O   UNL     1     -40.720  27.062   3.336  0.00  0.00    -0.286 OA
ATOM      3  C   UNL     1     -43.344  26.986   2.253  0.00  0.00    +0.021 C 
ATOM      4  C   UNL     1     -42.367  26.017   2.010  0.00  0.00    +0.073 A 
ATOM      5  C   UNL     1     -42.644  24.922   1.191  0.00  0.00    +0.151 A 
ATOM      6  C   UNL     1     -44.605  26.853   1.671  0.00  0.00    +0.168 C 
ATOM      7  C   UNL     1     -41.029  26.130   2.609  0.00  0.00    +0.204 A 
ATOM      8  C   UNL     1     -40.072  25.059   2.292  0.00  0.00    +0.107 A 
ATOM      9  C   UNL     1     -40.482  24.019   1.458  0.00  0.00    +0.154 A 
ATOM     10  C   UNL     1     -44.887  25.760   0.852  0.00  0.00    +0.171 C 
ATOM     11  C   UNL     1     -43.908  24.794   0.612  0.00  0.00    +0.077 C 
ATOM     12  C   UNL     1     -38.776  25.080   2.816  0.00  0.00    +0.139 C 
ATOM     13  C   UNL     1     -37.890  24.050   2.498  0.00  0.00    +0.050 C 
ATOM     14  C   UNL     1     -39.590  22.992   1.144  0.00  0.00    +0.074 C 
ATOM     15  C   UNL     1     -38.296  23.009   1.664  0.00  0.00    +0.136 C 
ENDROOT
BRANCH   6  16
ATOM     16  O   UNL     1     -45.573  27.789   1.897  0.00  0.00    -0.469 OA
ATOM     17  C   UNL     1     -45.717  28.818   0.924  0.00  0.00    +0.253 C 
ENDBRANCH   6  16
BRANCH  10  18
ATOM     18  O   UNL     1     -46.116  25.620   0.280  0.00  0.00    -0.503 OA
ATOM     19  H   UNL     1     -46.782  26.260   0.442  0.00  0.00    +0.292 HD
ENDBRANCH  10  18
BRANCH  12  20
ATOM     20  O   UNL     1     -38.343  26.080   3.635  0.00  0.00    -0.506 OA
ATOM     21  H   UNL     1     -38.196  25.909   4.544  0.00  0.00    +0.292 HD
ENDBRANCH  12  20
BRANCH  15  22
ATOM     22  O   UNL     1     -37.440  21.997   1.345  0.00  0.00    -0.506 OA
ATOM     23  H   UNL     1     -36.582  22.193   1.023  0.00  0.00    +0.292 HD
ENDBRANCH  15  22
BRANCH   3  24
ATOM     24  C   UNL     1     -43.108  28.183   3.121  0.00  0.00    +0.032 C 
BRANCH  24  25
ATOM     25  C   UNL     1     -43.788  28.038   4.494  0.00  0.00    +0.032 C 
BRANCH  25  26
ATOM     26  C   UNL     1     -44.052  29.368   5.229  0.00  0.00    +0.089 C 
ATOM     27  C   UNL     1     -44.656  30.383   4.251  0.00  0.00    +0.029 C 
ATOM     28  C   UNL     1     -44.976  29.195   6.436  0.00  0.00    +0.029 C 
BRANCH  26  29
ATOM     29  O   UNL     1     -42.801  29.887   5.686  0.00  0.00    -0.387 OA
ATOM     30  H   UNL     1     -42.878  30.140   6.618  0.00  0.00    +0.210 HD
ENDBRANCH  26  29
ENDBRANCH  25  26
ENDBRANCH  24  25
ENDBRANCH   3  24
BRANCH  13  31
ATOM     31  C   UNL     1     -36.499  24.060   3.050  0.00  0.00    +0.058 C 
BRANCH  31  32
ATOM     32  C   UNL     1     -36.306  23.061   4.162  0.00  0.00    -0.030 C 
ATOM     33  C   UNL     1     -35.569  23.197   5.281  0.00  0.00    -0.048 C 
ATOM     34  C   UNL     1     -35.419  22.156   6.354  0.00  0.00    +0.026 C 
ATOM     35  C   UNL     1     -34.800  24.467   5.537  0.00  0.00    +0.026 C 
ENDBRANCH  31  32
ENDBRANCH  13  31
TORSDOF 10
ENDMDL
MODEL 7
REMARK VINA RESULT:      -6.2      2.774      7.724
REMARK  Name = 5495926
REMARK  10 active torsions:
REMARK  status: ('A' for Active; 'I' for Inactive)
REMARK    1  A    between atoms: C_3  and  C_24
REMARK    2  A    between atoms: C_6  and  O_16
REMARK    3  A    between atoms: C_10  and  O_18
REMARK    4  A    between atoms: C_12  and  O_20
REMARK    5  A    between atoms: C_13  and  C_31
REMARK    6  A    between atoms: C_15  and  O_22
REMARK    7  A    between atoms: C_24  and  C_25
REMARK    8  A    between atoms: C_25  and  C_26
REMARK    9  A    between atoms: C_26  and  O_29
REMARK   10  A    between atoms: C_31  and  C_32
REMARK                            x       y       z     vdW  Elec       q    Type
REMARK                         _______ _______ _______ _____ _____    ______ ____
ROOT
ATOM      1  O   UNL     1     -33.207  26.639   5.183  0.00  0.00    -0.453 OA
ATOM      2  O   UNL     1     -35.426  27.507   1.857  0.00  0.00    -0.286 OA
ATOM      3  C   UNL     1     -36.087  25.190   3.358  0.00  0.00    +0.021 C 
ATOM      4  C   UNL     1     -35.045  26.062   3.682  0.00  0.00    +0.073 A 
ATOM      5  C   UNL     1     -34.248  25.828   4.802  0.00  0.00    +0.151 A 
ATOM      6  C   UNL     1     -36.329  24.077   4.165  0.00  0.00    +0.168 C 
ATOM      7  C   UNL     1     -34.766  27.242   2.850  0.00  0.00    +0.204 A 
ATOM      8  C   UNL     1     -33.648  28.098   3.275  0.00  0.00    +0.107 A 
ATOM      9  C   UNL     1     -32.932  27.747   4.419  0.00  0.00    +0.154 A 
ATOM     10  C   UNL     1     -35.535  23.839   5.286  0.00  0.00    +0.171 C 
ATOM     11  C   UNL     1     -34.495  24.714   5.606  0.00  0.00    +0.077 C 
ATOM     12  C   UNL     1     -33.307  29.243   2.548  0.00  0.00    +0.139 C 
ATOM     13  C   UNL     1     -32.242  30.036   2.975  0.00  0.00    +0.050 C 
ATOM     14  C   UNL     1     -31.867  28.545   4.841  0.00  0.00    +0.074 C 
ATOM     15  C   UNL     1     -31.523  29.688   4.118  0.00  0.00    +0.136 C 
ENDROOT
BRANCH   6  16
ATOM     16  O   UNL     1     -37.344  23.214   3.866  0.00  0.00    -0.469 OA
ATOM     17  C   UNL     1     -37.042  22.146   2.974  0.00  0.00    +0.253 C 
ENDBRANCH   6  16
BRANCH  10  18
ATOM     18  O   UNL     1     -35.764  22.756   6.081  0.00  0.00    -0.503 OA
ATOM     19  H   UNL     1     -35.529  22.785   6.989  0.00  0.00    +0.292 HD
ENDBRANCH  10  18
BRANCH  12  20
ATOM     20  O   UNL     1     -33.987  29.616   1.427  0.00  0.00    -0.506 OA
ATOM     21  H   UNL     1     -33.919  30.495   1.110  0.00  0.00    +0.292 HD
ENDBRANCH  12  20
BRANCH  15  22
ATOM     22  O   UNL     1     -30.479  30.453   4.546  0.00  0.00    -0.506 OA
ATOM     23  H   UNL     1     -29.765  30.636   3.968  0.00  0.00    +0.292 HD
ENDBRANCH  15  22
BRANCH   3  24
ATOM     24  C   UNL     1     -36.978  25.387   2.171  0.00  0.00    +0.032 C 
BRANCH  24  25
ATOM     25  C   UNL     1     -38.230  26.209   2.522  0.00  0.00    +0.032 C 
BRANCH  25  26
ATOM     26  C   UNL     1     -39.549  25.410   2.526  0.00  0.00    +0.089 C 
ATOM     27  C   UNL     1     -40.729  26.367   2.318  0.00  0.00    +0.029 C 
ATOM     28  C   UNL     1     -39.572  24.315   1.457  0.00  0.00    +0.029 C 
BRANCH  26  29
ATOM     29  O   UNL     1     -39.701  24.797   3.808  0.00  0.00    -0.387 OA
ATOM     30  H   UNL     1     -38.908  24.279   4.013  0.00  0.00    +0.210 HD
ENDBRANCH  26  29
ENDBRANCH  25  26
ENDBRANCH  24  25
ENDBRANCH   3  24
BRANCH  13  31
ATOM     31  C   UNL     1     -31.865  31.263   2.207  0.00  0.00    +0.058 C 
BRANCH  31  32
ATOM     32  C   UNL     1     -32.725  32.453   2.549  0.00  0.00    -0.030 C 
ATOM     33  C   UNL     1     -32.754  33.656   1.945  0.00  0.00    -0.048 C 
ATOM     34  C   UNL     1     -33.641  34.804   2.339  0.00  0.00    +0.026 C 
ATOM     35  C   UNL     1     -31.844  33.947   0.781  0.00  0.00    +0.026 C 
ENDBRANCH  31  32
ENDBRANCH  13  31
TORSDOF 10
ENDMDL
MODEL 8
REMARK VINA RESULT:      -6.2      2.327      5.377
REMARK  Name = 5495926
REMARK  10 active torsions:
REMARK  status: ('A' for Active; 'I' for Inactive)
REMARK    1  A    between atoms: C_3  and  C_24
REMARK    2  A    between atoms: C_6  and  O_16
REMARK    3  A    between atoms: C_10  and  O_18
REMARK    4  A    between atoms: C_12  and  O_20
REMARK    5  A    between atoms: C_13  and  C_31
REMARK    6  A    between atoms: C_15  and  O_22
REMARK    7  A    between atoms: C_24  and  C_25
REMARK    8  A    between atoms: C_25  and  C_26
REMARK    9  A    between atoms: C_26  and  O_29
REMARK   10  A    between atoms: C_31  and  C_32
REMARK                            x       y       z     vdW  Elec       q    Type
REMARK                         _______ _______ _______ _____ _____    ______ ____
ROOT
ATOM      1  O   UNL     1     -33.446  29.416   2.415  0.00  0.00    -0.453 OA
ATOM      2  O   UNL     1     -31.799  27.320   5.518  0.00  0.00    -0.286 OA
ATOM      3  C   UNL     1     -30.313  29.461   4.390  0.00  0.00    +0.021 C 
ATOM      4  C   UNL     1     -31.581  29.072   3.952  0.00  0.00    +0.073 A 
ATOM      5  C   UNL     1     -32.203  29.741   2.899  0.00  0.00    +0.151 A 
ATOM      6  C   UNL     1     -29.668  30.529   3.766  0.00  0.00    +0.168 C 
ATOM      7  C   UNL     1     -32.286  27.949   4.590  0.00  0.00    +0.204 A 
ATOM      8  C   UNL     1     -33.615  27.617   4.057  0.00  0.00    +0.107 A 
ATOM      9  C   UNL     1     -34.121  28.372   2.998  0.00  0.00    +0.154 A 
ATOM     10  C   UNL     1     -30.286  31.203   2.713  0.00  0.00    +0.171 C 
ATOM     11  C   UNL     1     -31.554  30.810   2.280  0.00  0.00    +0.077 C 
ATOM     12  C   UNL     1     -34.361  26.566   4.599  0.00  0.00    +0.139 C 
ATOM     13  C   UNL     1     -35.620  26.274   4.072  0.00  0.00    +0.050 C 
ATOM     14  C   UNL     1     -35.380  28.074   2.476  0.00  0.00    +0.074 C 
ATOM     15  C   UNL     1     -36.128  27.026   3.014  0.00  0.00    +0.136 C 
ENDROOT
BRANCH   6  16
ATOM     16  O   UNL     1     -28.429  30.926   4.181  0.00  0.00    -0.469 OA
ATOM     17  C   UNL     1     -27.310  30.364   3.502  0.00  0.00    +0.253 C 
ENDBRANCH   6  16
BRANCH  10  18
ATOM     18  O   UNL     1     -29.665  32.248   2.099  0.00  0.00    -0.503 OA
ATOM     19  H   UNL     1     -28.956  32.089   1.506  0.00  0.00    +0.292 HD
ENDBRANCH  10  18
BRANCH  12  20
ATOM     20  O   UNL     1     -33.899  25.810   5.634  0.00  0.00    -0.506 OA
ATOM     21  H   UNL     1     -33.689  26.214   6.452  0.00  0.00    +0.292 HD
ENDBRANCH  12  20
BRANCH  15  22
ATOM     22  O   UNL     1     -37.357  26.751   2.489  0.00  0.00    -0.506 OA
ATOM     23  H   UNL     1     -38.106  26.709   3.050  0.00  0.00    +0.292 HD
ENDBRANCH  15  22
BRANCH   3  24
ATOM     24  C   UNL     1     -29.594  28.783   5.515  0.00  0.00    +0.032 C 
BRANCH  24  25
ATOM     25  C   UNL     1     -29.543  29.662   6.777  0.00  0.00    +0.032 C 
BRANCH  25  26
ATOM     26  C   UNL     1     -28.262  29.510   7.621  0.00  0.00    +0.089 C 
ATOM     27  C   UNL     1     -27.544  28.212   7.234  0.00  0.00    +0.029 C 
ATOM     28  C   UNL     1     -27.312  30.699   7.461  0.00  0.00    +0.029 C 
BRANCH  26  29
ATOM     29  O   UNL     1     -28.638  29.411   8.997  0.00  0.00    -0.387 OA
ATOM     30  H   UNL     1     -29.292  30.096   9.202  0.00  0.00    +0.210 HD
ENDBRANCH  26  29
ENDBRANCH  25  26
ENDBRANCH  24  25
ENDBRANCH   3  24
BRANCH  13  31
ATOM     31  C   UNL     1     -36.429  25.152   4.641  0.00  0.00    +0.058 C 
BRANCH  31  32
ATOM     32  C   UNL     1     -36.175  23.838   3.947  0.00  0.00    -0.030 C 
ATOM     33  C   UNL     1     -35.737  22.685   4.487  0.00  0.00    -0.048 C 
ATOM     34  C   UNL     1     -35.505  21.406   3.732  0.00  0.00    +0.026 C 
ATOM     35  C   UNL     1     -35.427  22.603   5.958  0.00  0.00    +0.026 C 
ENDBRANCH  31  32
ENDBRANCH  13  31
TORSDOF 10
ENDMDL
MODEL 9
REMARK VINA RESULT:      -6.2      2.228      7.550
REMARK  Name = 5495926
REMARK  10 active torsions:
REMARK  status: ('A' for Active; 'I' for Inactive)
REMARK    1  A    between atoms: C_3  and  C_24
REMARK    2  A    between atoms: C_6  and  O_16
REMARK    3  A    between atoms: C_10  and  O_18
REMARK    4  A    between atoms: C_12  and  O_20
REMARK    5  A    between atoms: C_13  and  C_31
REMARK    6  A    between atoms: C_15  and  O_22
REMARK    7  A    between atoms: C_24  and  C_25
REMARK    8  A    between atoms: C_25  and  C_26
REMARK    9  A    between atoms: C_26  and  O_29
REMARK   10  A    between atoms: C_31  and  C_32
REMARK                            x       y       z     vdW  Elec       q    Type
REMARK                         _______ _______ _______ _____ _____    ______ ____
ROOT
ATOM      1  O   UNL     1     -33.787  25.836   6.197  0.00  0.00    -0.453 OA
ATOM      2  O   UNL     1     -33.261  27.075   2.334  0.00  0.00    -0.286 OA
ATOM      3  C   UNL     1     -34.724  24.687   2.802  0.00  0.00    +0.021 C 
ATOM      4  C   UNL     1     -34.166  25.475   3.812  0.00  0.00    +0.073 A 
ATOM      5  C   UNL     1     -34.306  25.113   5.151  0.00  0.00    +0.151 A 
ATOM      6  C   UNL     1     -35.426  23.530   3.141  0.00  0.00    +0.168 C 
ATOM      7  C   UNL     1     -33.420  26.700   3.485  0.00  0.00    +0.204 A 
ATOM      8  C   UNL     1     -32.872  27.459   4.619  0.00  0.00    +0.107 A 
ATOM      9  C   UNL     1     -33.088  26.983   5.912  0.00  0.00    +0.154 A 
ATOM     10  C   UNL     1     -35.570  23.164   4.479  0.00  0.00    +0.171 C 
ATOM     11  C   UNL     1     -35.011  23.955   5.484  0.00  0.00    +0.077 C 
ATOM     12  C   UNL     1     -32.149  28.637   4.408  0.00  0.00    +0.139 C 
ATOM     13  C   UNL     1     -31.640  29.337   5.502  0.00  0.00    +0.050 C 
ATOM     14  C   UNL     1     -32.576  27.688   7.003  0.00  0.00    +0.074 C 
ATOM     15  C   UNL     1     -31.853  28.864   6.796  0.00  0.00    +0.136 C 
ENDROOT
BRANCH   6  16
ATOM     16  O   UNL     1     -35.980  22.748   2.169  0.00  0.00    -0.469 OA
ATOM     17  C   UNL     1     -37.381  22.882   1.952  0.00  0.00    +0.253 C 
ENDBRANCH   6  16
BRANCH  10  18
ATOM     18  O   UNL     1     -36.255  22.037   4.821  0.00  0.00    -0.503 OA
ATOM     19  H   UNL     1     -37.102  21.875   4.452  0.00  0.00    +0.292 HD
ENDBRANCH  10  18
BRANCH  12  20
ATOM     20  O   UNL     1     -31.920  29.131   3.158  0.00  0.00    -0.506 OA
ATOM     21  H   UNL     1     -32.636  29.442   2.639  0.00  0.00    +0.292 HD
ENDBRANCH  12  20
BRANCH  15  22
ATOM     22  O   UNL     1     -31.362  29.537   7.875  0.00  0.00    -0.506 OA
ATOM     23  H   UNL     1     -31.945  29.838   8.544  0.00  0.00    +0.292 HD
ENDBRANCH  15  22
BRANCH   3  24
ATOM     24  C   UNL     1     -34.609  25.022   1.347  0.00  0.00    +0.032 C 
BRANCH  24  25
ATOM     25  C   UNL     1     -33.654  24.065   0.612  0.00  0.00    +0.032 C 
BRANCH  25  26
ATOM     26  C   UNL     1     -32.498  24.754  -0.140  0.00  0.00    +0.089 C 
ATOM     27  C   UNL     1     -31.737  23.717  -0.974  0.00  0.00    +0.029 C 
ATOM     28  C   UNL     1     -32.983  25.893  -1.040  0.00  0.00    +0.029 C 
BRANCH  26  29
ATOM     29  O   UNL     1     -31.592  25.294   0.825  0.00  0.00    -0.387 OA
ATOM     30  H   UNL     1     -31.790  24.922   1.697  0.00  0.00    +0.210 HD
ENDBRANCH  26  29
ENDBRANCH  25  26
ENDBRANCH  24  25
ENDBRANCH   3  24
BRANCH  13  31
ATOM     31  C   UNL     1     -30.863  30.598   5.291  0.00  0.00    +0.058 C 
BRANCH  31  32
ATOM     32  C   UNL     1     -29.373  30.370   5.277  0.00  0.00    -0.030 C 
ATOM     33  C   UNL     1     -28.412  31.196   4.824  0.00  0.00    -0.048 C 
ATOM     34  C   UNL     1     -26.938  30.905   4.840  0.00  0.00    +0.026 C 
ATOM     35  C   UNL     1     -28.774  32.533   4.231  0.00  0.00    +0.026 C 
ENDBRANCH  31  32
ENDBRANCH  13  31
TORSDOF 10
ENDMDL
