MODEL 1
REMARK VINA RESULT:      -5.8      0.000      0.000
REMARK  Name = 5327118
REMARK  4 active torsions:
REMARK  status: ('A' for Active; 'I' for Inactive)
REMARK    1  A    between atoms: N_1  and  C_12
REMARK    2  A    between atoms: C_11  and  O_17
REMARK    3  A    between atoms: C_13  and  O_19
REMARK    4  A    between atoms: C_14  and  C_16
REMARK                            x       y       z     vdW  Elec       q    Type
REMARK                         _______ _______ _______ _____ _____    ______ ____
ROOT
ATOM      1  N   UNL     1     -36.170  21.657   2.668  0.00  0.00    -0.247 N 
ATOM      2  N   UNL     1     -36.335  23.874   2.860  0.00  0.00    -0.242 NA
ATOM      3  N   UNL     1     -35.369  21.106   4.894  0.00  0.00    -0.228 NA
ATOM      4  N   UNL     1     -35.118  23.107   6.268  0.00  0.00    -0.229 NA
ATOM      5  C   UNL     1     -35.776  21.958   3.941  0.00  0.00    +0.152 C 
ATOM      6  C   UNL     1     -36.496  22.841   2.058  0.00  0.00    +0.223 C 
ATOM      7  C   UNL     1     -35.887  23.337   4.040  0.00  0.00    +0.140 C 
ATOM      8  C   UNL     1     -35.539  23.910   5.260  0.00  0.00    +0.143 C 
ATOM      9  C   UNL     1     -35.060  21.776   6.026  0.00  0.00    +0.253 C 
ATOM     10  N   UNL     1     -35.622  25.300   5.449  0.00  0.00    -0.342 N 
ATOM     11  H   UNL     1     -35.373  25.694   6.316  0.00  0.00    +0.144 HD
ATOM     12  H   UNL     1     -35.928  25.879   4.714  0.00  0.00    +0.144 HD
ENDROOT
BRANCH   1  15
ATOM     13  O   UNL     1     -34.902  19.839   1.823  0.00  0.00    -0.334 OA
ATOM     14  C   UNL     1     -36.944  20.298   0.714  0.00  0.00    +0.187 C 
ATOM     15  C   UNL     1     -36.235  20.329   2.060  0.00  0.00    +0.225 C 
ATOM     16  C   UNL     1     -36.326  19.068   0.077  0.00  0.00    +0.170 C 
ATOM     17  C   UNL     1     -34.878  19.149   0.552  0.00  0.00    +0.163 C 
BRANCH  17  19
ATOM     18 CL   UNL     1     -32.415  20.259   0.357  0.00  0.00    -0.111 Cl
ATOM     19  C   UNL     1     -33.985  19.932  -0.401  0.00  0.00    +0.127 C 
ENDBRANCH  17  19
BRANCH  14  20
ATOM     20  O   UNL     1     -38.346  20.201   0.860  0.00  0.00    -0.378 OA
ATOM     21  H   UNL     1     -38.675  20.971   1.348  0.00  0.00    +0.211 HD
ENDBRANCH  14  20
BRANCH  16  22
ATOM     22  O   UNL     1     -36.926  17.895   0.628  0.00  0.00    -0.379 OA
ATOM     23  H   UNL     1     -36.380  17.123   0.414  0.00  0.00    +0.211 HD
ENDBRANCH  16  22
ENDBRANCH   1  15
TORSDOF 4
ENDMDL
MODEL 2
REMARK VINA RESULT:      -5.6      1.319      2.388
REMARK  Name = 5327118
REMARK  4 active torsions:
REMARK  status: ('A' for Active; 'I' for Inactive)
REMARK    1  A    between atoms: N_1  and  C_12
REMARK    2  A    between atoms: C_11  and  O_17
REMARK    3  A    between atoms: C_13  and  O_19
REMARK    4  A    between atoms: C_14  and  C_16
REMARK                            x       y       z     vdW  Elec       q    Type
REMARK                         _______ _______ _______ _____ _____    ______ ____
ROOT
ATOM      1  N   UNL     1     -36.134  22.097   3.846  0.00  0.00    -0.247 N 
ATOM      2  N   UNL     1     -35.705  23.436   5.578  0.00  0.00    -0.242 NA
ATOM      3  N   UNL     1     -37.083  23.712   2.299  0.00  0.00    -0.228 NA
ATOM      4  N   UNL     1     -37.139  25.948   3.273  0.00  0.00    -0.229 NA
ATOM      5  C   UNL     1     -36.538  23.347   3.468  0.00  0.00    +0.152 C 
ATOM      6  C   UNL     1     -35.642  22.202   5.121  0.00  0.00    +0.223 C 
ATOM      7  C   UNL     1     -36.262  24.161   4.556  0.00  0.00    +0.140 C 
ATOM      8  C   UNL     1     -36.584  25.510   4.429  0.00  0.00    +0.143 C 
ATOM      9  C   UNL     1     -37.351  25.036   2.295  0.00  0.00    +0.253 C 
ATOM     10  N   UNL     1     -36.338  26.408   5.481  0.00  0.00    -0.342 N 
ATOM     11  H   UNL     1     -36.570  27.359   5.381  0.00  0.00    +0.144 HD
ATOM     12  H   UNL     1     -35.934  26.086   6.319  0.00  0.00    +0.144 HD
ENDROOT
BRANCH   1  15
ATOM     13  O   UNL     1     -34.880  20.420   2.731  0.00  0.00    -0.334 OA
ATOM     14  C   UNL     1     -36.929  21.043   1.719  0.00  0.00    +0.187 C 
ATOM     15  C   UNL     1     -36.209  20.874   3.050  0.00  0.00    +0.225 C 
ATOM     16  C   UNL     1     -36.321  19.919   0.902  0.00  0.00    +0.170 C 
ATOM     17  C   UNL     1     -34.869  19.926   1.371  0.00  0.00    +0.163 C 
BRANCH  17  19
ATOM     18 CL   UNL     1     -32.345  20.162   0.419  0.00  0.00    -0.111 Cl
ATOM     19  C   UNL     1     -33.981  20.838   0.537  0.00  0.00    +0.127 C 
ENDBRANCH  17  19
BRANCH  14  20
ATOM     20  O   UNL     1     -38.330  20.929   1.862  0.00  0.00    -0.378 OA
ATOM     21  H   UNL     1     -38.765  21.276   1.068  0.00  0.00    +0.211 HD
ENDBRANCH  14  20
BRANCH  16  22
ATOM     22  O   UNL     1     -36.921  18.680   1.279  0.00  0.00    -0.379 OA
ATOM     23  H   UNL     1     -36.801  18.539   2.231  0.00  0.00    +0.211 HD
ENDBRANCH  16  22
ENDBRANCH   1  15
TORSDOF 4
ENDMDL
MODEL 3
REMARK VINA RESULT:      -5.6      4.055      6.013
REMARK  Name = 5327118
REMARK  4 active torsions:
REMARK  status: ('A' for Active; 'I' for Inactive)
REMARK    1  A    between atoms: N_1  and  C_12
REMARK    2  A    between atoms: C_11  and  O_17
REMARK    3  A    between atoms: C_13  and  O_19
REMARK    4  A    between atoms: C_14  and  C_16
REMARK                            x       y       z     vdW  Elec       q    Type
REMARK                         _______ _______ _______ _____ _____    ______ ____
ROOT
ATOM      1  N   UNL     1     -37.577  25.170   2.724  0.00  0.00    -0.247 N 
ATOM      2  N   UNL     1     -39.417  25.934   1.720  0.00  0.00    -0.242 NA
ATOM      3  N   UNL     1     -38.040  22.785   2.679  0.00  0.00    -0.228 NA
ATOM      4  N   UNL     1     -40.186  22.318   1.616  0.00  0.00    -0.229 NA
ATOM      5  C   UNL     1     -38.332  24.070   2.426  0.00  0.00    +0.152 C 
ATOM      6  C   UNL     1     -38.272  26.265   2.280  0.00  0.00    +0.223 C 
ATOM      7  C   UNL     1     -39.467  24.566   1.803  0.00  0.00    +0.140 C 
ATOM      8  C   UNL     1     -40.416  23.635   1.392  0.00  0.00    +0.143 C 
ATOM      9  C   UNL     1     -39.031  21.981   2.236  0.00  0.00    +0.253 C 
ATOM     10  N   UNL     1     -41.596  24.048   0.751  0.00  0.00    -0.342 N 
ATOM     11  H   UNL     1     -42.261  23.381   0.464  0.00  0.00    +0.144 HD
ATOM     12  H   UNL     1     -41.759  25.006   0.589  0.00  0.00    +0.144 HD
ENDROOT
BRANCH   1  15
ATOM     13  O   UNL     1     -35.574  23.960   3.112  0.00  0.00    -0.334 OA
ATOM     14  C   UNL     1     -36.356  25.295   4.905  0.00  0.00    +0.187 C 
ATOM     15  C   UNL     1     -36.276  25.187   3.389  0.00  0.00    +0.225 C 
ATOM     16  C   UNL     1     -35.041  24.667   5.322  0.00  0.00    +0.170 C 
ATOM     17  C   UNL     1     -34.886  23.535   4.312  0.00  0.00    +0.163 C 
BRANCH  17  19
ATOM     18 CL   UNL     1     -35.338  22.068   6.543  0.00  0.00    -0.111 Cl
ATOM     19  C   UNL     1     -35.509  22.229   4.785  0.00  0.00    +0.127 C 
ENDBRANCH  17  19
BRANCH  14  20
ATOM     20  O   UNL     1     -36.490  26.636   5.330  0.00  0.00    -0.378 OA
ATOM     21  H   UNL     1     -35.954  26.779   6.124  0.00  0.00    +0.211 HD
ENDBRANCH  14  20
BRANCH  16  22
ATOM     22  O   UNL     1     -33.983  25.607   5.127  0.00  0.00    -0.379 OA
ATOM     23  H   UNL     1     -34.336  26.508   5.187  0.00  0.00    +0.211 HD
ENDBRANCH  16  22
ENDBRANCH   1  15
TORSDOF 4
ENDMDL
MODEL 4
REMARK VINA RESULT:      -5.6      2.798      3.124
REMARK  Name = 5327118
REMARK  4 active torsions:
REMARK  status: ('A' for Active; 'I' for Inactive)
REMARK    1  A    between atoms: N_1  and  C_12
REMARK    2  A    between atoms: C_11  and  O_17
REMARK    3  A    between atoms: C_13  and  O_19
REMARK    4  A    between atoms: C_14  and  C_16
REMARK                            x       y       z     vdW  Elec       q    Type
REMARK                         _______ _______ _______ _____ _____    ______ ____
ROOT
ATOM      1  N   UNL     1     -37.842  23.216   2.394  0.00  0.00    -0.247 N 
ATOM      2  N   UNL     1     -38.199  25.261   3.210  0.00  0.00    -0.242 NA
ATOM      3  N   UNL     1     -35.979  22.529   3.794  0.00  0.00    -0.228 NA
ATOM      4  N   UNL     1     -35.367  24.281   5.378  0.00  0.00    -0.229 NA
ATOM      5  C   UNL     1     -36.917  23.395   3.384  0.00  0.00    +0.152 C 
ATOM      6  C   UNL     1     -38.587  24.364   2.327  0.00  0.00    +0.223 C 
ATOM      7  C   UNL     1     -37.157  24.668   3.878  0.00  0.00    +0.140 C 
ATOM      8  C   UNL     1     -36.337  25.105   4.914  0.00  0.00    +0.143 C 
ATOM      9  C   UNL     1     -35.250  23.063   4.798  0.00  0.00    +0.253 C 
ATOM     10  N   UNL     1     -36.509  26.381   5.477  0.00  0.00    -0.342 N 
ATOM     11  H   UNL     1     -35.924  26.680   6.209  0.00  0.00    +0.144 HD
ATOM     12  H   UNL     1     -37.216  26.978   5.137  0.00  0.00    +0.144 HD
ENDROOT
BRANCH   1  15
ATOM     13  O   UNL     1     -37.291  22.200   0.321  0.00  0.00    -0.334 OA
ATOM     14  C   UNL     1     -39.456  21.745   1.170  0.00  0.00    +0.187 C 
ATOM     15  C   UNL     1     -38.012  22.029   1.557  0.00  0.00    +0.225 C 
ATOM     16  C   UNL     1     -39.274  20.954  -0.111  0.00  0.00    +0.170 C 
ATOM     17  C   UNL     1     -38.083  21.654  -0.759  0.00  0.00    +0.163 C 
BRANCH  17  19
ATOM     18 CL   UNL     1     -37.617  24.277  -1.247  0.00  0.00    -0.111 Cl
ATOM     19  C   UNL     1     -38.495  22.797  -1.677  0.00  0.00    +0.127 C 
ENDBRANCH  17  19
BRANCH  14  20
ATOM     20  O   UNL     1     -40.137  21.023   2.175  0.00  0.00    -0.378 OA
ATOM     21  H   UNL     1     -40.986  20.708   1.828  0.00  0.00    +0.211 HD
ENDBRANCH  14  20
BRANCH  16  22
ATOM     22  O   UNL     1     -38.902  19.613   0.207  0.00  0.00    -0.379 OA
ATOM     23  H   UNL     1     -39.290  19.364   1.060  0.00  0.00    +0.211 HD
ENDBRANCH  16  22
ENDBRANCH   1  15
TORSDOF 4
ENDMDL
MODEL 5
REMARK VINA RESULT:      -5.6      4.247      5.725
REMARK  Name = 5327118
REMARK  4 active torsions:
REMARK  status: ('A' for Active; 'I' for Inactive)
REMARK    1  A    between atoms: N_1  and  C_12
REMARK    2  A    between atoms: C_11  and  O_17
REMARK    3  A    between atoms: C_13  and  O_19
REMARK    4  A    between atoms: C_14  and  C_16
REMARK                            x       y       z     vdW  Elec       q    Type
REMARK                         _______ _______ _______ _____ _____    ______ ____
ROOT
ATOM      1  N   UNL     1     -34.636  26.546   3.842  0.00  0.00    -0.247 N 
ATOM      2  N   UNL     1     -33.046  27.695   2.780  0.00  0.00    -0.242 NA
ATOM      3  N   UNL     1     -33.766  26.630   6.109  0.00  0.00    -0.228 NA
ATOM      4  N   UNL     1     -31.664  27.864   6.207  0.00  0.00    -0.229 NA
ATOM      5  C   UNL     1     -33.727  26.905   4.797  0.00  0.00    +0.152 C 
ATOM      6  C   UNL     1     -34.183  27.043   2.648  0.00  0.00    +0.223 C 
ATOM      7  C   UNL     1     -32.750  27.617   4.118  0.00  0.00    +0.140 C 
ATOM      8  C   UNL     1     -31.688  28.105   4.874  0.00  0.00    +0.143 C 
ATOM      9  C   UNL     1     -32.688  27.152   6.733  0.00  0.00    +0.253 C 
ATOM     10  N   UNL     1     -30.654  28.840   4.269  0.00  0.00    -0.342 N 
ATOM     11  H   UNL     1     -29.908  29.180   4.813  0.00  0.00    +0.144 HD
ATOM     12  H   UNL     1     -30.676  29.013   3.300  0.00  0.00    +0.144 HD
ENDROOT
BRANCH   1  15
ATOM     13  O   UNL     1     -35.532  24.409   4.355  0.00  0.00    -0.334 OA
ATOM     14  C   UNL     1     -36.771  25.725   2.824  0.00  0.00    +0.187 C 
ATOM     15  C   UNL     1     -35.863  25.776   4.044  0.00  0.00    +0.225 C 
ATOM     16  C   UNL     1     -37.538  24.441   3.073  0.00  0.00    +0.170 C 
ATOM     17  C   UNL     1     -36.471  23.538   3.684  0.00  0.00    +0.163 C 
BRANCH  17  19
ATOM     18 CL   UNL     1     -35.500  21.057   3.196  0.00  0.00    -0.111 Cl
ATOM     19  C   UNL     1     -35.713  22.728   2.641  0.00  0.00    +0.127 C 
ENDBRANCH  17  19
BRANCH  14  20
ATOM     20  O   UNL     1     -37.605  26.862   2.742  0.00  0.00    -0.378 OA
ATOM     21  H   UNL     1     -38.533  26.588   2.795  0.00  0.00    +0.211 HD
ENDBRANCH  14  20
BRANCH  16  22
ATOM     22  O   UNL     1     -38.554  24.677   4.049  0.00  0.00    -0.379 OA
ATOM     23  H   UNL     1     -39.279  25.179   3.645  0.00  0.00    +0.211 HD
ENDBRANCH  16  22
ENDBRANCH   1  15
TORSDOF 4
ENDMDL
MODEL 6
REMARK VINA RESULT:      -5.6      3.556      5.722
REMARK  Name = 5327118
REMARK  4 active torsions:
REMARK  status: ('A' for Active; 'I' for Inactive)
REMARK    1  A    between atoms: N_1  and  C_12
REMARK    2  A    between atoms: C_11  and  O_17
REMARK    3  A    between atoms: C_13  and  O_19
REMARK    4  A    between atoms: C_14  and  C_16
REMARK                            x       y       z     vdW  Elec       q    Type
REMARK                         _______ _______ _______ _____ _____    ______ ____
ROOT
ATOM      1  N   UNL     1     -37.153  23.365   2.355  0.00  0.00    -0.247 N 
ATOM      2  N   UNL     1     -37.187  24.517   0.445  0.00  0.00    -0.242 NA
ATOM      3  N   UNL     1     -38.427  21.408   1.683  0.00  0.00    -0.228 NA
ATOM      4  N   UNL     1     -39.134  21.567  -0.647  0.00  0.00    -0.229 NA
ATOM      5  C   UNL     1     -37.861  22.605   1.467  0.00  0.00    +0.152 C 
ATOM      6  C   UNL     1     -36.771  24.503   1.694  0.00  0.00    +0.223 C 
ATOM      7  C   UNL     1     -37.869  23.337   0.289  0.00  0.00    +0.140 C 
ATOM      8  C   UNL     1     -38.538  22.775  -0.795  0.00  0.00    +0.143 C 
ATOM      9  C   UNL     1     -39.043  20.968   0.564  0.00  0.00    +0.253 C 
ATOM     10  N   UNL     1     -38.595  23.446  -2.029  0.00  0.00    -0.342 N 
ATOM     11  H   UNL     1     -39.071  23.040  -2.789  0.00  0.00    +0.144 HD
ATOM     12  H   UNL     1     -38.161  24.323  -2.132  0.00  0.00    +0.144 HD
ENDROOT
BRANCH   1  15
ATOM     13  O   UNL     1     -36.598  24.246   4.487  0.00  0.00    -0.334 OA
ATOM     14  C   UNL     1     -35.625  22.160   3.929  0.00  0.00    +0.187 C 
ATOM     15  C   UNL     1     -36.856  23.037   3.748  0.00  0.00    +0.225 C 
ATOM     16  C   UNL     1     -35.210  22.512   5.344  0.00  0.00    +0.170 C 
ATOM     17  C   UNL     1     -35.509  24.006   5.409  0.00  0.00    +0.163 C 
BRANCH  17  19
ATOM     18 CL   UNL     1     -34.083  26.187   6.146  0.00  0.00    -0.111 Cl
ATOM     19  C   UNL     1     -34.326  24.867   4.987  0.00  0.00    +0.127 C 
ENDBRANCH  17  19
BRANCH  14  20
ATOM     20  O   UNL     1     -35.927  20.789   3.765  0.00  0.00    -0.378 OA
ATOM     21  H   UNL     1     -35.329  20.403   3.107  0.00  0.00    +0.211 HD
ENDBRANCH  14  20
BRANCH  16  22
ATOM     22  O   UNL     1     -36.057  21.832   6.271  0.00  0.00    -0.379 OA
ATOM     23  H   UNL     1     -35.534  21.544   7.036  0.00  0.00    +0.211 HD
ENDBRANCH  16  22
ENDBRANCH   1  15
TORSDOF 4
ENDMDL
MODEL 7
REMARK VINA RESULT:      -5.5      3.625      5.791
REMARK  Name = 5327118
REMARK  4 active torsions:
REMARK  status: ('A' for Active; 'I' for Inactive)
REMARK    1  A    between atoms: N_1  and  C_12
REMARK    2  A    between atoms: C_11  and  O_17
REMARK    3  A    between atoms: C_13  and  O_19
REMARK    4  A    between atoms: C_14  and  C_16
REMARK                            x       y       z     vdW  Elec       q    Type
REMARK                         _______ _______ _______ _____ _____    ______ ____
ROOT
ATOM      1  N   UNL     1     -37.097  23.171   2.333  0.00  0.00    -0.247 N 
ATOM      2  N   UNL     1     -36.730  23.401   0.144  0.00  0.00    -0.242 NA
ATOM      3  N   UNL     1     -39.484  23.616   2.403  0.00  0.00    -0.228 NA
ATOM      4  N   UNL     1     -40.365  24.087   0.177  0.00  0.00    -0.229 NA
ATOM      5  C   UNL     1     -38.307  23.477   1.776  0.00  0.00    +0.152 C 
ATOM      6  C   UNL     1     -36.182  23.137   1.312  0.00  0.00    +0.223 C 
ATOM      7  C   UNL     1     -38.057  23.614   0.419  0.00  0.00    +0.140 C 
ATOM      8  C   UNL     1     -39.144  23.932  -0.391  0.00  0.00    +0.143 C 
ATOM      9  C   UNL     1     -40.457  23.922   1.518  0.00  0.00    +0.253 C 
ATOM     10  N   UNL     1     -38.984  24.088  -1.778  0.00  0.00    -0.342 N 
ATOM     11  H   UNL     1     -39.759  24.313  -2.341  0.00  0.00    +0.144 HD
ATOM     12  H   UNL     1     -38.095  23.974  -2.187  0.00  0.00    +0.144 HD
ENDROOT
BRANCH   1  15
ATOM     13  O   UNL     1     -36.639  24.180   4.431  0.00  0.00    -0.334 OA
ATOM     14  C   UNL     1     -35.553  22.120   3.999  0.00  0.00    +0.187 C 
ATOM     15  C   UNL     1     -36.819  22.925   3.747  0.00  0.00    +0.225 C 
ATOM     16  C   UNL     1     -35.191  22.559   5.404  0.00  0.00    +0.170 C 
ATOM     17  C   UNL     1     -35.563  24.039   5.388  0.00  0.00    +0.163 C 
BRANCH  17  19
ATOM     18 CL   UNL     1     -34.082  26.158   6.192  0.00  0.00    -0.111 Cl
ATOM     19  C   UNL     1     -34.412  24.935   4.951  0.00  0.00    +0.127 C 
ENDBRANCH  17  19
BRANCH  14  20
ATOM     20  O   UNL     1     -35.785  20.730   3.896  0.00  0.00    -0.378 OA
ATOM     21  H   UNL     1     -35.048  20.247   4.301  0.00  0.00    +0.211 HD
ENDBRANCH  14  20
BRANCH  16  22
ATOM     22  O   UNL     1     -36.028  21.884   6.344  0.00  0.00    -0.379 OA
ATOM     23  H   UNL     1     -35.477  21.447   7.012  0.00  0.00    +0.211 HD
ENDBRANCH  16  22
ENDBRANCH   1  15
TORSDOF 4
ENDMDL
MODEL 8
REMARK VINA RESULT:      -5.5      4.217      6.144
REMARK  Name = 5327118
REMARK  4 active torsions:
REMARK  status: ('A' for Active; 'I' for Inactive)
REMARK    1  A    between atoms: N_1  and  C_12
REMARK    2  A    between atoms: C_11  and  O_17
REMARK    3  A    between atoms: C_13  and  O_19
REMARK    4  A    between atoms: C_14  and  C_16
REMARK                            x       y       z     vdW  Elec       q    Type
REMARK                         _______ _______ _______ _____ _____    ______ ____
ROOT
ATOM      1  N   UNL     1     -37.757  25.302   3.079  0.00  0.00    -0.247 N 
ATOM      2  N   UNL     1     -37.901  27.025   1.669  0.00  0.00    -0.242 NA
ATOM      3  N   UNL     1     -39.714  24.037   2.390  0.00  0.00    -0.228 NA
ATOM      4  N   UNL     1     -40.895  25.151   0.569  0.00  0.00    -0.229 NA
ATOM      5  C   UNL     1     -38.869  25.076   2.318  0.00  0.00    +0.152 C 
ATOM      6  C   UNL     1     -37.210  26.484   2.651  0.00  0.00    +0.223 C 
ATOM      7  C   UNL     1     -38.940  26.156   1.450  0.00  0.00    +0.140 C 
ATOM      8  C   UNL     1     -40.002  26.171   0.551  0.00  0.00    +0.143 C 
ATOM      9  C   UNL     1     -40.698  24.163   1.474  0.00  0.00    +0.253 C 
ATOM     10  N   UNL     1     -40.152  27.225  -0.367  0.00  0.00    -0.342 N 
ATOM     11  H   UNL     1     -40.907  27.226  -0.997  0.00  0.00    +0.144 HD
ATOM     12  H   UNL     1     -39.501  27.964  -0.377  0.00  0.00    +0.144 HD
ENDROOT
BRANCH   1  15
ATOM     13  O   UNL     1     -36.443  25.239   5.054  0.00  0.00    -0.334 OA
ATOM     14  C   UNL     1     -36.337  23.325   3.663  0.00  0.00    +0.187 C 
ATOM     15  C   UNL     1     -37.239  24.450   4.148  0.00  0.00    +0.225 C 
ATOM     16  C   UNL     1     -35.494  23.061   4.896  0.00  0.00    +0.170 C 
ATOM     17  C   UNL     1     -35.289  24.466   5.456  0.00  0.00    +0.163 C 
BRANCH  17  19
ATOM     18 CL   UNL     1     -33.567  26.494   5.958  0.00  0.00    -0.111 Cl
ATOM     19  C   UNL     1     -34.042  25.145   4.909  0.00  0.00    +0.127 C 
ENDBRANCH  17  19
BRANCH  14  20
ATOM     20  O   UNL     1     -37.080  22.197   3.248  0.00  0.00    -0.378 OA
ATOM     21  H   UNL     1     -36.891  22.009   2.317  0.00  0.00    +0.211 HD
ENDBRANCH  14  20
BRANCH  16  22
ATOM     22  O   UNL     1     -36.252  22.297   5.835  0.00  0.00    -0.379 OA
ATOM     23  H   UNL     1     -37.093  22.031   5.431  0.00  0.00    +0.211 HD
ENDBRANCH  16  22
ENDBRANCH   1  15
TORSDOF 4
ENDMDL
MODEL 9
REMARK VINA RESULT:      -5.5      1.900      2.021
REMARK  Name = 5327118
REMARK  4 active torsions:
REMARK  status: ('A' for Active; 'I' for Inactive)
REMARK    1  A    between atoms: N_1  and  C_12
REMARK    2  A    between atoms: C_11  and  O_17
REMARK    3  A    between atoms: C_13  and  O_19
REMARK    4  A    between atoms: C_14  and  C_16
REMARK                            x       y       z     vdW  Elec       q    Type
REMARK                         _______ _______ _______ _____ _____    ______ ____
ROOT
ATOM      1  N   UNL     1     -35.912  22.606   1.978  0.00  0.00    -0.247 N 
ATOM      2  N   UNL     1     -36.540  24.741   2.135  0.00  0.00    -0.242 NA
ATOM      3  N   UNL     1     -35.520  22.115   4.325  0.00  0.00    -0.228 NA
ATOM      4  N   UNL     1     -35.962  24.063   5.726  0.00  0.00    -0.229 NA
ATOM      5  C   UNL     1     -35.868  22.917   3.308  0.00  0.00    +0.152 C 
ATOM      6  C   UNL     1     -36.321  23.734   1.315  0.00  0.00    +0.223 C 
ATOM      7  C   UNL     1     -36.261  24.245   3.384  0.00  0.00    +0.140 C 
ATOM      8  C   UNL     1     -36.302  24.817   4.652  0.00  0.00    +0.143 C 
ATOM      9  C   UNL     1     -35.597  22.779   5.499  0.00  0.00    +0.253 C 
ATOM     10  N   UNL     1     -36.691  26.157   4.822  0.00  0.00    -0.342 N 
ATOM     11  H   UNL     1     -36.716  26.552   5.723  0.00  0.00    +0.144 HD
ATOM     12  H   UNL     1     -36.937  26.701   4.040  0.00  0.00    +0.144 HD
ENDROOT
BRANCH   1  15
ATOM     13  O   UNL     1     -35.253  21.510  -0.020  0.00  0.00    -0.334 OA
ATOM     14  C   UNL     1     -36.731  20.314   1.393  0.00  0.00    +0.187 C 
ATOM     15  C   UNL     1     -35.587  21.318   1.368  0.00  0.00    +0.225 C 
ATOM     16  C   UNL     1     -36.376  19.424   0.218  0.00  0.00    +0.170 C 
ATOM     17  C   UNL     1     -35.817  20.423  -0.790  0.00  0.00    +0.163 C 
BRANCH  17  19
ATOM     18 CL   UNL     1     -36.477  22.658  -2.170  0.00  0.00    -0.111 Cl
ATOM     19  C   UNL     1     -36.885  20.994  -1.713  0.00  0.00    +0.127 C 
ENDBRANCH  17  19
BRANCH  14  20
ATOM     20  O   UNL     1     -36.790  19.616   2.620  0.00  0.00    -0.378 OA
ATOM     21  H   UNL     1     -36.708  20.243   3.354  0.00  0.00    +0.211 HD
ENDBRANCH  14  20
BRANCH  16  22
ATOM     22  O   UNL     1     -35.334  18.525   0.601  0.00  0.00    -0.379 OA
ATOM     23  H   UNL     1     -35.661  17.613   0.553  0.00  0.00    +0.211 HD
ENDBRANCH  16  22
ENDBRANCH   1  15
TORSDOF 4
ENDMDL
