MODEL 1
REMARK VINA RESULT:      -6.5      0.000      0.000
REMARK  Name = 5480370
REMARK  12 active torsions:
REMARK  status: ('A' for Active; 'I' for Inactive)
REMARK    1  A    between atoms: P_1  and  N_3
REMARK    2  A    between atoms: P_1  and  O_13
REMARK    3  A    between atoms: P_1  and  C_20
REMARK    4  A    between atoms: N_3  and  C_5
REMARK    5  A    between atoms: C_5  and  C_8
REMARK    6  A    between atoms: C_8  and  O_9
REMARK    7  A    between atoms: O_9  and  C_10
REMARK    8  A    between atoms: O_13  and  C_14
REMARK    9  A    between atoms: C_20  and  O_21
REMARK   10  A    between atoms: O_21  and  C_22
REMARK   11  A    between atoms: C_22  and  C_24
REMARK   12  A    between atoms: C_24  and  N_25
REMARK                            x       y       z     vdW  Elec       q    Type
REMARK                         _______ _______ _______ _____ _____    ______ ____
ROOT
ATOM      1  P   UNL     1     -34.458  26.097   4.172  0.00  0.00    +0.358 P 
ATOM      2  O   UNL     1     -35.375  26.829   5.118  0.00  0.00    -0.256 OA
ENDROOT
BRANCH   1   3
ATOM      3  N   UNL     1     -34.967  25.879   2.611  0.00  0.00    -0.215 NA
ATOM      4  H   UNL     1     -35.954  25.624   2.653  0.00  0.00    +0.134 HD
BRANCH   3   5
ATOM      5  C   UNL     1     -34.854  26.978   1.666  0.00  0.00    +0.162 C 
ATOM      6  C   UNL     1     -34.795  26.430   0.245  0.00  0.00    +0.030 C 
BRANCH   5   8
ATOM      7  O   UNL     1     -37.227  27.544   1.683  0.00  0.00    -0.249 OA
ATOM      8  C   UNL     1     -36.060  27.880   1.842  0.00  0.00    +0.332 C 
BRANCH   8   9
ATOM      9  O   UNL     1     -35.638  29.127   2.213  0.00  0.00    -0.451 OA
BRANCH   9  10
ATOM     10  C   UNL     1     -36.181  30.214   1.456  0.00  0.00    +0.169 C 
ATOM     11  C   UNL     1     -36.065  31.495   2.266  0.00  0.00    +0.047 C 
ATOM     12  C   UNL     1     -35.447  30.314   0.128  0.00  0.00    +0.047 C 
ENDBRANCH   9  10
ENDBRANCH   8   9
ENDBRANCH   5   8
ENDBRANCH   3   5
ENDBRANCH   1   3
BRANCH   1  13
ATOM     13  O   UNL     1     -32.971  26.738   4.123  0.00  0.00    -0.429 OA
BRANCH  13  14
ATOM     14  C   UNL     1     -32.605  27.920   4.709  0.00  0.00    +0.146 C 
ATOM     15  C   UNL     1     -32.663  29.101   3.976  0.00  0.00    +0.037 C 
ATOM     16  C   UNL     1     -32.175  27.929   6.032  0.00  0.00    +0.037 C 
ATOM     17  C   UNL     1     -32.290  30.304   4.573  0.00  0.00    +0.003 C 
ATOM     18  C   UNL     1     -31.800  29.133   6.629  0.00  0.00    +0.003 C 
ATOM     19  C   UNL     1     -31.858  30.321   5.900  0.00  0.00    +0.000 C 
ENDBRANCH  13  14
ENDBRANCH   1  13
BRANCH   1  20
ATOM     20  C   UNL     1     -34.095  24.454   4.814  0.00  0.00    +0.258 C 
BRANCH  20  21
ATOM     21  O   UNL     1     -35.213  24.103   5.620  0.00  0.00    -0.343 OA
BRANCH  21  22
ATOM     22  C   UNL     1     -35.728  22.826   5.268  0.00  0.00    +0.136 C 
ATOM     23  C   UNL     1     -35.036  21.798   6.153  0.00  0.00    +0.034 C 
BRANCH  22  24
ATOM     24  C   UNL     1     -35.453  22.544   3.788  0.00  0.00    +0.123 C 
BRANCH  24  25
ATOM     25  N   UNL     1     -36.678  22.340   3.016  0.00  0.00    -0.269 N 
ATOM     26  N   UNL     1     -38.135  21.352   1.677  0.00  0.00    -0.242 NA
ATOM     27  N   UNL     1     -37.871  24.389   3.531  0.00  0.00    -0.228 NA
ATOM     28  N   UNL     1     -40.033  24.442   2.401  0.00  0.00    -0.229 NA
ATOM     29  C   UNL     1     -37.726  23.195   2.936  0.00  0.00    +0.151 C 
ATOM     30  C   UNL     1     -36.955  21.251   2.252  0.00  0.00    +0.221 C 
ATOM     31  C   UNL     1     -38.628  22.562   2.096  0.00  0.00    +0.140 C 
ATOM     32  C   UNL     1     -39.820  23.231   1.834  0.00  0.00    +0.143 C 
ATOM     33  C   UNL     1     -39.060  24.938   3.203  0.00  0.00    +0.253 C 
ATOM     34  N   UNL     1     -40.793  22.662   0.994  0.00  0.00    -0.342 N 
ATOM     35  H   UNL     1     -41.632  23.144   0.816  0.00  0.00    +0.144 HD
ATOM     36  H   UNL     1     -40.635  21.781   0.583  0.00  0.00    +0.144 HD
ENDBRANCH  24  25
ENDBRANCH  22  24
ENDBRANCH  21  22
ENDBRANCH  20  21
ENDBRANCH   1  20
TORSDOF 12
ENDMDL
MODEL 2
REMARK VINA RESULT:      -6.4      3.610      7.426
REMARK  Name = 5480370
REMARK  12 active torsions:
REMARK  status: ('A' for Active; 'I' for Inactive)
REMARK    1  A    between atoms: P_1  and  N_3
REMARK    2  A    between atoms: P_1  and  O_13
REMARK    3  A    between atoms: P_1  and  C_20
REMARK    4  A    between atoms: N_3  and  C_5
REMARK    5  A    between atoms: C_5  and  C_8
REMARK    6  A    between atoms: C_8  and  O_9
REMARK    7  A    between atoms: O_9  and  C_10
REMARK    8  A    between atoms: O_13  and  C_14
REMARK    9  A    between atoms: C_20  and  O_21
REMARK   10  A    between atoms: O_21  and  C_22
REMARK   11  A    between atoms: C_22  and  C_24
REMARK   12  A    between atoms: C_24  and  N_25
REMARK                            x       y       z     vdW  Elec       q    Type
REMARK                         _______ _______ _______ _____ _____    ______ ____
ROOT
ATOM      1  P   UNL     1     -35.987  21.060   1.891  0.00  0.00    +0.358 P 
ATOM      2  O   UNL     1     -35.475  22.222   1.079  0.00  0.00    -0.256 OA
ENDROOT
BRANCH   1   3
ATOM      3  N   UNL     1     -37.617  20.770   1.890  0.00  0.00    -0.215 NA
ATOM      4  H   UNL     1     -37.983  21.125   2.774  0.00  0.00    +0.134 HD
BRANCH   3   5
ATOM      5  C   UNL     1     -38.440  21.336   0.834  0.00  0.00    +0.162 C 
ATOM      6  C   UNL     1     -38.391  20.435  -0.394  0.00  0.00    +0.030 C 
BRANCH   5   8
ATOM      7  O   UNL     1     -40.812  20.785   0.977  0.00  0.00    -0.249 OA
ATOM      8  C   UNL     1     -39.860  21.457   1.353  0.00  0.00    +0.332 C 
BRANCH   8   9
ATOM      9  O   UNL     1     -39.907  22.430   2.312  0.00  0.00    -0.451 OA
BRANCH   9  10
ATOM     10  C   UNL     1     -39.655  23.762   1.853  0.00  0.00    +0.169 C 
ATOM     11  C   UNL     1     -40.849  24.249   1.048  0.00  0.00    +0.047 C 
ATOM     12  C   UNL     1     -39.374  24.658   3.049  0.00  0.00    +0.047 C 
ENDBRANCH   9  10
ENDBRANCH   8   9
ENDBRANCH   5   8
ENDBRANCH   3   5
ENDBRANCH   1   3
BRANCH   1  13
ATOM     13  O   UNL     1     -35.235  19.670   1.532  0.00  0.00    -0.429 OA
BRANCH  13  14
ATOM     14  C   UNL     1     -33.934  19.563   1.121  0.00  0.00    +0.146 C 
ATOM     15  C   UNL     1     -33.191  18.440   1.469  0.00  0.00    +0.037 C 
ATOM     16  C   UNL     1     -33.366  20.579   0.359  0.00  0.00    +0.037 C 
ATOM     17  C   UNL     1     -31.865  18.332   1.050  0.00  0.00    +0.003 C 
ATOM     18  C   UNL     1     -32.040  20.471  -0.060  0.00  0.00    +0.003 C 
ATOM     19  C   UNL     1     -31.289  19.348   0.286  0.00  0.00    +0.000 C 
ENDBRANCH  13  14
ENDBRANCH   1  13
BRANCH   1  20
ATOM     20  C   UNL     1     -35.515  21.261   3.617  0.00  0.00    +0.258 C 
BRANCH  20  21
ATOM     21  O   UNL     1     -36.127  22.472   4.043  0.00  0.00    -0.343 OA
BRANCH  21  22
ATOM     22  C   UNL     1     -35.359  23.119   5.049  0.00  0.00    +0.136 C 
ATOM     23  C   UNL     1     -35.412  22.243   6.293  0.00  0.00    +0.034 C 
BRANCH  22  24
ATOM     24  C   UNL     1     -35.938  24.507   5.334  0.00  0.00    +0.123 C 
BRANCH  24  25
ATOM     25  N   UNL     1     -34.992  25.584   5.045  0.00  0.00    -0.269 N 
ATOM     26  N   UNL     1     -33.307  26.985   5.337  0.00  0.00    -0.242 NA
ATOM     27  N   UNL     1     -35.759  26.266   2.847  0.00  0.00    -0.228 NA
ATOM     28  N   UNL     1     -34.399  28.099   1.983  0.00  0.00    -0.229 NA
ATOM     29  C   UNL     1     -34.956  26.337   3.919  0.00  0.00    +0.151 C 
ATOM     30  C   UNL     1     -33.995  25.997   5.869  0.00  0.00    +0.221 C 
ATOM     31  C   UNL     1     -33.896  27.207   4.118  0.00  0.00    +0.140 C 
ATOM     32  C   UNL     1     -33.627  28.113   3.096  0.00  0.00    +0.143 C 
ATOM     33  C   UNL     1     -35.402  27.190   1.928  0.00  0.00    +0.253 C 
ATOM     34  N   UNL     1     -32.570  29.032   3.212  0.00  0.00    -0.342 N 
ATOM     35  H   UNL     1     -32.389  29.668   2.483  0.00  0.00    +0.144 HD
ATOM     36  H   UNL     1     -32.011  29.040   4.022  0.00  0.00    +0.144 HD
ENDBRANCH  24  25
ENDBRANCH  22  24
ENDBRANCH  21  22
ENDBRANCH  20  21
ENDBRANCH   1  20
TORSDOF 12
ENDMDL
MODEL 3
REMARK VINA RESULT:      -6.4      1.203      2.199
REMARK  Name = 5480370
REMARK  12 active torsions:
REMARK  status: ('A' for Active; 'I' for Inactive)
REMARK    1  A    between atoms: P_1  and  N_3
REMARK    2  A    between atoms: P_1  and  O_13
REMARK    3  A    between atoms: P_1  and  C_20
REMARK    4  A    between atoms: N_3  and  C_5
REMARK    5  A    between atoms: C_5  and  C_8
REMARK    6  A    between atoms: C_8  and  O_9
REMARK    7  A    between atoms: O_9  and  C_10
REMARK    8  A    between atoms: O_13  and  C_14
REMARK    9  A    between atoms: C_20  and  O_21
REMARK   10  A    between atoms: O_21  and  C_22
REMARK   11  A    between atoms: C_22  and  C_24
REMARK   12  A    between atoms: C_24  and  N_25
REMARK                            x       y       z     vdW  Elec       q    Type
REMARK                         _______ _______ _______ _____ _____    ______ ____
ROOT
ATOM      1  P   UNL     1     -34.421  26.144   4.216  0.00  0.00    +0.358 P 
ATOM      2  O   UNL     1     -35.312  26.781   5.251  0.00  0.00    -0.256 OA
ENDROOT
BRANCH   1   3
ATOM      3  N   UNL     1     -34.959  26.099   2.650  0.00  0.00    -0.215 NA
ATOM      4  H   UNL     1     -35.827  25.564   2.649  0.00  0.00    +0.134 HD
BRANCH   3   5
ATOM      5  C   UNL     1     -35.228  27.347   1.954  0.00  0.00    +0.162 C 
ATOM      6  C   UNL     1     -34.091  27.652   0.987  0.00  0.00    +0.030 C 
BRANCH   5   8
ATOM      7  O   UNL     1     -37.613  27.674   1.557  0.00  0.00    -0.249 OA
ATOM      8  C   UNL     1     -36.541  27.198   1.208  0.00  0.00    +0.332 C 
BRANCH   8   9
ATOM      9  O   UNL     1     -36.334  26.453   0.080  0.00  0.00    -0.451 OA
BRANCH   9  10
ATOM     10  C   UNL     1     -37.078  25.233   0.000  0.00  0.00    +0.169 C 
ATOM     11  C   UNL     1     -38.202  25.396  -1.011  0.00  0.00    +0.047 C 
ATOM     12  C   UNL     1     -36.138  24.098  -0.375  0.00  0.00    +0.047 C 
ENDBRANCH   9  10
ENDBRANCH   8   9
ENDBRANCH   5   8
ENDBRANCH   3   5
ENDBRANCH   1   3
BRANCH   1  13
ATOM     13  O   UNL     1     -32.927  26.771   4.209  0.00  0.00    -0.429 OA
BRANCH  13  14
ATOM     14  C   UNL     1     -32.567  27.953   4.798  0.00  0.00    +0.146 C 
ATOM     15  C   UNL     1     -32.142  27.964   6.122  0.00  0.00    +0.037 C 
ATOM     16  C   UNL     1     -32.632  29.135   4.065  0.00  0.00    +0.037 C 
ATOM     17  C   UNL     1     -31.776  29.169   6.720  0.00  0.00    +0.003 C 
ATOM     18  C   UNL     1     -32.266  30.340   4.665  0.00  0.00    +0.003 C 
ATOM     19  C   UNL     1     -31.838  30.358   5.992  0.00  0.00    +0.000 C 
ENDBRANCH  13  14
ENDBRANCH   1  13
BRANCH   1  20
ATOM     20  C   UNL     1     -34.069  24.439   4.674  0.00  0.00    +0.258 C 
BRANCH  20  21
ATOM     21  O   UNL     1     -35.066  24.085   5.624  0.00  0.00    -0.343 OA
BRANCH  21  22
ATOM     22  C   UNL     1     -35.694  22.856   5.285  0.00  0.00    +0.136 C 
ATOM     23  C   UNL     1     -35.121  21.784   6.202  0.00  0.00    +0.034 C 
BRANCH  22  24
ATOM     24  C   UNL     1     -35.422  22.519   3.816  0.00  0.00    +0.123 C 
BRANCH  24  25
ATOM     25  N   UNL     1     -36.649  22.341   3.041  0.00  0.00    -0.269 N 
ATOM     26  N   UNL     1     -38.122  21.386   1.697  0.00  0.00    -0.242 NA
ATOM     27  N   UNL     1     -37.803  24.412   3.561  0.00  0.00    -0.228 NA
ATOM     28  N   UNL     1     -39.961  24.511   2.427  0.00  0.00    -0.229 NA
ATOM     29  C   UNL     1     -37.680  23.217   2.962  0.00  0.00    +0.151 C 
ATOM     30  C   UNL     1     -36.946  21.261   2.274  0.00  0.00    +0.221 C 
ATOM     31  C   UNL     1     -38.592  22.604   2.119  0.00  0.00    +0.140 C 
ATOM     32  C   UNL     1     -39.770  23.297   1.856  0.00  0.00    +0.143 C 
ATOM     33  C   UNL     1     -38.981  24.985   3.232  0.00  0.00    +0.253 C 
ATOM     34  N   UNL     1     -40.753  22.750   1.013  0.00  0.00    -0.342 N 
ATOM     35  H   UNL     1     -41.582  23.249   0.835  0.00  0.00    +0.144 HD
ATOM     36  H   UNL     1     -40.611  21.867   0.600  0.00  0.00    +0.144 HD
ENDBRANCH  24  25
ENDBRANCH  22  24
ENDBRANCH  21  22
ENDBRANCH  20  21
ENDBRANCH   1  20
TORSDOF 12
ENDMDL
MODEL 4
REMARK VINA RESULT:      -6.3      3.631      7.508
REMARK  Name = 5480370
REMARK  12 active torsions:
REMARK  status: ('A' for Active; 'I' for Inactive)
REMARK    1  A    between atoms: P_1  and  N_3
REMARK    2  A    between atoms: P_1  and  O_13
REMARK    3  A    between atoms: P_1  and  C_20
REMARK    4  A    between atoms: N_3  and  C_5
REMARK    5  A    between atoms: C_5  and  C_8
REMARK    6  A    between atoms: C_8  and  O_9
REMARK    7  A    between atoms: O_9  and  C_10
REMARK    8  A    between atoms: O_13  and  C_14
REMARK    9  A    between atoms: C_20  and  O_21
REMARK   10  A    between atoms: O_21  and  C_22
REMARK   11  A    between atoms: C_22  and  C_24
REMARK   12  A    between atoms: C_24  and  N_25
REMARK                            x       y       z     vdW  Elec       q    Type
REMARK                         _______ _______ _______ _____ _____    ______ ____
ROOT
ATOM      1  P   UNL     1     -35.962  21.053   2.110  0.00  0.00    +0.358 P 
ATOM      2  O   UNL     1     -35.457  22.253   1.350  0.00  0.00    -0.256 OA
ENDROOT
BRANCH   1   3
ATOM      3  N   UNL     1     -37.569  20.674   1.985  0.00  0.00    -0.215 NA
ATOM      4  H   UNL     1     -38.002  20.918   2.875  0.00  0.00    +0.134 HD
BRANCH   3   5
ATOM      5  C   UNL     1     -38.367  21.296   0.941  0.00  0.00    +0.162 C 
ATOM      6  C   UNL     1     -38.403  20.393  -0.286  0.00  0.00    +0.030 C 
BRANCH   5   8
ATOM      7  O   UNL     1     -40.770  20.915   1.125  0.00  0.00    -0.249 OA
ATOM      8  C   UNL     1     -39.766  21.518   1.484  0.00  0.00    +0.332 C 
BRANCH   8   9
ATOM      9  O   UNL     1     -39.727  22.493   2.441  0.00  0.00    -0.451 OA
BRANCH   9  10
ATOM     10  C   UNL     1     -39.443  23.814   1.967  0.00  0.00    +0.169 C 
ATOM     11  C   UNL     1     -40.740  24.480   1.536  0.00  0.00    +0.047 C 
ATOM     12  C   UNL     1     -38.740  24.598   3.064  0.00  0.00    +0.047 C 
ENDBRANCH   9  10
ENDBRANCH   8   9
ENDBRANCH   5   8
ENDBRANCH   3   5
ENDBRANCH   1   3
BRANCH   1  13
ATOM     13  O   UNL     1     -35.109  19.712   1.795  0.00  0.00    -0.429 OA
BRANCH  13  14
ATOM     14  C   UNL     1     -33.863  19.687   1.229  0.00  0.00    +0.146 C 
ATOM     15  C   UNL     1     -33.426  20.769   0.473  0.00  0.00    +0.037 C 
ATOM     16  C   UNL     1     -33.044  18.577   1.415  0.00  0.00    +0.037 C 
ATOM     17  C   UNL     1     -32.156  20.742  -0.103  0.00  0.00    +0.003 C 
ATOM     18  C   UNL     1     -31.774  18.550   0.839  0.00  0.00    +0.003 C 
ATOM     19  C   UNL     1     -31.330  19.633   0.079  0.00  0.00    +0.000 C 
ENDBRANCH  13  14
ENDBRANCH   1  13
BRANCH   1  20
ATOM     20  C   UNL     1     -35.631  21.256   3.868  0.00  0.00    +0.258 C 
BRANCH  20  21
ATOM     21  O   UNL     1     -36.149  22.536   4.210  0.00  0.00    -0.343 OA
BRANCH  21  22
ATOM     22  C   UNL     1     -35.307  23.207   5.138  0.00  0.00    +0.136 C 
ATOM     23  C   UNL     1     -35.411  22.466   6.463  0.00  0.00    +0.034 C 
BRANCH  22  24
ATOM     24  C   UNL     1     -35.756  24.663   5.290  0.00  0.00    +0.123 C 
BRANCH  24  25
ATOM     25  N   UNL     1     -34.917  25.595   4.538  0.00  0.00    -0.269 N 
ATOM     26  N   UNL     1     -34.108  26.710   2.808  0.00  0.00    -0.242 NA
ATOM     27  N   UNL     1     -33.529  26.476   6.321  0.00  0.00    -0.228 NA
ATOM     28  N   UNL     1     -31.942  28.116   5.456  0.00  0.00    -0.229 NA
ATOM     29  C   UNL     1     -33.938  26.380   5.047  0.00  0.00    +0.151 C 
ATOM     30  C   UNL     1     -34.992  25.816   3.200  0.00  0.00    +0.221 C 
ATOM     31  C   UNL     1     -33.443  27.071   3.953  0.00  0.00    +0.140 C 
ATOM     32  C   UNL     1     -32.406  27.968   4.192  0.00  0.00    +0.143 C 
ATOM     33  C   UNL     1     -32.524  27.373   6.428  0.00  0.00    +0.253 C 
ATOM     34  N   UNL     1     -31.844  28.713   3.141  0.00  0.00    -0.342 N 
ATOM     35  H   UNL     1     -31.112  29.345   3.322  0.00  0.00    +0.144 HD
ATOM     36  H   UNL     1     -32.184  28.604   2.223  0.00  0.00    +0.144 HD
ENDBRANCH  24  25
ENDBRANCH  22  24
ENDBRANCH  21  22
ENDBRANCH  20  21
ENDBRANCH   1  20
TORSDOF 12
ENDMDL
MODEL 5
REMARK VINA RESULT:      -6.3      1.968      4.899
REMARK  Name = 5480370
REMARK  12 active torsions:
REMARK  status: ('A' for Active; 'I' for Inactive)
REMARK    1  A    between atoms: P_1  and  N_3
REMARK    2  A    between atoms: P_1  and  O_13
REMARK    3  A    between atoms: P_1  and  C_20
REMARK    4  A    between atoms: N_3  and  C_5
REMARK    5  A    between atoms: C_5  and  C_8
REMARK    6  A    between atoms: C_8  and  O_9
REMARK    7  A    between atoms: O_9  and  C_10
REMARK    8  A    between atoms: O_13  and  C_14
REMARK    9  A    between atoms: C_20  and  O_21
REMARK   10  A    between atoms: O_21  and  C_22
REMARK   11  A    between atoms: C_22  and  C_24
REMARK   12  A    between atoms: C_24  and  N_25
REMARK                            x       y       z     vdW  Elec       q    Type
REMARK                         _______ _______ _______ _____ _____    ______ ____
ROOT
ATOM      1  P   UNL     1     -33.648  26.667   4.714  0.00  0.00    +0.358 P 
ATOM      2  O   UNL     1     -32.932  25.892   3.638  0.00  0.00    -0.256 OA
ENDROOT
BRANCH   1   3
ATOM      3  N   UNL     1     -32.733  27.567   5.762  0.00  0.00    -0.215 NA
ATOM      4  H   UNL     1     -32.142  26.913   6.276  0.00  0.00    +0.134 HD
BRANCH   3   5
ATOM      5  C   UNL     1     -31.861  28.603   5.234  0.00  0.00    +0.162 C 
ATOM      6  C   UNL     1     -31.875  29.809   6.166  0.00  0.00    +0.030 C 
BRANCH   5   8
ATOM      7  O   UNL     1     -29.863  27.822   4.072  0.00  0.00    -0.249 OA
ATOM      8  C   UNL     1     -30.461  28.031   5.120  0.00  0.00    +0.332 C 
BRANCH   8   9
ATOM      9  O   UNL     1     -29.970  27.791   6.374  0.00  0.00    -0.451 OA
BRANCH   9  10
ATOM     10  C   UNL     1     -28.581  28.083   6.560  0.00  0.00    +0.169 C 
ATOM     11  C   UNL     1     -28.439  29.221   7.559  0.00  0.00    +0.047 C 
ATOM     12  C   UNL     1     -27.863  26.826   7.027  0.00  0.00    +0.047 C 
ENDBRANCH   9  10
ENDBRANCH   8   9
ENDBRANCH   5   8
ENDBRANCH   3   5
ENDBRANCH   1   3
BRANCH   1  13
ATOM     13  O   UNL     1     -34.812  27.627   4.123  0.00  0.00    -0.429 OA
BRANCH  13  14
ATOM     14  C   UNL     1     -34.873  28.087   2.836  0.00  0.00    +0.146 C 
ATOM     15  C   UNL     1     -34.157  29.224   2.475  0.00  0.00    +0.037 C 
ATOM     16  C   UNL     1     -35.652  27.415   1.898  0.00  0.00    +0.037 C 
ATOM     17  C   UNL     1     -34.220  29.693   1.163  0.00  0.00    +0.003 C 
ATOM     18  C   UNL     1     -35.715  27.885   0.586  0.00  0.00    +0.003 C 
ATOM     19  C   UNL     1     -34.999  29.024   0.219  0.00  0.00    +0.000 C 
ENDBRANCH  13  14
ENDBRANCH   1  13
BRANCH   1  20
ATOM     20  C   UNL     1     -34.621  25.547   5.734  0.00  0.00    +0.258 C 
BRANCH  20  21
ATOM     21  O   UNL     1     -34.352  24.243   5.235  0.00  0.00    -0.343 OA
BRANCH  21  22
ATOM     22  C   UNL     1     -35.515  23.427   5.256  0.00  0.00    +0.136 C 
ATOM     23  C   UNL     1     -35.202  22.213   6.119  0.00  0.00    +0.034 C 
BRANCH  22  24
ATOM     24  C   UNL     1     -35.880  23.003   3.831  0.00  0.00    +0.123 C 
BRANCH  24  25
ATOM     25  N   UNL     1     -37.154  23.566   3.383  0.00  0.00    -0.269 N 
ATOM     26  N   UNL     1     -38.780  25.040   3.118  0.00  0.00    -0.242 NA
ATOM     27  N   UNL     1     -38.056  21.684   2.146  0.00  0.00    -0.228 NA
ATOM     28  N   UNL     1     -40.242  22.230   1.209  0.00  0.00    -0.229 NA
ATOM     29  C   UNL     1     -38.088  22.934   2.633  0.00  0.00    +0.151 C 
ATOM     30  C   UNL     1     -37.599  24.820   3.655  0.00  0.00    +0.221 C 
ATOM     31  C   UNL     1     -39.098  23.870   2.476  0.00  0.00    +0.140 C 
ATOM     32  C   UNL     1     -40.207  23.479   1.731  0.00  0.00    +0.143 C 
ATOM     33  C   UNL     1     -39.181  21.422   1.445  0.00  0.00    +0.253 C 
ATOM     34  N   UNL     1     -41.278  24.365   1.519  0.00  0.00    -0.342 N 
ATOM     35  H   UNL     1     -42.056  24.078   0.991  0.00  0.00    +0.144 HD
ATOM     36  H   UNL     1     -41.248  25.272   1.900  0.00  0.00    +0.144 HD
ENDBRANCH  24  25
ENDBRANCH  22  24
ENDBRANCH  21  22
ENDBRANCH  20  21
ENDBRANCH   1  20
TORSDOF 12
ENDMDL
MODEL 6
REMARK VINA RESULT:      -6.3      1.258      1.718
REMARK  Name = 5480370
REMARK  12 active torsions:
REMARK  status: ('A' for Active; 'I' for Inactive)
REMARK    1  A    between atoms: P_1  and  N_3
REMARK    2  A    between atoms: P_1  and  O_13
REMARK    3  A    between atoms: P_1  and  C_20
REMARK    4  A    between atoms: N_3  and  C_5
REMARK    5  A    between atoms: C_5  and  C_8
REMARK    6  A    between atoms: C_8  and  O_9
REMARK    7  A    between atoms: O_9  and  C_10
REMARK    8  A    between atoms: O_13  and  C_14
REMARK    9  A    between atoms: C_20  and  O_21
REMARK   10  A    between atoms: O_21  and  C_22
REMARK   11  A    between atoms: C_22  and  C_24
REMARK   12  A    between atoms: C_24  and  N_25
REMARK                            x       y       z     vdW  Elec       q    Type
REMARK                         _______ _______ _______ _____ _____    ______ ____
ROOT
ATOM      1  P   UNL     1     -34.466  26.182   4.214  0.00  0.00    +0.358 P 
ATOM      2  O   UNL     1     -35.309  26.775   5.314  0.00  0.00    -0.256 OA
ENDROOT
BRANCH   1   3
ATOM      3  N   UNL     1     -35.085  26.177   2.678  0.00  0.00    -0.215 NA
ATOM      4  H   UNL     1     -35.584  25.295   2.562  0.00  0.00    +0.134 HD
BRANCH   3   5
ATOM      5  C   UNL     1     -35.997  27.236   2.275  0.00  0.00    +0.162 C 
ATOM      6  C   UNL     1     -35.203  28.415   1.727  0.00  0.00    +0.030 C 
BRANCH   5   8
ATOM      7  O   UNL     1     -36.713  25.688   0.530  0.00  0.00    -0.249 OA
ATOM      8  C   UNL     1     -36.929  26.679   1.215  0.00  0.00    +0.332 C 
BRANCH   8   9
ATOM      9  O   UNL     1     -38.052  27.457   1.151  0.00  0.00    -0.451 OA
BRANCH   9  10
ATOM     10  C   UNL     1     -38.851  27.294  -0.025  0.00  0.00    +0.169 C 
ATOM     11  C   UNL     1     -40.321  27.323   0.361  0.00  0.00    +0.047 C 
ATOM     12  C   UNL     1     -38.504  28.390  -1.021  0.00  0.00    +0.047 C 
ENDBRANCH   9  10
ENDBRANCH   8   9
ENDBRANCH   5   8
ENDBRANCH   3   5
ENDBRANCH   1   3
BRANCH   1  13
ATOM     13  O   UNL     1     -32.982  26.829   4.149  0.00  0.00    -0.429 OA
BRANCH  13  14
ATOM     14  C   UNL     1     -32.593  27.971   4.794  0.00  0.00    +0.146 C 
ATOM     15  C   UNL     1     -32.602  29.185   4.116  0.00  0.00    +0.037 C 
ATOM     16  C   UNL     1     -32.190  27.907   6.125  0.00  0.00    +0.037 C 
ATOM     17  C   UNL     1     -32.204  30.348   4.775  0.00  0.00    +0.003 C 
ATOM     18  C   UNL     1     -31.792  29.071   6.783  0.00  0.00    +0.003 C 
ATOM     19  C   UNL     1     -31.799  30.291   6.108  0.00  0.00    +0.000 C 
ENDBRANCH  13  14
ENDBRANCH   1  13
BRANCH   1  20
ATOM     20  C   UNL     1     -34.070  24.469   4.600  0.00  0.00    +0.258 C 
BRANCH  20  21
ATOM     21  O   UNL     1     -34.999  24.077   5.603  0.00  0.00    -0.343 OA
BRANCH  21  22
ATOM     22  C   UNL     1     -35.681  22.884   5.244  0.00  0.00    +0.136 C 
ATOM     23  C   UNL     1     -35.178  21.779   6.163  0.00  0.00    +0.034 C 
BRANCH  22  24
ATOM     24  C   UNL     1     -35.398  22.544   3.778  0.00  0.00    +0.123 C 
BRANCH  24  25
ATOM     25  N   UNL     1     -36.620  22.368   2.994  0.00  0.00    -0.269 N 
ATOM     26  N   UNL     1     -38.058  21.445   1.590  0.00  0.00    -0.242 NA
ATOM     27  N   UNL     1     -37.855  24.350   3.651  0.00  0.00    -0.228 NA
ATOM     28  N   UNL     1     -40.019  24.436   2.528  0.00  0.00    -0.229 NA
ATOM     29  C   UNL     1     -37.686  23.204   2.974  0.00  0.00    +0.151 C 
ATOM     30  C   UNL     1     -36.875  21.329   2.157  0.00  0.00    +0.221 C 
ATOM     31  C   UNL     1     -38.575  22.612   2.093  0.00  0.00    +0.140 C 
ATOM     32  C   UNL     1     -39.782  23.272   1.878  0.00  0.00    +0.143 C 
ATOM     33  C   UNL     1     -39.056  24.896   3.362  0.00  0.00    +0.253 C 
ATOM     34  N   UNL     1     -40.744  22.743   1.001  0.00  0.00    -0.342 N 
ATOM     35  H   UNL     1     -41.594  23.218   0.858  0.00  0.00    +0.144 HD
ATOM     36  H   UNL     1     -40.568  21.896   0.530  0.00  0.00    +0.144 HD
ENDBRANCH  24  25
ENDBRANCH  22  24
ENDBRANCH  21  22
ENDBRANCH  20  21
ENDBRANCH   1  20
TORSDOF 12
ENDMDL
MODEL 7
REMARK VINA RESULT:      -6.3      3.108      6.755
REMARK  Name = 5480370
REMARK  12 active torsions:
REMARK  status: ('A' for Active; 'I' for Inactive)
REMARK    1  A    between atoms: P_1  and  N_3
REMARK    2  A    between atoms: P_1  and  O_13
REMARK    3  A    between atoms: P_1  and  C_20
REMARK    4  A    between atoms: N_3  and  C_5
REMARK    5  A    between atoms: C_5  and  C_8
REMARK    6  A    between atoms: C_8  and  O_9
REMARK    7  A    between atoms: O_9  and  C_10
REMARK    8  A    between atoms: O_13  and  C_14
REMARK    9  A    between atoms: C_20  and  O_21
REMARK   10  A    between atoms: O_21  and  C_22
REMARK   11  A    between atoms: C_22  and  C_24
REMARK   12  A    between atoms: C_24  and  N_25
REMARK                            x       y       z     vdW  Elec       q    Type
REMARK                         _______ _______ _______ _____ _____    ______ ____
ROOT
ATOM      1  P   UNL     1     -35.581  22.706   1.846  0.00  0.00    +0.358 P 
ATOM      2  O   UNL     1     -34.439  23.689   1.864  0.00  0.00    -0.256 OA
ENDROOT
BRANCH   1   3
ATOM      3  N   UNL     1     -37.110  23.295   1.602  0.00  0.00    -0.215 NA
ATOM      4  H   UNL     1     -37.011  24.183   1.111  0.00  0.00    +0.134 HD
BRANCH   3   5
ATOM      5  C   UNL     1     -38.067  22.499   0.851  0.00  0.00    +0.162 C 
ATOM      6  C   UNL     1     -38.735  21.490   1.777  0.00  0.00    +0.030 C 
BRANCH   5   8
ATOM      7  O   UNL     1     -38.994  24.006  -0.829  0.00  0.00    -0.249 OA
ATOM      8  C   UNL     1     -39.096  23.439   0.251  0.00  0.00    +0.332 C 
BRANCH   8   9
ATOM      9  O   UNL     1     -40.158  23.546   1.106  0.00  0.00    -0.451 OA
BRANCH   9  10
ATOM     10  C   UNL     1     -40.427  24.864   1.595  0.00  0.00    +0.169 C 
ATOM     11  C   UNL     1     -41.888  25.202   1.345  0.00  0.00    +0.047 C 
ATOM     12  C   UNL     1     -40.074  24.931   3.073  0.00  0.00    +0.047 C 
ENDBRANCH   9  10
ENDBRANCH   8   9
ENDBRANCH   5   8
ENDBRANCH   3   5
ENDBRANCH   1   3
BRANCH   1  13
ATOM     13  O   UNL     1     -35.343  21.493   0.798  0.00  0.00    -0.429 OA
BRANCH  13  14
ATOM     14  C   UNL     1     -34.224  20.708   0.745  0.00  0.00    +0.146 C 
ATOM     15  C   UNL     1     -33.103  21.149   0.051  0.00  0.00    +0.037 C 
ATOM     16  C   UNL     1     -34.218  19.472   1.386  0.00  0.00    +0.037 C 
ATOM     17  C   UNL     1     -31.963  20.348  -0.002  0.00  0.00    +0.003 C 
ATOM     18  C   UNL     1     -33.078  18.670   1.331  0.00  0.00    +0.003 C 
ATOM     19  C   UNL     1     -31.950  19.108   0.637  0.00  0.00    +0.000 C 
ENDBRANCH  13  14
ENDBRANCH   1  13
BRANCH   1  20
ATOM     20  C   UNL     1     -35.636  21.800   3.401  0.00  0.00    +0.258 C 
BRANCH  20  21
ATOM     21  O   UNL     1     -36.315  22.652   4.316  0.00  0.00    -0.343 OA
BRANCH  21  22
ATOM     22  C   UNL     1     -35.415  23.237   5.248  0.00  0.00    +0.136 C 
ATOM     23  C   UNL     1     -35.335  22.304   6.449  0.00  0.00    +0.034 C 
BRANCH  22  24
ATOM     24  C   UNL     1     -35.923  24.620   5.665  0.00  0.00    +0.123 C 
BRANCH  24  25
ATOM     25  N   UNL     1     -35.215  25.708   4.992  0.00  0.00    -0.269 N 
ATOM     26  N   UNL     1     -33.658  27.228   4.602  0.00  0.00    -0.242 NA
ATOM     27  N   UNL     1     -36.684  26.084   3.098  0.00  0.00    -0.228 NA
ATOM     28  N   UNL     1     -35.832  27.878   1.681  0.00  0.00    -0.229 NA
ATOM     29  C   UNL     1     -35.598  26.325   3.848  0.00  0.00    +0.151 C 
ATOM     30  C   UNL     1     -34.054  26.271   5.414  0.00  0.00    +0.221 C 
ATOM     31  C   UNL     1     -34.613  27.272   3.618  0.00  0.00    +0.140 C 
ATOM     32  C   UNL     1     -34.758  28.067   2.485  0.00  0.00    +0.143 C 
ATOM     33  C   UNL     1     -36.715  26.913   2.032  0.00  0.00    +0.253 C 
ATOM     34  N   UNL     1     -33.805  29.052   2.173  0.00  0.00    -0.342 N 
ATOM     35  H   UNL     1     -33.917  29.608   1.369  0.00  0.00    +0.144 HD
ATOM     36  H   UNL     1     -33.025  29.186   2.759  0.00  0.00    +0.144 HD
ENDBRANCH  24  25
ENDBRANCH  22  24
ENDBRANCH  21  22
ENDBRANCH  20  21
ENDBRANCH   1  20
TORSDOF 12
ENDMDL
MODEL 8
REMARK VINA RESULT:      -6.2      3.542      7.232
REMARK  Name = 5480370
REMARK  12 active torsions:
REMARK  status: ('A' for Active; 'I' for Inactive)
REMARK    1  A    between atoms: P_1  and  N_3
REMARK    2  A    between atoms: P_1  and  O_13
REMARK    3  A    between atoms: P_1  and  C_20
REMARK    4  A    between atoms: N_3  and  C_5
REMARK    5  A    between atoms: C_5  and  C_8
REMARK    6  A    between atoms: C_8  and  O_9
REMARK    7  A    between atoms: O_9  and  C_10
REMARK    8  A    between atoms: O_13  and  C_14
REMARK    9  A    between atoms: C_20  and  O_21
REMARK   10  A    between atoms: O_21  and  C_22
REMARK   11  A    between atoms: C_22  and  C_24
REMARK   12  A    between atoms: C_24  and  N_25
REMARK                            x       y       z     vdW  Elec       q    Type
REMARK                         _______ _______ _______ _____ _____    ______ ____
ROOT
ATOM      1  P   UNL     1     -35.620  22.359   1.740  0.00  0.00    +0.358 P 
ATOM      2  O   UNL     1     -34.548  23.417   1.694  0.00  0.00    -0.256 OA
ENDROOT
BRANCH   1   3
ATOM      3  N   UNL     1     -37.184  22.824   1.452  0.00  0.00    -0.215 NA
ATOM      4  H   UNL     1     -37.167  23.432   0.634  0.00  0.00    +0.134 HD
BRANCH   3   5
ATOM      5  C   UNL     1     -38.194  21.808   1.206  0.00  0.00    +0.162 C 
ATOM      6  C   UNL     1     -39.417  22.078   2.074  0.00  0.00    +0.030 C 
BRANCH   5   8
ATOM      7  O   UNL     1     -39.233  22.726  -0.802  0.00  0.00    -0.249 OA
ATOM      8  C   UNL     1     -38.562  21.854  -0.266  0.00  0.00    +0.332 C 
BRANCH   8   9
ATOM      9  O   UNL     1     -38.019  20.770  -0.898  0.00  0.00    -0.451 OA
BRANCH   9  10
ATOM     10  C   UNL     1     -38.589  19.503  -0.552  0.00  0.00    +0.169 C 
ATOM     11  C   UNL     1     -39.530  19.059  -1.661  0.00  0.00    +0.047 C 
ATOM     12  C   UNL     1     -37.472  18.498  -0.320  0.00  0.00    +0.047 C 
ENDBRANCH   9  10
ENDBRANCH   8   9
ENDBRANCH   5   8
ENDBRANCH   3   5
ENDBRANCH   1   3
BRANCH   1  13
ATOM     13  O   UNL     1     -35.293  21.097   0.776  0.00  0.00    -0.429 OA
BRANCH  13  14
ATOM     14  C   UNL     1     -34.092  20.445   0.715  0.00  0.00    +0.146 C 
ATOM     15  C   UNL     1     -33.938  19.219   1.353  0.00  0.00    +0.037 C 
ATOM     16  C   UNL     1     -33.032  21.017   0.016  0.00  0.00    +0.037 C 
ATOM     17  C   UNL     1     -32.713  18.556   1.291  0.00  0.00    +0.003 C 
ATOM     18  C   UNL     1     -31.807  20.353  -0.046  0.00  0.00    +0.003 C 
ATOM     19  C   UNL     1     -31.647  19.123   0.592  0.00  0.00    +0.000 C 
ENDBRANCH  13  14
ENDBRANCH   1  13
BRANCH   1  20
ATOM     20  C   UNL     1     -35.625  21.557   3.352  0.00  0.00    +0.258 C 
BRANCH  20  21
ATOM     21  O   UNL     1     -36.288  22.462   4.227  0.00  0.00    -0.343 OA
BRANCH  21  22
ATOM     22  C   UNL     1     -35.383  23.053   5.149  0.00  0.00    +0.136 C 
ATOM     23  C   UNL     1     -35.350  22.166   6.386  0.00  0.00    +0.034 C 
BRANCH  22  24
ATOM     24  C   UNL     1     -35.850  24.467   5.504  0.00  0.00    +0.123 C 
BRANCH  24  25
ATOM     25  N   UNL     1     -35.728  25.400   4.385  0.00  0.00    -0.269 N 
ATOM     26  N   UNL     1     -34.791  26.822   2.975  0.00  0.00    -0.242 NA
ATOM     27  N   UNL     1     -38.000  25.366   3.534  0.00  0.00    -0.228 NA
ATOM     28  N   UNL     1     -38.225  26.840   1.602  0.00  0.00    -0.229 NA
ATOM     29  C   UNL     1     -36.719  25.766   3.537  0.00  0.00    +0.151 C 
ATOM     30  C   UNL     1     -34.592  26.048   4.021  0.00  0.00    +0.221 C 
ATOM     31  C   UNL     1     -36.116  26.654   2.661  0.00  0.00    +0.140 C 
ATOM     32  C   UNL     1     -36.921  27.198   1.664  0.00  0.00    +0.143 C 
ATOM     33  C   UNL     1     -38.677  25.959   2.526  0.00  0.00    +0.253 C 
ATOM     34  N   UNL     1     -36.392  28.107   0.731  0.00  0.00    -0.342 N 
ATOM     35  H   UNL     1     -36.970  28.485   0.030  0.00  0.00    +0.144 HD
ATOM     36  H   UNL     1     -35.443  28.366   0.779  0.00  0.00    +0.144 HD
ENDBRANCH  24  25
ENDBRANCH  22  24
ENDBRANCH  21  22
ENDBRANCH  20  21
ENDBRANCH   1  20
TORSDOF 12
ENDMDL
MODEL 9
REMARK VINA RESULT:      -6.2      1.495      2.263
REMARK  Name = 5480370
REMARK  12 active torsions:
REMARK  status: ('A' for Active; 'I' for Inactive)
REMARK    1  A    between atoms: P_1  and  N_3
REMARK    2  A    between atoms: P_1  and  O_13
REMARK    3  A    between atoms: P_1  and  C_20
REMARK    4  A    between atoms: N_3  and  C_5
REMARK    5  A    between atoms: C_5  and  C_8
REMARK    6  A    between atoms: C_8  and  O_9
REMARK    7  A    between atoms: O_9  and  C_10
REMARK    8  A    between atoms: O_13  and  C_14
REMARK    9  A    between atoms: C_20  and  O_21
REMARK   10  A    between atoms: O_21  and  C_22
REMARK   11  A    between atoms: C_22  and  C_24
REMARK   12  A    between atoms: C_24  and  N_25
REMARK                            x       y       z     vdW  Elec       q    Type
REMARK                         _______ _______ _______ _____ _____    ______ ____
ROOT
ATOM      1  P   UNL     1     -34.436  26.101   4.466  0.00  0.00    +0.358 P 
ATOM      2  O   UNL     1     -35.263  26.602   5.622  0.00  0.00    -0.256 OA
ENDROOT
BRANCH   1   3
ATOM      3  N   UNL     1     -35.037  26.302   2.936  0.00  0.00    -0.215 NA
ATOM      4  H   UNL     1     -35.252  27.294   2.829  0.00  0.00    +0.134 HD
BRANCH   3   5
ATOM      5  C   UNL     1     -34.222  25.918   1.795  0.00  0.00    +0.162 C 
ATOM      6  C   UNL     1     -34.963  24.883   0.959  0.00  0.00    +0.030 C 
BRANCH   5   8
ATOM      7  O   UNL     1     -34.769  27.803   0.346  0.00  0.00    -0.249 OA
ATOM      8  C   UNL     1     -33.937  27.164   0.977  0.00  0.00    +0.332 C 
BRANCH   8   9
ATOM      9  O   UNL     1     -32.605  27.462   1.062  0.00  0.00    -0.451 OA
BRANCH   9  10
ATOM     10  C   UNL     1     -31.723  26.337   1.133  0.00  0.00    +0.169 C 
ATOM     11  C   UNL     1     -31.275  25.963  -0.271  0.00  0.00    +0.047 C 
ATOM     12  C   UNL     1     -30.545  26.680   2.032  0.00  0.00    +0.047 C 
ENDBRANCH   9  10
ENDBRANCH   8   9
ENDBRANCH   5   8
ENDBRANCH   3   5
ENDBRANCH   1   3
BRANCH   1  13
ATOM     13  O   UNL     1     -32.923  26.682   4.485  0.00  0.00    -0.429 OA
BRANCH  13  14
ATOM     14  C   UNL     1     -32.554  27.898   4.992  0.00  0.00    +0.146 C 
ATOM     15  C   UNL     1     -32.605  29.028   4.183  0.00  0.00    +0.037 C 
ATOM     16  C   UNL     1     -32.129  27.993   6.314  0.00  0.00    +0.037 C 
ATOM     17  C   UNL     1     -32.228  30.267   4.701  0.00  0.00    +0.003 C 
ATOM     18  C   UNL     1     -31.751  29.233   6.832  0.00  0.00    +0.003 C 
ATOM     19  C   UNL     1     -31.801  30.369   6.025  0.00  0.00    +0.000 C 
ENDBRANCH  13  14
ENDBRANCH   1  13
BRANCH   1  20
ATOM     20  C   UNL     1     -34.121  24.339   4.654  0.00  0.00    +0.258 C 
BRANCH  20  21
ATOM     21  O   UNL     1     -35.054  23.885   5.627  0.00  0.00    -0.343 OA
BRANCH  21  22
ATOM     22  C   UNL     1     -35.687  22.679   5.219  0.00  0.00    +0.136 C 
ATOM     23  C   UNL     1     -35.073  21.547   6.031  0.00  0.00    +0.034 C 
BRANCH  22  24
ATOM     24  C   UNL     1     -35.467  22.457   3.720  0.00  0.00    +0.123 C 
BRANCH  24  25
ATOM     25  N   UNL     1     -36.721  22.341   2.977  0.00  0.00    -0.269 N 
ATOM     26  N   UNL     1     -38.272  21.463   1.668  0.00  0.00    -0.242 NA
ATOM     27  N   UNL     1     -37.760  24.462   3.532  0.00  0.00    -0.228 NA
ATOM     28  N   UNL     1     -39.940  24.669   2.455  0.00  0.00    -0.229 NA
ATOM     29  C   UNL     1     -37.710  23.265   2.927  0.00  0.00    +0.151 C 
ATOM     30  C   UNL     1     -37.088  21.279   2.214  0.00  0.00    +0.221 C 
ATOM     31  C   UNL     1     -38.672  22.700   2.106  0.00  0.00    +0.140 C 
ATOM     32  C   UNL     1     -39.822  23.450   1.877  0.00  0.00    +0.143 C 
ATOM     33  C   UNL     1     -38.917  25.093   3.236  0.00  0.00    +0.253 C 
ATOM     34  N   UNL     1     -40.851  22.954   1.057  0.00  0.00    -0.342 N 
ATOM     35  H   UNL     1     -41.660  23.493   0.902  0.00  0.00    +0.144 HD
ATOM     36  H   UNL     1     -40.762  22.067   0.638  0.00  0.00    +0.144 HD
ENDBRANCH  24  25
ENDBRANCH  22  24
ENDBRANCH  21  22
ENDBRANCH  20  21
ENDBRANCH   1  20
TORSDOF 12
ENDMDL
