MODEL 1
REMARK VINA RESULT:      -7.5      0.000      0.000
REMARK  Name = 5280379
REMARK  4 active torsions:
REMARK  status: ('A' for Active; 'I' for Inactive)
REMARK    1  A    between atoms: C_7  and  C_26
REMARK    2  A    between atoms: C_10  and  O_21
REMARK    3  A    between atoms: C_15  and  O_23
REMARK    4  A    between atoms: C_26  and  O_27
REMARK                            x       y       z     vdW  Elec       q    Type
REMARK                         _______ _______ _______ _____ _____    ______ ____
ROOT
ATOM      1  O   UNL     1     -36.393  24.038   1.664  0.00  0.00    -0.456 OA
ATOM      2  O   UNL     1     -35.713  22.522   0.070  0.00  0.00    -0.250 OA
ATOM      3  C   UNL     1     -35.173  24.064   4.345  0.00  0.00    +0.020 C 
ATOM      4  C   UNL     1     -37.118  23.946   2.901  0.00  0.00    +0.137 C 
ATOM      5  C   UNL     1     -36.509  24.802   4.012  0.00  0.00    +0.038 C 
ATOM      6  C   UNL     1     -36.856  22.524   3.382  0.00  0.00    +0.060 C 
ATOM      7  C   UNL     1     -35.477  22.568   4.093  0.00  0.00    +0.103 C 
ATOM      8  C   UNL     1     -36.982  21.798   2.042  0.00  0.00    +0.118 C 
ATOM      9  C   UNL     1     -33.999  24.546   3.472  0.00  0.00    +0.032 C 
ATOM     10  C   UNL     1     -33.854  25.987   3.941  0.00  0.00    +0.103 C 
ATOM     11  C   UNL     1     -34.653  24.493   5.735  0.00  0.00    +0.025 C 
ATOM     12  C   UNL     1     -36.387  26.307   3.727  0.00  0.00    +0.006 C 
ATOM     13  C   UNL     1     -38.614  24.139   2.625  0.00  0.00    +0.043 C 
ATOM     14  C   UNL     1     -34.995  26.805   3.325  0.00  0.00    +0.031 C 
ATOM     15  C   UNL     1     -38.478  21.767   1.614  0.00  0.00    +0.121 C 
ATOM     16  C   UNL     1     -33.987  25.820   5.440  0.00  0.00    -0.020 C 
ATOM     17  C   UNL     1     -39.113  23.173   1.535  0.00  0.00    +0.033 C 
ATOM     18  C   UNL     1     -36.269  22.777   1.126  0.00  0.00    +0.318 C 
ATOM     19  C   UNL     1     -36.345  20.413   2.034  0.00  0.00    +0.014 C 
ATOM     20  C   UNL     1     -33.578  26.686   6.375  0.00  0.00    -0.007 C 
ENDROOT
BRANCH  10  21
ATOM     21  O   UNL     1     -32.596  26.519   3.571  0.00  0.00    -0.383 OA
ATOM     22  H   UNL     1     -32.294  27.138   4.253  0.00  0.00    +0.211 HD
ENDBRANCH  10  21
BRANCH  15  23
ATOM     23  O   UNL     1     -39.246  21.000   2.542  0.00  0.00    -0.384 OA
ATOM     24  H   UNL     1     -38.651  20.459   3.085  0.00  0.00    +0.210 HD
ENDBRANCH  15  23
BRANCH   7  26
ATOM     25  O   UNL     1     -36.185  22.106   6.358  0.00  0.00    -0.250 OA
ATOM     26  C   UNL     1     -35.562  21.772   5.361  0.00  0.00    +0.313 C 
BRANCH  26  27
ATOM     27  O   UNL     1     -34.848  20.625   5.254  0.00  0.00    -0.480 OA
ATOM     28  H   UNL     1     -34.416  20.270   6.006  0.00  0.00    +0.295 HD
ENDBRANCH  26  27
ENDBRANCH   7  26
TORSDOF 4
ENDMDL
MODEL 2
REMARK VINA RESULT:      -6.6      2.344      5.016
REMARK  Name = 5280379
REMARK  4 active torsions:
REMARK  status: ('A' for Active; 'I' for Inactive)
REMARK    1  A    between atoms: C_7  and  C_26
REMARK    2  A    between atoms: C_10  and  O_21
REMARK    3  A    between atoms: C_15  and  O_23
REMARK    4  A    between atoms: C_26  and  O_27
REMARK                            x       y       z     vdW  Elec       q    Type
REMARK                         _______ _______ _______ _____ _____    ______ ____
ROOT
ATOM      1  O   UNL     1     -38.395  23.126   0.466  0.00  0.00    -0.456 OA
ATOM      2  O   UNL     1     -40.542  23.308   1.276  0.00  0.00    -0.250 OA
ATOM      3  C   UNL     1     -36.258  21.928   2.102  0.00  0.00    +0.020 C 
ATOM      4  C   UNL     1     -37.141  23.756   0.776  0.00  0.00    +0.137 C 
ATOM      5  C   UNL     1     -35.974  22.770   0.818  0.00  0.00    +0.038 C 
ATOM      6  C   UNL     1     -37.286  24.176   2.235  0.00  0.00    +0.060 C 
ATOM      7  C   UNL     1     -36.956  22.912   3.071  0.00  0.00    +0.103 C 
ATOM      8  C   UNL     1     -38.727  24.686   2.188  0.00  0.00    +0.118 C 
ATOM      9  C   UNL     1     -37.148  20.703   1.821  0.00  0.00    +0.032 C 
ATOM     10  C   UNL     1     -36.237  19.875   0.924  0.00  0.00    +0.103 C 
ATOM     11  C   UNL     1     -34.972  21.210   2.571  0.00  0.00    +0.025 C 
ATOM     12  C   UNL     1     -35.713  21.964  -0.465  0.00  0.00    +0.006 C 
ATOM     13  C   UNL     1     -36.966  24.994  -0.112  0.00  0.00    +0.043 C 
ATOM     14  C   UNL     1     -36.225  20.520  -0.467  0.00  0.00    +0.031 C 
ATOM     15  C   UNL     1     -38.770  26.035   1.414  0.00  0.00    +0.121 C 
ATOM     16  C   UNL     1     -34.914  20.009   1.650  0.00  0.00    -0.020 C 
ATOM     17  C   UNL     1     -38.181  25.935  -0.010  0.00  0.00    +0.033 C 
ATOM     18  C   UNL     1     -39.367  23.634   1.299  0.00  0.00    +0.318 C 
ATOM     19  C   UNL     1     -39.388  24.779   3.559  0.00  0.00    +0.014 C 
ATOM     20  C   UNL     1     -33.855  19.202   1.525  0.00  0.00    -0.007 C 
ENDROOT
BRANCH  10  21
ATOM     21  O   UNL     1     -36.675  18.532   0.854  0.00  0.00    -0.383 OA
ATOM     22  H   UNL     1     -36.972  18.336  -0.048  0.00  0.00    +0.211 HD
ENDBRANCH  10  21
BRANCH  15  23
ATOM     23  O   UNL     1     -38.030  27.035   2.116  0.00  0.00    -0.384 OA
ATOM     24  H   UNL     1     -38.533  27.324   2.894  0.00  0.00    +0.210 HD
ENDBRANCH  15  23
BRANCH   7  26
ATOM     25  O   UNL     1     -35.219  24.175   4.182  0.00  0.00    -0.250 OA
ATOM     26  C   UNL     1     -36.082  23.310   4.222  0.00  0.00    +0.313 C 
BRANCH  26  27
ATOM     27  O   UNL     1     -36.375  22.575   5.322  0.00  0.00    -0.480 OA
ATOM     28  H   UNL     1     -36.991  22.896   5.951  0.00  0.00    +0.295 HD
ENDBRANCH  26  27
ENDBRANCH   7  26
TORSDOF 4
ENDMDL
MODEL 3
REMARK VINA RESULT:      -6.6      1.851      3.587
REMARK  Name = 5280379
REMARK  4 active torsions:
REMARK  status: ('A' for Active; 'I' for Inactive)
REMARK    1  A    between atoms: C_7  and  C_26
REMARK    2  A    between atoms: C_10  and  O_21
REMARK    3  A    between atoms: C_15  and  O_23
REMARK    4  A    between atoms: C_26  and  O_27
REMARK                            x       y       z     vdW  Elec       q    Type
REMARK                         _______ _______ _______ _____ _____    ______ ____
ROOT
ATOM      1  O   UNL     1     -37.208  22.563   2.935  0.00  0.00    -0.456 OA
ATOM      2  O   UNL     1     -39.026  22.761   1.537  0.00  0.00    -0.250 OA
ATOM      3  C   UNL     1     -35.085  24.605   2.954  0.00  0.00    +0.020 C 
ATOM      4  C   UNL     1     -35.809  22.301   2.742  0.00  0.00    +0.137 C 
ATOM      5  C   UNL     1     -34.912  23.193   3.599  0.00  0.00    +0.038 C 
ATOM      6  C   UNL     1     -35.529  22.792   1.326  0.00  0.00    +0.060 C 
ATOM      7  C   UNL     1     -35.313  24.324   1.449  0.00  0.00    +0.103 C 
ATOM      8  C   UNL     1     -36.793  22.269   0.644  0.00  0.00    +0.118 C 
ATOM      9  C   UNL     1     -36.266  25.389   3.556  0.00  0.00    +0.032 C 
ATOM     10  C   UNL     1     -35.785  25.596   4.986  0.00  0.00    +0.103 C 
ATOM     11  C   UNL     1     -33.921  25.533   3.369  0.00  0.00    +0.025 C 
ATOM     12  C   UNL     1     -35.129  23.123   5.119  0.00  0.00    +0.006 C 
ATOM     13  C   UNL     1     -35.562  20.789   2.830  0.00  0.00    +0.043 C 
ATOM     14  C   UNL     1     -35.938  24.268   5.737  0.00  0.00    +0.031 C 
ATOM     15  C   UNL     1     -36.704  20.720   0.515  0.00  0.00    +0.121 C 
ATOM     16  C   UNL     1     -34.339  25.982   4.753  0.00  0.00    -0.020 C 
ATOM     17  C   UNL     1     -36.483  20.013   1.870  0.00  0.00    +0.033 C 
ATOM     18  C   UNL     1     -37.833  22.575   1.708  0.00  0.00    +0.318 C 
ATOM     19  C   UNL     1     -37.096  22.947  -0.687  0.00  0.00    +0.014 C 
ATOM     20  C   UNL     1     -33.541  26.628   5.611  0.00  0.00    -0.007 C 
ENDROOT
BRANCH  10  21
ATOM     21  O   UNL     1     -36.517  26.625   5.625  0.00  0.00    -0.383 OA
ATOM     22  H   UNL     1     -37.460  26.401   5.620  0.00  0.00    +0.211 HD
ENDBRANCH  10  21
BRANCH  15  23
ATOM     23  O   UNL     1     -35.622  20.354  -0.343  0.00  0.00    -0.384 OA
ATOM     24  H   UNL     1     -35.974  20.052  -1.195  0.00  0.00    +0.210 HD
ENDBRANCH  15  23
BRANCH   7  26
ATOM     25  O   UNL     1     -33.948  25.829   0.139  0.00  0.00    -0.250 OA
ATOM     26  C   UNL     1     -34.139  24.715   0.602  0.00  0.00    +0.313 C 
BRANCH  26  27
ATOM     27  O   UNL     1     -33.312  23.657   0.413  0.00  0.00    -0.480 OA
ATOM     28  H   UNL     1     -33.466  22.854   0.870  0.00  0.00    +0.295 HD
ENDBRANCH  26  27
ENDBRANCH   7  26
TORSDOF 4
ENDMDL
MODEL 4
REMARK VINA RESULT:      -6.6      1.835      5.564
REMARK  Name = 5280379
REMARK  4 active torsions:
REMARK  status: ('A' for Active; 'I' for Inactive)
REMARK    1  A    between atoms: C_7  and  C_26
REMARK    2  A    between atoms: C_10  and  O_21
REMARK    3  A    between atoms: C_15  and  O_23
REMARK    4  A    between atoms: C_26  and  O_27
REMARK                            x       y       z     vdW  Elec       q    Type
REMARK                         _______ _______ _______ _____ _____    ______ ____
ROOT
ATOM      1  O   UNL     1     -34.438  23.898   2.990  0.00  0.00    -0.456 OA
ATOM      2  O   UNL     1     -33.614  25.895   2.194  0.00  0.00    -0.250 OA
ATOM      3  C   UNL     1     -36.794  22.634   1.753  0.00  0.00    +0.020 C 
ATOM      4  C   UNL     1     -35.627  23.504   3.693  0.00  0.00    +0.137 C 
ATOM      5  C   UNL     1     -36.238  22.213   3.151  0.00  0.00    +0.038 C 
ATOM      6  C   UNL     1     -36.657  24.560   3.304  0.00  0.00    +0.060 C 
ATOM      7  C   UNL     1     -37.218  24.112   1.928  0.00  0.00    +0.103 C 
ATOM      8  C   UNL     1     -35.761  25.797   3.378  0.00  0.00    +0.118 C 
ATOM      9  C   UNL     1     -35.747  22.487   0.633  0.00  0.00    +0.032 C 
ATOM     10  C   UNL     1     -35.549  20.977   0.610  0.00  0.00    +0.103 C 
ATOM     11  C   UNL     1     -37.843  21.613   1.260  0.00  0.00    +0.025 C 
ATOM     12  C   UNL     1     -35.333  20.970   3.163  0.00  0.00    +0.006 C 
ATOM     13  C   UNL     1     -35.363  23.561   5.202  0.00  0.00    +0.043 C 
ATOM     14  C   UNL     1     -34.695  20.590   1.824  0.00  0.00    +0.031 C 
ATOM     15  C   UNL     1     -35.455  26.120   4.870  0.00  0.00    +0.121 C 
ATOM     16  C   UNL     1     -36.981  20.494   0.715  0.00  0.00    -0.020 C 
ATOM     17  C   UNL     1     -34.812  24.937   5.625  0.00  0.00    +0.033 C 
ATOM     18  C   UNL     1     -34.484  25.255   2.761  0.00  0.00    +0.318 C 
ATOM     19  C   UNL     1     -36.316  27.000   2.624  0.00  0.00    +0.014 C 
ATOM     20  C   UNL     1     -37.438  19.284   0.375  0.00  0.00    -0.007 C 
ENDROOT
BRANCH  10  21
ATOM     21  O   UNL     1     -34.932  20.563  -0.594  0.00  0.00    -0.383 OA
ATOM     22  H   UNL     1     -35.368  19.761  -0.921  0.00  0.00    +0.211 HD
ENDBRANCH  10  21
BRANCH  15  23
ATOM     23  O   UNL     1     -36.655  26.471   5.560  0.00  0.00    -0.384 OA
ATOM     24  H   UNL     1     -36.740  27.437   5.592  0.00  0.00    +0.210 HD
ENDBRANCH  15  23
BRANCH   7  26
ATOM     25  O   UNL     1     -39.390  24.511   0.944  0.00  0.00    -0.250 OA
ATOM     26  C   UNL     1     -38.706  24.291   1.933  0.00  0.00    +0.313 C 
BRANCH  26  27
ATOM     27  O   UNL     1     -39.198  24.180   3.192  0.00  0.00    -0.480 OA
ATOM     28  H   UNL     1     -40.120  24.241   3.342  0.00  0.00    +0.295 HD
ENDBRANCH  26  27
ENDBRANCH   7  26
TORSDOF 4
ENDMDL
MODEL 5
REMARK VINA RESULT:      -6.5      1.511      5.263
REMARK  Name = 5280379
REMARK  4 active torsions:
REMARK  status: ('A' for Active; 'I' for Inactive)
REMARK    1  A    between atoms: C_7  and  C_26
REMARK    2  A    between atoms: C_10  and  O_21
REMARK    3  A    between atoms: C_15  and  O_23
REMARK    4  A    between atoms: C_26  and  O_27
REMARK                            x       y       z     vdW  Elec       q    Type
REMARK                         _______ _______ _______ _____ _____    ______ ____
ROOT
ATOM      1  O   UNL     1     -35.994  25.194   2.036  0.00  0.00    -0.456 OA
ATOM      2  O   UNL     1     -37.401  26.697   3.065  0.00  0.00    -0.250 OA
ATOM      3  C   UNL     1     -35.933  22.367   2.863  0.00  0.00    +0.020 C 
ATOM      4  C   UNL     1     -34.815  24.476   2.435  0.00  0.00    +0.137 C 
ATOM      5  C   UNL     1     -34.823  23.017   1.978  0.00  0.00    +0.038 C 
ATOM      6  C   UNL     1     -34.944  24.360   3.950  0.00  0.00    +0.060 C 
ATOM      7  C   UNL     1     -35.875  23.144   4.200  0.00  0.00    +0.103 C 
ATOM      8  C   UNL     1     -35.461  25.769   4.248  0.00  0.00    +0.118 C 
ATOM      9  C   UNL     1     -37.331  22.467   2.225  0.00  0.00    +0.032 C 
ATOM     10  C   UNL     1     -37.157  21.589   0.993  0.00  0.00    +0.103 C 
ATOM     11  C   UNL     1     -35.771  20.830   2.889  0.00  0.00    +0.025 C 
ATOM     12  C   UNL     1     -34.948  22.775   0.466  0.00  0.00    +0.006 C 
ATOM     13  C   UNL     1     -33.575  25.304   2.077  0.00  0.00    +0.043 C 
ATOM     14  C   UNL     1     -36.338  22.374  -0.038  0.00  0.00    +0.031 C 
ATOM     15  C   UNL     1     -34.302  26.791   4.058  0.00  0.00    +0.121 C 
ATOM     16  C   UNL     1     -36.402  20.413   1.578  0.00  0.00    -0.020 C 
ATOM     17  C   UNL     1     -33.665  26.729   2.653  0.00  0.00    +0.033 C 
ATOM     18  C   UNL     1     -36.427  25.962   3.093  0.00  0.00    +0.318 C 
ATOM     19  C   UNL     1     -36.135  25.899   5.608  0.00  0.00    +0.014 C 
ATOM     20  C   UNL     1     -36.305  19.189   1.048  0.00  0.00    -0.007 C 
ENDROOT
BRANCH  10  21
ATOM     21  O   UNL     1     -38.410  21.208   0.458  0.00  0.00    -0.383 OA
ATOM     22  H   UNL     1     -38.352  20.304   0.112  0.00  0.00    +0.211 HD
ENDBRANCH  10  21
BRANCH  15  23
ATOM     23  O   UNL     1     -33.265  26.550   5.011  0.00  0.00    -0.384 OA
ATOM     24  H   UNL     1     -32.495  27.101   4.798  0.00  0.00    +0.210 HD
ENDBRANCH  15  23
BRANCH   7  26
ATOM     25  O   UNL     1     -34.126  22.045   5.458  0.00  0.00    -0.250 OA
ATOM     26  C   UNL     1     -35.308  22.326   5.322  0.00  0.00    +0.313 C 
BRANCH  26  27
ATOM     27  O   UNL     1     -36.289  21.933   6.170  0.00  0.00    -0.480 OA
ATOM     28  H   UNL     1     -36.326  22.283   7.039  0.00  0.00    +0.295 HD
ENDBRANCH  26  27
ENDBRANCH   7  26
TORSDOF 4
ENDMDL
MODEL 6
REMARK VINA RESULT:      -6.4      1.867      2.721
REMARK  Name = 5280379
REMARK  4 active torsions:
REMARK  status: ('A' for Active; 'I' for Inactive)
REMARK    1  A    between atoms: C_7  and  C_26
REMARK    2  A    between atoms: C_10  and  O_21
REMARK    3  A    between atoms: C_15  and  O_23
REMARK    4  A    between atoms: C_26  and  O_27
REMARK                            x       y       z     vdW  Elec       q    Type
REMARK                         _______ _______ _______ _____ _____    ______ ____
ROOT
ATOM      1  O   UNL     1     -37.969  23.693   0.350  0.00  0.00    -0.456 OA
ATOM      2  O   UNL     1     -37.309  23.428  -1.839  0.00  0.00    -0.250 OA
ATOM      3  C   UNL     1     -36.239  22.817   2.568  0.00  0.00    +0.020 C 
ATOM      4  C   UNL     1     -38.364  22.796   1.402  0.00  0.00    +0.137 C 
ATOM      5  C   UNL     1     -37.752  23.158   2.754  0.00  0.00    +0.038 C 
ATOM      6  C   UNL     1     -37.672  21.484   1.052  0.00  0.00    +0.060 C 
ATOM      7  C   UNL     1     -36.224  21.616   1.593  0.00  0.00    +0.103 C 
ATOM      8  C   UNL     1     -37.909  21.490  -0.459  0.00  0.00    +0.118 C 
ATOM      9  C   UNL     1     -35.432  24.001   2.002  0.00  0.00    +0.032 C 
ATOM     10  C   UNL     1     -35.537  25.003   3.143  0.00  0.00    +0.103 C 
ATOM     11  C   UNL     1     -35.547  22.668   3.942  0.00  0.00    +0.025 C 
ATOM     12  C   UNL     1     -38.058  24.566   3.289  0.00  0.00    +0.006 C 
ATOM     13  C   UNL     1     -39.887  22.613   1.362  0.00  0.00    +0.043 C 
ATOM     14  C   UNL     1     -36.947  25.607   3.118  0.00  0.00    +0.031 C 
ATOM     15  C   UNL     1     -39.411  21.197  -0.744  0.00  0.00    +0.121 C 
ATOM     16  C   UNL     1     -35.298  24.107   4.341  0.00  0.00    -0.020 C 
ATOM     17  C   UNL     1     -40.365  22.185  -0.038  0.00  0.00    +0.033 C 
ATOM     18  C   UNL     1     -37.667  22.956  -0.773  0.00  0.00    +0.318 C 
ATOM     19  C   UNL     1     -36.977  20.561  -1.228  0.00  0.00    +0.014 C 
ATOM     20  C   UNL     1     -34.915  24.498   5.562  0.00  0.00    -0.007 C 
ENDROOT
BRANCH  10  21
ATOM     21  O   UNL     1     -34.553  26.013   3.026  0.00  0.00    -0.383 OA
ATOM     22  H   UNL     1     -33.763  25.646   2.601  0.00  0.00    +0.211 HD
ENDBRANCH  10  21
BRANCH  15  23
ATOM     23  O   UNL     1     -39.753  19.881  -0.306  0.00  0.00    -0.384 OA
ATOM     24  H   UNL     1     -38.944  19.358  -0.192  0.00  0.00    +0.210 HD
ENDBRANCH  15  23
BRANCH   7  26
ATOM     25  O   UNL     1     -34.695  19.921   2.389  0.00  0.00    -0.250 OA
ATOM     26  C   UNL     1     -35.839  20.331   2.262  0.00  0.00    +0.313 C 
BRANCH  26  27
ATOM     27  O   UNL     1     -36.939  19.675   2.707  0.00  0.00    -0.480 OA
ATOM     28  H   UNL     1     -37.740  19.721   2.223  0.00  0.00    +0.295 HD
ENDBRANCH  26  27
ENDBRANCH   7  26
TORSDOF 4
ENDMDL
MODEL 7
REMARK VINA RESULT:      -6.4      2.171      5.135
REMARK  Name = 5280379
REMARK  4 active torsions:
REMARK  status: ('A' for Active; 'I' for Inactive)
REMARK    1  A    between atoms: C_7  and  C_26
REMARK    2  A    between atoms: C_10  and  O_21
REMARK    3  A    between atoms: C_15  and  O_23
REMARK    4  A    between atoms: C_26  and  O_27
REMARK                            x       y       z     vdW  Elec       q    Type
REMARK                         _______ _______ _______ _____ _____    ______ ____
ROOT
ATOM      1  O   UNL     1     -34.636  23.702   2.579  0.00  0.00    -0.456 OA
ATOM      2  O   UNL     1     -33.427  25.058   3.993  0.00  0.00    -0.250 OA
ATOM      3  C   UNL     1     -37.189  24.613   1.426  0.00  0.00    +0.020 C 
ATOM      4  C   UNL     1     -35.884  22.997   2.676  0.00  0.00    +0.137 C 
ATOM      5  C   UNL     1     -36.737  23.118   1.414  0.00  0.00    +0.038 C 
ATOM      6  C   UNL     1     -36.681  23.791   3.706  0.00  0.00    +0.060 C 
ATOM      7  C   UNL     1     -37.312  24.974   2.925  0.00  0.00    +0.103 C 
ATOM      8  C   UNL     1     -35.558  24.070   4.705  0.00  0.00    +0.118 C 
ATOM      9  C   UNL     1     -36.186  25.540   0.713  0.00  0.00    +0.032 C 
ATOM     10  C   UNL     1     -36.292  25.042  -0.722  0.00  0.00    +0.103 C 
ATOM     11  C   UNL     1     -38.418  24.811   0.510  0.00  0.00    +0.025 C 
ATOM     12  C   UNL     1     -36.097  22.625   0.106  0.00  0.00    +0.006 C 
ATOM     13  C   UNL     1     -35.622  21.578   3.197  0.00  0.00    +0.043 C 
ATOM     14  C   UNL     1     -35.539  23.710  -0.821  0.00  0.00    +0.031 C 
ATOM     15  C   UNL     1     -35.202  22.754   5.457  0.00  0.00    +0.121 C 
ATOM     16  C   UNL     1     -37.792  24.886  -0.866  0.00  0.00    -0.020 C 
ATOM     17  C   UNL     1     -34.811  21.601   4.507  0.00  0.00    +0.033 C 
ATOM     18  C   UNL     1     -34.410  24.375   3.759  0.00  0.00    +0.318 C 
ATOM     19  C   UNL     1     -35.858  25.222   5.657  0.00  0.00    +0.014 C 
ATOM     20  C   UNL     1     -38.478  24.834  -2.013  0.00  0.00    -0.007 C 
ENDROOT
BRANCH  10  21
ATOM     21  O   UNL     1     -35.763  25.989  -1.630  0.00  0.00    -0.383 OA
ATOM     22  H   UNL     1     -34.935  25.650  -2.004  0.00  0.00    +0.211 HD
ENDBRANCH  10  21
BRANCH  15  23
ATOM     23  O   UNL     1     -36.312  22.311   6.238  0.00  0.00    -0.384 OA
ATOM     24  H   UNL     1     -36.210  21.367   6.440  0.00  0.00    +0.210 HD
ENDBRANCH  15  23
BRANCH   7  26
ATOM     25  O   UNL     1     -39.493  24.223   3.649  0.00  0.00    -0.250 OA
ATOM     26  C   UNL     1     -38.735  25.139   3.368  0.00  0.00    +0.313 C 
BRANCH  26  27
ATOM     27  O   UNL     1     -39.074  26.451   3.409  0.00  0.00    -0.480 OA
ATOM     28  H   UNL     1     -39.656  26.805   2.767  0.00  0.00    +0.295 HD
ENDBRANCH  26  27
ENDBRANCH   7  26
TORSDOF 4
ENDMDL
MODEL 8
REMARK VINA RESULT:      -6.3      2.802      6.398
REMARK  Name = 5280379
REMARK  4 active torsions:
REMARK  status: ('A' for Active; 'I' for Inactive)
REMARK    1  A    between atoms: C_7  and  C_26
REMARK    2  A    between atoms: C_10  and  O_21
REMARK    3  A    between atoms: C_15  and  O_23
REMARK    4  A    between atoms: C_26  and  O_27
REMARK                            x       y       z     vdW  Elec       q    Type
REMARK                         _______ _______ _______ _____ _____    ______ ____
ROOT
ATOM      1  O   UNL     1     -34.438  27.689   2.101  0.00  0.00    -0.456 OA
ATOM      2  O   UNL     1     -35.145  29.879   2.115  0.00  0.00    -0.250 OA
ATOM      3  C   UNL     1     -34.175  26.168   4.611  0.00  0.00    +0.020 C 
ATOM      4  C   UNL     1     -33.248  27.008   2.533  0.00  0.00    +0.137 C 
ATOM      5  C   UNL     1     -33.544  25.698   3.262  0.00  0.00    +0.038 C 
ATOM      6  C   UNL     1     -32.692  27.897   3.640  0.00  0.00    +0.060 C 
ATOM      7  C   UNL     1     -33.479  27.515   4.921  0.00  0.00    +0.103 C 
ATOM      8  C   UNL     1     -32.938  29.259   2.991  0.00  0.00    +0.118 C 
ATOM      9  C   UNL     1     -35.703  26.342   4.519  0.00  0.00    +0.032 C 
ATOM     10  C   UNL     1     -36.150  24.906   4.282  0.00  0.00    +0.103 C 
ATOM     11  C   UNL     1     -34.107  25.037   5.661  0.00  0.00    +0.025 C 
ATOM     12  C   UNL     1     -34.348  24.646   2.480  0.00  0.00    +0.006 C 
ATOM     13  C   UNL     1     -32.255  26.939   1.367  0.00  0.00    +0.043 C 
ATOM     14  C   UNL     1     -35.837  24.544   2.826  0.00  0.00    +0.031 C 
ATOM     15  C   UNL     1     -31.930  29.460   1.821  0.00  0.00    +0.121 C 
ATOM     16  C   UNL     1     -35.283  24.163   5.277  0.00  0.00    -0.020 C 
ATOM     17  C   UNL     1     -31.995  28.333   0.767  0.00  0.00    +0.033 C 
ATOM     18  C   UNL     1     -34.307  29.032   2.374  0.00  0.00    +0.318 C 
ATOM     19  C   UNL     1     -32.922  30.420   3.978  0.00  0.00    +0.014 C 
ATOM     20  C   UNL     1     -35.505  22.937   5.764  0.00  0.00    -0.007 C 
ENDROOT
BRANCH  10  21
ATOM     21  O   UNL     1     -37.530  24.751   4.555  0.00  0.00    -0.383 OA
ATOM     22  H   UNL     1     -37.974  24.386   3.775  0.00  0.00    +0.211 HD
ENDBRANCH  10  21
BRANCH  15  23
ATOM     23  O   UNL     1     -30.592  29.505   2.319  0.00  0.00    -0.384 OA
ATOM     24  H   UNL     1     -30.559  29.090   3.195  0.00  0.00    +0.210 HD
ENDBRANCH  15  23
BRANCH   7  26
ATOM     25  O   UNL     1     -32.831  27.214   7.231  0.00  0.00    -0.250 OA
ATOM     26  C   UNL     1     -32.518  27.420   6.068  0.00  0.00    +0.313 C 
BRANCH  26  27
ATOM     27  O   UNL     1     -31.244  27.598   5.640  0.00  0.00    -0.480 OA
ATOM     28  H   UNL     1     -31.052  27.591   4.723  0.00  0.00    +0.295 HD
ENDBRANCH  26  27
ENDBRANCH   7  26
TORSDOF 4
ENDMDL
MODEL 9
REMARK VINA RESULT:      -6.2      2.116      5.793
REMARK  Name = 5280379
REMARK  4 active torsions:
REMARK  status: ('A' for Active; 'I' for Inactive)
REMARK    1  A    between atoms: C_7  and  C_26
REMARK    2  A    between atoms: C_10  and  O_21
REMARK    3  A    between atoms: C_15  and  O_23
REMARK    4  A    between atoms: C_26  and  O_27
REMARK                            x       y       z     vdW  Elec       q    Type
REMARK                         _______ _______ _______ _____ _____    ______ ____
ROOT
ATOM      1  O   UNL     1     -34.828  23.010   1.875  0.00  0.00    -0.456 OA
ATOM      2  O   UNL     1     -34.913  25.115   0.947  0.00  0.00    -0.250 OA
ATOM      3  C   UNL     1     -36.466  20.813   0.794  0.00  0.00    +0.020 C 
ATOM      4  C   UNL     1     -35.740  22.206   2.641  0.00  0.00    +0.137 C 
ATOM      5  C   UNL     1     -35.769  20.746   2.190  0.00  0.00    +0.038 C 
ATOM      6  C   UNL     1     -37.118  22.717   2.236  0.00  0.00    +0.060 C 
ATOM      7  C   UNL     1     -37.460  21.993   0.907  0.00  0.00    +0.103 C 
ATOM      8  C   UNL     1     -36.813  24.215   2.213  0.00  0.00    +0.118 C 
ATOM      9  C   UNL     1     -35.465  21.040  -0.355  0.00  0.00    +0.032 C 
ATOM     10  C   UNL     1     -34.661  19.748  -0.307  0.00  0.00    +0.103 C 
ATOM     11  C   UNL     1     -37.005  19.421   0.394  0.00  0.00    +0.025 C 
ATOM     12  C   UNL     1     -34.432  19.990   2.234  0.00  0.00    +0.006 C 
ATOM     13  C   UNL     1     -35.504  22.461   4.135  0.00  0.00    +0.043 C 
ATOM     14  C   UNL     1     -33.710  19.823   0.893  0.00  0.00    +0.031 C 
ATOM     15  C   UNL     1     -36.650  24.729   3.673  0.00  0.00    +0.121 C 
ATOM     16  C   UNL     1     -35.765  18.726  -0.124  0.00  0.00    -0.020 C 
ATOM     17  C   UNL     1     -35.566  23.964   4.465  0.00  0.00    +0.033 C 
ATOM     18  C   UNL     1     -35.434  24.210   1.578  0.00  0.00    +0.318 C 
ATOM     19  C   UNL     1     -37.824  25.033   1.418  0.00  0.00    +0.014 C 
ATOM     20  C   UNL     1     -35.684  17.416  -0.384  0.00  0.00    -0.007 C 
ENDROOT
BRANCH  10  21
ATOM     21  O   UNL     1     -33.943  19.550  -1.510  0.00  0.00    -0.383 OA
ATOM     22  H   UNL     1     -33.486  20.370  -1.751  0.00  0.00    +0.211 HD
ENDBRANCH  10  21
BRANCH  15  23
ATOM     23  O   UNL     1     -37.879  24.596   4.388  0.00  0.00    -0.384 OA
ATOM     24  H   UNL     1     -37.726  24.094   5.205  0.00  0.00    +0.210 HD
ENDBRANCH  15  23
BRANCH   7  26
ATOM     25  O   UNL     1     -39.664  21.560   0.013  0.00  0.00    -0.250 OA
ATOM     26  C   UNL     1     -38.890  21.543   0.958  0.00  0.00    +0.313 C 
BRANCH  26  27
ATOM     27  O   UNL     1     -39.214  21.116   2.203  0.00  0.00    -0.480 OA
ATOM     28  H   UNL     1     -40.048  20.722   2.361  0.00  0.00    +0.295 HD
ENDBRANCH  26  27
ENDBRANCH   7  26
TORSDOF 4
ENDMDL
