MODEL 1
REMARK VINA RESULT:      -5.7      0.000      0.000
REMARK  Name = 192538
REMARK  7 active torsions:
REMARK  status: ('A' for Active; 'I' for Inactive)
REMARK    1  A    between atoms: S_1  and  C_4
REMARK    2  A    between atoms: S_1  and  O_13
REMARK    3  A    between atoms: C_9  and  N_12
REMARK    4  A    between atoms: O_13  and  C_14
REMARK    5  A    between atoms: C_14  and  C_15
REMARK    6  A    between atoms: C_15  and  C_18
REMARK    7  A    between atoms: C_15  and  O_19
REMARK                            x       y       z     vdW  Elec       q    Type
REMARK                         _______ _______ _______ _____ _____    ______ ____
ROOT
ATOM      1  S   UNL     1     -37.748  24.457   3.136  0.00  0.00    +0.013 S 
ATOM      2  O   UNL     1     -38.907  24.855   3.913  0.00  0.00    -0.067 OA
ATOM      3  O   UNL     1     -37.648  24.753   1.720  0.00  0.00    -0.067 OA
ENDROOT
BRANCH   1   4
ATOM      4  C   UNL     1     -36.357  25.211   3.921  0.00  0.00    +0.110 C 
ATOM      5  C   UNL     1     -36.013  24.825   5.206  0.00  0.00    +0.020 C 
ATOM      6  C   UNL     1     -35.634  26.176   3.238  0.00  0.00    +0.020 C 
ATOM      7  C   UNL     1     -34.914  25.421   5.825  0.00  0.00    +0.025 C 
ATOM      8  C   UNL     1     -34.535  26.771   3.858  0.00  0.00    +0.025 C 
ATOM      9  C   UNL     1     -34.176  26.394   5.152  0.00  0.00    +0.143 C 
BRANCH   9  12
ATOM     10  O   UNL     1     -32.973  26.969   7.034  0.00  0.00    -0.126 OA
ATOM     11  O   UNL     1     -32.181  27.548   5.071  0.00  0.00    -0.126 OA
ATOM     12  N   UNL     1     -33.056  26.998   5.783  0.00  0.00    +0.058 N 
ENDBRANCH   9  12
ENDBRANCH   1   4
BRANCH   1  13
ATOM     13  O   UNL     1     -37.494  22.857   3.337  0.00  0.00    -0.236 OA
BRANCH  13  14
ATOM     14  C   UNL     1     -37.302  22.045   2.182  0.00  0.00    +0.200 C 
BRANCH  14  15
ATOM     15  C   UNL     1     -36.125  21.079   2.393  0.00  0.00    +0.128 C 
ATOM     16  C   UNL     1     -35.414  21.377   3.722  0.00  0.00    +0.033 C 
BRANCH  15  18
ATOM     17  I   UNL     1     -33.891  19.358   1.051  0.00  0.00    -0.072 I 
ATOM     18  C   UNL     1     -35.083  21.140   1.256  0.00  0.00    +0.092 C 
ENDBRANCH  15  18
BRANCH  15  19
ATOM     19  O   UNL     1     -36.628  19.745   2.503  0.00  0.00    -0.383 OA
ATOM     20  H   UNL     1     -36.467  19.270   1.673  0.00  0.00    +0.210 HD
ENDBRANCH  15  19
ENDBRANCH  14  15
ENDBRANCH  13  14
ENDBRANCH   1  13
TORSDOF 7
ENDMDL
MODEL 2
REMARK VINA RESULT:      -5.7      1.977      2.567
REMARK  Name = 192538
REMARK  7 active torsions:
REMARK  status: ('A' for Active; 'I' for Inactive)
REMARK    1  A    between atoms: S_1  and  C_4
REMARK    2  A    between atoms: S_1  and  O_13
REMARK    3  A    between atoms: C_9  and  N_12
REMARK    4  A    between atoms: O_13  and  C_14
REMARK    5  A    between atoms: C_14  and  C_15
REMARK    6  A    between atoms: C_15  and  C_18
REMARK    7  A    between atoms: C_15  and  O_19
REMARK                            x       y       z     vdW  Elec       q    Type
REMARK                         _______ _______ _______ _____ _____    ______ ____
ROOT
ATOM      1  S   UNL     1     -36.033  23.654   4.583  0.00  0.00    +0.013 S 
ATOM      2  O   UNL     1     -35.933  22.940   5.842  0.00  0.00    -0.067 OA
ATOM      3  O   UNL     1     -37.290  24.218   4.130  0.00  0.00    -0.067 OA
ENDROOT
BRANCH   1   4
ATOM      4  C   UNL     1     -34.877  24.985   4.688  0.00  0.00    +0.110 C 
ATOM      5  C   UNL     1     -34.268  25.446   3.532  0.00  0.00    +0.020 C 
ATOM      6  C   UNL     1     -34.600  25.547   5.924  0.00  0.00    +0.020 C 
ATOM      7  C   UNL     1     -33.355  26.497   3.615  0.00  0.00    +0.025 C 
ATOM      8  C   UNL     1     -33.686  26.598   6.006  0.00  0.00    +0.025 C 
ATOM      9  C   UNL     1     -33.064  27.073   4.852  0.00  0.00    +0.143 C 
BRANCH   9  12
ATOM     10  O   UNL     1     -32.568  29.315   5.063  0.00  0.00    -0.126 OA
ATOM     11  O   UNL     1     -30.908  27.891   4.876  0.00  0.00    -0.126 OA
ATOM     12  N   UNL     1     -32.136  28.144   4.935  0.00  0.00    +0.058 N 
ENDBRANCH   9  12
ENDBRANCH   1   4
BRANCH   1  13
ATOM     13  O   UNL     1     -35.443  22.713   3.387  0.00  0.00    -0.236 OA
BRANCH  13  14
ATOM     14  C   UNL     1     -35.462  21.298   3.556  0.00  0.00    +0.200 C 
BRANCH  14  15
ATOM     15  C   UNL     1     -35.923  20.608   2.262  0.00  0.00    +0.128 C 
ATOM     16  C   UNL     1     -34.735  19.935   1.557  0.00  0.00    +0.033 C 
BRANCH  15  18
ATOM     17  I   UNL     1     -38.730  21.752   1.514  0.00  0.00    -0.072 I 
ATOM     18  C   UNL     1     -36.598  21.576   1.268  0.00  0.00    +0.092 C 
ENDBRANCH  15  18
BRANCH  15  19
ATOM     19  O   UNL     1     -36.835  19.556   2.591  0.00  0.00    -0.383 OA
ATOM     20  H   UNL     1     -36.592  19.175   3.449  0.00  0.00    +0.210 HD
ENDBRANCH  15  19
ENDBRANCH  14  15
ENDBRANCH  13  14
ENDBRANCH   1  13
TORSDOF 7
ENDMDL
MODEL 3
REMARK VINA RESULT:      -5.6      1.587      2.271
REMARK  Name = 192538
REMARK  7 active torsions:
REMARK  status: ('A' for Active; 'I' for Inactive)
REMARK    1  A    between atoms: S_1  and  C_4
REMARK    2  A    between atoms: S_1  and  O_13
REMARK    3  A    between atoms: C_9  and  N_12
REMARK    4  A    between atoms: O_13  and  C_14
REMARK    5  A    between atoms: C_14  and  C_15
REMARK    6  A    between atoms: C_15  and  C_18
REMARK    7  A    between atoms: C_15  and  O_19
REMARK                            x       y       z     vdW  Elec       q    Type
REMARK                         _______ _______ _______ _____ _____    ______ ____
ROOT
ATOM      1  S   UNL     1     -36.074  23.098   4.325  0.00  0.00    +0.013 S 
ATOM      2  O   UNL     1     -35.995  22.402   5.595  0.00  0.00    -0.067 OA
ATOM      3  O   UNL     1     -37.343  23.552   3.788  0.00  0.00    -0.067 OA
ENDROOT
BRANCH   1   4
ATOM      4  C   UNL     1     -35.043  24.522   4.488  0.00  0.00    +0.110 C 
ATOM      5  C   UNL     1     -34.446  25.059   3.359  0.00  0.00    +0.020 C 
ATOM      6  C   UNL     1     -34.850  25.080   5.741  0.00  0.00    +0.020 C 
ATOM      7  C   UNL     1     -33.631  26.184   3.488  0.00  0.00    +0.025 C 
ATOM      8  C   UNL     1     -34.035  26.205   5.870  0.00  0.00    +0.025 C 
ATOM      9  C   UNL     1     -33.425  26.756   4.743  0.00  0.00    +0.143 C 
BRANCH   9  12
ATOM     10  O   UNL     1     -32.997  28.998   4.409  0.00  0.00    -0.126 OA
ATOM     11  O   UNL     1     -31.488  27.789   5.446  0.00  0.00    -0.126 OA
ATOM     12  N   UNL     1     -32.597  27.903   4.873  0.00  0.00    +0.058 N 
ENDBRANCH   9  12
ENDBRANCH   1   4
BRANCH   1  13
ATOM     13  O   UNL     1     -35.333  22.204   3.178  0.00  0.00    -0.236 OA
BRANCH  13  14
ATOM     14  C   UNL     1     -36.039  21.910   1.976  0.00  0.00    +0.200 C 
BRANCH  14  15
ATOM     15  C   UNL     1     -36.029  20.397   1.703  0.00  0.00    +0.128 C 
ATOM     16  C   UNL     1     -34.597  19.845   1.776  0.00  0.00    +0.033 C 
BRANCH  15  18
ATOM     17  I   UNL     1     -35.478  18.584  -0.778  0.00  0.00    -0.072 I 
ATOM     18  C   UNL     1     -36.628  20.028   0.330  0.00  0.00    +0.092 C 
ENDBRANCH  15  18
BRANCH  15  19
ATOM     19  O   UNL     1     -36.763  19.730   2.734  0.00  0.00    -0.383 OA
ATOM     20  H   UNL     1     -37.332  19.051   2.338  0.00  0.00    +0.210 HD
ENDBRANCH  15  19
ENDBRANCH  14  15
ENDBRANCH  13  14
ENDBRANCH   1  13
TORSDOF 7
ENDMDL
MODEL 4
REMARK VINA RESULT:      -5.5      2.930      4.053
REMARK  Name = 192538
REMARK  7 active torsions:
REMARK  status: ('A' for Active; 'I' for Inactive)
REMARK    1  A    between atoms: S_1  and  C_4
REMARK    2  A    between atoms: S_1  and  O_13
REMARK    3  A    between atoms: C_9  and  N_12
REMARK    4  A    between atoms: O_13  and  C_14
REMARK    5  A    between atoms: C_14  and  C_15
REMARK    6  A    between atoms: C_15  and  C_18
REMARK    7  A    between atoms: C_15  and  O_19
REMARK                            x       y       z     vdW  Elec       q    Type
REMARK                         _______ _______ _______ _____ _____    ______ ____
ROOT
ATOM      1  S   UNL     1     -35.912  23.031   4.378  0.00  0.00    +0.013 S 
ATOM      2  O   UNL     1     -35.430  22.305   3.219  0.00  0.00    -0.067 OA
ATOM      3  O   UNL     1     -35.935  22.426   5.696  0.00  0.00    -0.067 OA
ENDROOT
BRANCH   1   4
ATOM      4  C   UNL     1     -34.911  24.481   4.493  0.00  0.00    +0.110 C 
ATOM      5  C   UNL     1     -34.211  24.911   3.377  0.00  0.00    +0.020 C 
ATOM      6  C   UNL     1     -34.842  25.165   5.696  0.00  0.00    +0.020 C 
ATOM      7  C   UNL     1     -33.419  26.056   3.468  0.00  0.00    +0.025 C 
ATOM      8  C   UNL     1     -34.050  26.310   5.786  0.00  0.00    +0.025 C 
ATOM      9  C   UNL     1     -33.339  26.755   4.672  0.00  0.00    +0.143 C 
BRANCH   9  12
ATOM     10  O   UNL     1     -31.344  27.813   5.144  0.00  0.00    -0.126 OA
ATOM     11  O   UNL     1     -33.037  29.031   4.461  0.00  0.00    -0.126 OA
ATOM     12  N   UNL     1     -32.535  27.922   4.763  0.00  0.00    +0.058 N 
ENDBRANCH   9  12
ENDBRANCH   1   4
BRANCH   1  13
ATOM     13  O   UNL     1     -37.407  23.609   4.063  0.00  0.00    -0.236 OA
BRANCH  13  14
ATOM     14  C   UNL     1     -37.701  24.061   2.745  0.00  0.00    +0.200 C 
BRANCH  14  15
ATOM     15  C   UNL     1     -38.450  25.403   2.791  0.00  0.00    +0.128 C 
ATOM     16  C   UNL     1     -39.934  25.182   3.123  0.00  0.00    +0.033 C 
BRANCH  15  18
ATOM     17  I   UNL     1     -36.590  27.415   1.294  0.00  0.00    -0.072 I 
ATOM     18  C   UNL     1     -38.355  26.194   1.470  0.00  0.00    +0.092 C 
ENDBRANCH  15  18
BRANCH  15  19
ATOM     19  O   UNL     1     -37.921  26.198   3.857  0.00  0.00    -0.383 OA
ATOM     20  H   UNL     1     -37.305  25.664   4.383  0.00  0.00    +0.210 HD
ENDBRANCH  15  19
ENDBRANCH  14  15
ENDBRANCH  13  14
ENDBRANCH   1  13
TORSDOF 7
ENDMDL
MODEL 5
REMARK VINA RESULT:      -5.5      4.185      7.263
REMARK  Name = 192538
REMARK  7 active torsions:
REMARK  status: ('A' for Active; 'I' for Inactive)
REMARK    1  A    between atoms: S_1  and  C_4
REMARK    2  A    between atoms: S_1  and  O_13
REMARK    3  A    between atoms: C_9  and  N_12
REMARK    4  A    between atoms: O_13  and  C_14
REMARK    5  A    between atoms: C_14  and  C_15
REMARK    6  A    between atoms: C_15  and  C_18
REMARK    7  A    between atoms: C_15  and  O_19
REMARK                            x       y       z     vdW  Elec       q    Type
REMARK                         _______ _______ _______ _____ _____    ______ ____
ROOT
ATOM      1  S   UNL     1     -32.678  27.912   3.497  0.00  0.00    +0.013 S 
ATOM      2  O   UNL     1     -32.458  27.816   2.067  0.00  0.00    -0.067 OA
ATOM      3  O   UNL     1     -33.331  29.064   4.087  0.00  0.00    -0.067 OA
ENDROOT
BRANCH   1   4
ATOM      4  C   UNL     1     -33.635  26.495   3.936  0.00  0.00    +0.110 C 
ATOM      5  C   UNL     1     -34.004  26.309   5.259  0.00  0.00    +0.020 C 
ATOM      6  C   UNL     1     -34.002  25.592   2.952  0.00  0.00    +0.020 C 
ATOM      7  C   UNL     1     -34.760  25.190   5.606  0.00  0.00    +0.025 C 
ATOM      8  C   UNL     1     -34.759  24.473   3.299  0.00  0.00    +0.025 C 
ATOM      9  C   UNL     1     -35.136  24.271   4.626  0.00  0.00    +0.143 C 
BRANCH   9  12
ATOM     10  O   UNL     1     -36.667  22.621   4.122  0.00  0.00    -0.126 OA
ATOM     11  O   UNL     1     -35.812  22.671   6.142  0.00  0.00    -0.126 OA
ATOM     12  N   UNL     1     -35.908  23.133   4.980  0.00  0.00    +0.058 N 
ENDBRANCH   9  12
ENDBRANCH   1   4
BRANCH   1  13
ATOM     13  O   UNL     1     -31.259  27.685   4.273  0.00  0.00    -0.236 OA
BRANCH  13  14
ATOM     14  C   UNL     1     -30.585  28.819   4.812  0.00  0.00    +0.200 C 
BRANCH  14  15
ATOM     15  C   UNL     1     -30.485  28.707   6.342  0.00  0.00    +0.128 C 
ATOM     16  C   UNL     1     -31.463  29.679   7.020  0.00  0.00    +0.033 C 
BRANCH  15  18
ATOM     17  I   UNL     1     -27.772  27.267   6.905  0.00  0.00    -0.072 I 
ATOM     18  C   UNL     1     -29.065  28.989   6.876  0.00  0.00    +0.092 C 
ENDBRANCH  15  18
BRANCH  15  19
ATOM     19  O   UNL     1     -30.889  27.395   6.744  0.00  0.00    -0.383 OA
ATOM     20  H   UNL     1     -30.188  26.761   6.528  0.00  0.00    +0.210 HD
ENDBRANCH  15  19
ENDBRANCH  14  15
ENDBRANCH  13  14
ENDBRANCH   1  13
TORSDOF 7
ENDMDL
MODEL 6
REMARK VINA RESULT:      -5.3      4.479      7.526
REMARK  Name = 192538
REMARK  7 active torsions:
REMARK  status: ('A' for Active; 'I' for Inactive)
REMARK    1  A    between atoms: S_1  and  C_4
REMARK    2  A    between atoms: S_1  and  O_13
REMARK    3  A    between atoms: C_9  and  N_12
REMARK    4  A    between atoms: O_13  and  C_14
REMARK    5  A    between atoms: C_14  and  C_15
REMARK    6  A    between atoms: C_15  and  C_18
REMARK    7  A    between atoms: C_15  and  O_19
REMARK                            x       y       z     vdW  Elec       q    Type
REMARK                         _______ _______ _______ _____ _____    ______ ____
ROOT
ATOM      1  S   UNL     1     -33.438  27.773   3.822  0.00  0.00    +0.013 S 
ATOM      2  O   UNL     1     -32.265  27.553   2.999  0.00  0.00    -0.067 OA
ATOM      3  O   UNL     1     -34.556  28.567   3.351  0.00  0.00    -0.067 OA
ENDROOT
BRANCH   1   4
ATOM      4  C   UNL     1     -34.069  26.169   4.206  0.00  0.00    +0.110 C 
ATOM      5  C   UNL     1     -34.170  25.223   3.200  0.00  0.00    +0.020 C 
ATOM      6  C   UNL     1     -34.451  25.884   5.507  0.00  0.00    +0.020 C 
ATOM      7  C   UNL     1     -34.669  23.956   3.503  0.00  0.00    +0.025 C 
ATOM      8  C   UNL     1     -34.949  24.617   5.810  0.00  0.00    +0.025 C 
ATOM      9  C   UNL     1     -35.059  23.653   4.807  0.00  0.00    +0.143 C 
BRANCH   9  12
ATOM     10  O   UNL     1     -36.025  22.147   6.263  0.00  0.00    -0.126 OA
ATOM     11  O   UNL     1     -35.534  21.471   4.233  0.00  0.00    -0.126 OA
ATOM     12  N   UNL     1     -35.564  22.362   5.116  0.00  0.00    +0.058 N 
ENDBRANCH   9  12
ENDBRANCH   1   4
BRANCH   1  13
ATOM     13  O   UNL     1     -32.971  28.370   5.269  0.00  0.00    -0.236 OA
BRANCH  13  14
ATOM     14  C   UNL     1     -31.604  28.246   5.650  0.00  0.00    +0.200 C 
BRANCH  14  15
ATOM     15  C   UNL     1     -31.125  29.524   6.359  0.00  0.00    +0.128 C 
ATOM     16  C   UNL     1     -31.818  30.761   5.766  0.00  0.00    +0.033 C 
BRANCH  15  18
ATOM     17  I   UNL     1     -28.986  31.244   4.871  0.00  0.00    -0.072 I 
ATOM     18  C   UNL     1     -29.598  29.727   6.271  0.00  0.00    +0.092 C 
ENDBRANCH  15  18
BRANCH  15  19
ATOM     19  O   UNL     1     -31.518  29.472   7.734  0.00  0.00    -0.383 OA
ATOM     20  H   UNL     1     -31.405  30.348   8.135  0.00  0.00    +0.210 HD
ENDBRANCH  15  19
ENDBRANCH  14  15
ENDBRANCH  13  14
ENDBRANCH   1  13
TORSDOF 7
ENDMDL
MODEL 7
REMARK VINA RESULT:      -5.2      4.464      7.142
REMARK  Name = 192538
REMARK  7 active torsions:
REMARK  status: ('A' for Active; 'I' for Inactive)
REMARK    1  A    between atoms: S_1  and  C_4
REMARK    2  A    between atoms: S_1  and  O_13
REMARK    3  A    between atoms: C_9  and  N_12
REMARK    4  A    between atoms: O_13  and  C_14
REMARK    5  A    between atoms: C_14  and  C_15
REMARK    6  A    between atoms: C_15  and  C_18
REMARK    7  A    between atoms: C_15  and  O_19
REMARK                            x       y       z     vdW  Elec       q    Type
REMARK                         _______ _______ _______ _____ _____    ______ ____
ROOT
ATOM      1  S   UNL     1     -34.650  22.140   0.525  0.00  0.00    +0.013 S 
ATOM      2  O   UNL     1     -33.801  23.243   0.117  0.00  0.00    -0.067 OA
ATOM      3  O   UNL     1     -35.806  21.745  -0.255  0.00  0.00    -0.067 OA
ENDROOT
BRANCH   1   4
ATOM      4  C   UNL     1     -33.594  20.729   0.633  0.00  0.00    +0.110 C 
ATOM      5  C   UNL     1     -32.375  20.744  -0.026  0.00  0.00    +0.020 C 
ATOM      6  C   UNL     1     -34.000  19.632   1.376  0.00  0.00    +0.020 C 
ATOM      7  C   UNL     1     -31.540  19.629   0.059  0.00  0.00    +0.025 C 
ATOM      8  C   UNL     1     -33.165  18.518   1.460  0.00  0.00    +0.025 C 
ATOM      9  C   UNL     1     -31.935  18.517   0.802  0.00  0.00    +0.143 C 
BRANCH   9  12
ATOM     10  O   UNL     1     -29.942  17.517   1.390  0.00  0.00    -0.126 OA
ATOM     11  O   UNL     1     -31.497  16.278   0.462  0.00  0.00    -0.126 OA
ATOM     12  N   UNL     1     -31.084  17.383   0.889  0.00  0.00    +0.058 N 
ENDBRANCH   9  12
ENDBRANCH   1   4
BRANCH   1  13
ATOM     13  O   UNL     1     -35.140  22.384   2.064  0.00  0.00    -0.236 OA
BRANCH  13  14
ATOM     14  C   UNL     1     -35.417  23.715   2.491  0.00  0.00    +0.200 C 
BRANCH  14  15
ATOM     15  C   UNL     1     -36.392  23.706   3.680  0.00  0.00    +0.128 C 
ATOM     16  C   UNL     1     -37.445  24.814   3.522  0.00  0.00    +0.033 C 
BRANCH  15  18
ATOM     17  I   UNL     1     -35.242  22.047   6.062  0.00  0.00    -0.072 I 
ATOM     18  C   UNL     1     -35.686  23.889   5.040  0.00  0.00    +0.092 C 
ENDBRANCH  15  18
BRANCH  15  19
ATOM     19  O   UNL     1     -37.114  22.471   3.684  0.00  0.00    -0.383 OA
ATOM     20  H   UNL     1     -36.502  21.739   3.514  0.00  0.00    +0.210 HD
ENDBRANCH  15  19
ENDBRANCH  14  15
ENDBRANCH  13  14
ENDBRANCH   1  13
TORSDOF 7
ENDMDL
MODEL 8
REMARK VINA RESULT:      -5.2      4.323      7.212
REMARK  Name = 192538
REMARK  7 active torsions:
REMARK  status: ('A' for Active; 'I' for Inactive)
REMARK    1  A    between atoms: S_1  and  C_4
REMARK    2  A    between atoms: S_1  and  O_13
REMARK    3  A    between atoms: C_9  and  N_12
REMARK    4  A    between atoms: O_13  and  C_14
REMARK    5  A    between atoms: C_14  and  C_15
REMARK    6  A    between atoms: C_15  and  C_18
REMARK    7  A    between atoms: C_15  and  O_19
REMARK                            x       y       z     vdW  Elec       q    Type
REMARK                         _______ _______ _______ _____ _____    ______ ____
ROOT
ATOM      1  S   UNL     1     -32.432  27.962   4.209  0.00  0.00    +0.013 S 
ATOM      2  O   UNL     1     -32.636  28.799   5.376  0.00  0.00    -0.067 OA
ATOM      3  O   UNL     1     -31.121  27.444   3.869  0.00  0.00    -0.067 OA
ENDROOT
BRANCH   1   4
ATOM      4  C   UNL     1     -33.499  26.571   4.419  0.00  0.00    +0.110 C 
ATOM      5  C   UNL     1     -33.735  25.730   3.344  0.00  0.00    +0.020 C 
ATOM      6  C   UNL     1     -34.081  26.342   5.655  0.00  0.00    +0.020 C 
ATOM      7  C   UNL     1     -34.578  24.631   3.509  0.00  0.00    +0.025 C 
ATOM      8  C   UNL     1     -34.924  25.244   5.821  0.00  0.00    +0.025 C 
ATOM      9  C   UNL     1     -35.173  24.388   4.747  0.00  0.00    +0.143 C 
BRANCH   9  12
ATOM     10  O   UNL     1     -36.000  22.637   6.000  0.00  0.00    -0.126 OA
ATOM     11  O   UNL     1     -36.791  22.938   3.975  0.00  0.00    -0.126 OA
ATOM     12  N   UNL     1     -36.029  23.268   4.916  0.00  0.00    +0.058 N 
ENDBRANCH   9  12
ENDBRANCH   1   4
BRANCH   1  13
ATOM     13  O   UNL     1     -33.030  28.722   2.894  0.00  0.00    -0.236 OA
BRANCH  13  14
ATOM     14  C   UNL     1     -33.294  30.120   2.973  0.00  0.00    +0.200 C 
BRANCH  14  15
ATOM     15  C   UNL     1     -34.771  30.407   2.660  0.00  0.00    +0.128 C 
ATOM     16  C   UNL     1     -35.449  29.162   2.069  0.00  0.00    +0.033 C 
BRANCH  15  18
ATOM     17  I   UNL     1     -37.020  32.098   1.305  0.00  0.00    -0.072 I 
ATOM     18  C   UNL     1     -34.963  31.583   1.679  0.00  0.00    +0.092 C 
ENDBRANCH  15  18
BRANCH  15  19
ATOM     19  O   UNL     1     -35.461  30.693   3.880  0.00  0.00    -0.383 OA
ATOM     20  H   UNL     1     -35.345  31.629   4.106  0.00  0.00    +0.210 HD
ENDBRANCH  15  19
ENDBRANCH  14  15
ENDBRANCH  13  14
ENDBRANCH   1  13
TORSDOF 7
ENDMDL
MODEL 9
REMARK VINA RESULT:      -5.2      2.780      3.671
REMARK  Name = 192538
REMARK  7 active torsions:
REMARK  status: ('A' for Active; 'I' for Inactive)
REMARK    1  A    between atoms: S_1  and  C_4
REMARK    2  A    between atoms: S_1  and  O_13
REMARK    3  A    between atoms: C_9  and  N_12
REMARK    4  A    between atoms: O_13  and  C_14
REMARK    5  A    between atoms: C_14  and  C_15
REMARK    6  A    between atoms: C_15  and  C_18
REMARK    7  A    between atoms: C_15  and  O_19
REMARK                            x       y       z     vdW  Elec       q    Type
REMARK                         _______ _______ _______ _____ _____    ______ ____
ROOT
ATOM      1  S   UNL     1     -35.775  21.500   2.364  0.00  0.00    +0.013 S 
ATOM      2  O   UNL     1     -35.323  21.633   0.992  0.00  0.00    -0.067 OA
ATOM      3  O   UNL     1     -35.364  20.383   3.191  0.00  0.00    -0.067 OA
ENDROOT
BRANCH   1   4
ATOM      4  C   UNL     1     -35.258  22.972   3.190  0.00  0.00    +0.110 C 
ATOM      5  C   UNL     1     -35.365  23.048   4.569  0.00  0.00    +0.020 C 
ATOM      6  C   UNL     1     -34.755  24.027   2.445  0.00  0.00    +0.020 C 
ATOM      7  C   UNL     1     -34.957  24.212   5.221  0.00  0.00    +0.025 C 
ATOM      8  C   UNL     1     -34.346  25.190   3.098  0.00  0.00    +0.025 C 
ATOM      9  C   UNL     1     -34.448  25.282   4.486  0.00  0.00    +0.143 C 
BRANCH   9  12
ATOM     10  O   UNL     1     -33.886  26.445   6.397  0.00  0.00    -0.126 OA
ATOM     11  O   UNL     1     -33.820  27.501   4.475  0.00  0.00    -0.126 OA
ATOM     12  N   UNL     1     -34.031  26.466   5.151  0.00  0.00    +0.058 N 
ENDBRANCH   9  12
ENDBRANCH   1   4
BRANCH   1  13
ATOM     13  O   UNL     1     -37.406  21.580   2.399  0.00  0.00    -0.236 OA
BRANCH  13  14
ATOM     14  C   UNL     1     -38.102  21.873   1.191  0.00  0.00    +0.200 C 
BRANCH  14  15
ATOM     15  C   UNL     1     -39.581  22.178   1.483  0.00  0.00    +0.128 C 
ATOM     16  C   UNL     1     -40.363  22.363   0.174  0.00  0.00    +0.033 C 
BRANCH  15  18
ATOM     17  I   UNL     1     -38.588  25.126   1.750  0.00  0.00    -0.072 I 
ATOM     18  C   UNL     1     -39.777  23.436   2.355  0.00  0.00    +0.092 C 
ENDBRANCH  15  18
BRANCH  15  19
ATOM     19  O   UNL     1     -40.170  21.051   2.140  0.00  0.00    -0.383 OA
ATOM     20  H   UNL     1     -40.373  21.283   3.059  0.00  0.00    +0.210 HD
ENDBRANCH  15  19
ENDBRANCH  14  15
ENDBRANCH  13  14
ENDBRANCH   1  13
TORSDOF 7
ENDMDL
