MODEL 1
REMARK VINA RESULT:      -8.1      0.000      0.000
REMARK  Name = 197435
REMARK  3 active torsions:
REMARK  status: ('A' for Active; 'I' for Inactive)
REMARK    1  A    between atoms: C_5  and  C_26
REMARK    2  A    between atoms: C_28  and  O_32
REMARK    3  A    between atoms: C_29  and  O_34
REMARK                            x       y       z     vdW  Elec       q    Type
REMARK                         _______ _______ _______ _____ _____    ______ ____
ROOT
ATOM      1  O   UNL     1     -47.748  21.575   1.616  0.00  0.00    -0.291 OA
ATOM      2  N   UNL     1     -46.656  27.705   7.013  0.00  0.00    -0.400 NA
ATOM      3  N   UNL     1     -47.730  25.152   5.632  0.00  0.00    -0.408 NA
ATOM      4  N   UNL     1     -43.447  27.047   2.052  0.00  0.00    -0.264 NA
ATOM      5  C   UNL     1     -43.970  30.094   5.970  0.00  0.00    +0.056 C 
ATOM      6  C   UNL     1     -44.899  28.936   6.021  0.00  0.00    +0.012 C 
ATOM      7  C   UNL     1     -43.649  30.586   7.396  0.00  0.00    +0.033 C 
ATOM      8  C   UNL     1     -45.160  27.877   5.250  0.00  0.00    +0.028 C 
ATOM      9  C   UNL     1     -45.869  28.737   7.121  0.00  0.00    +0.127 C 
ATOM     10  C   UNL     1     -46.255  27.109   5.848  0.00  0.00    +0.157 C 
ATOM     11  C   UNL     1     -44.817  30.544   8.347  0.00  0.00    -0.023 C 
ATOM     12  C   UNL     1     -44.608  27.419   4.003  0.00  0.00    +0.003 C 
ATOM     13  C   UNL     1     -45.854  29.705   8.231  0.00  0.00    +0.027 C 
ATOM     14  C   UNL     1     -46.709  26.001   5.239  0.00  0.00    +0.146 C 
ATOM     15  C   UNL     1     -46.130  25.529   3.958  0.00  0.00    +0.103 C 
ATOM     16  C   UNL     1     -45.133  26.211   3.382  0.00  0.00    +0.005 C 
ATOM     17  C   UNL     1     -46.837  24.338   3.609  0.00  0.00    +0.017 C 
ATOM     18  C   UNL     1     -47.811  24.211   4.719  0.00  0.00    +0.106 C 
ATOM     19  C   UNL     1     -43.640  27.841   3.177  0.00  0.00    +0.152 C 
ATOM     20  C   UNL     1     -48.835  23.123   4.714  0.00  0.00    +0.067 C 
ATOM     21  C   UNL     1     -44.321  26.084   2.166  0.00  0.00    +0.090 C 
ATOM     22  C   UNL     1     -46.779  23.479   2.596  0.00  0.00    +0.036 C 
ATOM     23  C   UNL     1     -48.363  21.919   3.914  0.00  0.00    +0.077 C 
ATOM     24  C   UNL     1     -47.663  22.286   2.616  0.00  0.00    +0.173 C 
ENDROOT
BRANCH   5  26
ATOM     25  O   UNL     1     -44.308  30.926   3.761  0.00  0.00    -0.356 OA
ATOM     26  C   UNL     1     -44.581  31.210   5.136  0.00  0.00    +0.122 C 
ATOM     27  C   UNL     1     -43.993  32.572   5.527  0.00  0.00    +0.062 C 
ATOM     28  C   UNL     1     -44.521  33.672   4.608  0.00  0.00    +0.142 C 
ATOM     29  C   UNL     1     -44.307  33.276   3.144  0.00  0.00    +0.164 C 
ATOM     30  C   UNL     1     -44.889  31.882   2.866  0.00  0.00    +0.144 C 
ATOM     31  C   UNL     1     -44.593  31.406   1.447  0.00  0.00    +0.035 C 
BRANCH  28  32
ATOM     32  O   UNL     1     -45.917  33.858   4.848  0.00  0.00    -0.382 OA
ATOM     33  H   UNL     1     -46.136  34.800   4.769  0.00  0.00    +0.210 HD
ENDBRANCH  28  32
BRANCH  29  34
ATOM     34  O   UNL     1     -44.898  34.261   2.307  0.00  0.00    -0.380 OA
ATOM     35  H   UNL     1     -45.851  34.098   2.239  0.00  0.00    +0.211 HD
ENDBRANCH  29  34
ENDBRANCH   5  26
TORSDOF 3
ENDMDL
MODEL 2
REMARK VINA RESULT:      -7.5     10.496     12.567
REMARK  Name = 197435
REMARK  3 active torsions:
REMARK  status: ('A' for Active; 'I' for Inactive)
REMARK    1  A    between atoms: C_5  and  C_26
REMARK    2  A    between atoms: C_28  and  O_32
REMARK    3  A    between atoms: C_29  and  O_34
REMARK                            x       y       z     vdW  Elec       q    Type
REMARK                         _______ _______ _______ _____ _____    ______ ____
ROOT
ATOM      1  O   UNL     1     -33.527  17.874  -4.146  0.00  0.00    -0.291 OA
ATOM      2  N   UNL     1     -35.093  20.553   3.487  0.00  0.00    -0.400 NA
ATOM      3  N   UNL     1     -34.466  18.707   1.083  0.00  0.00    -0.408 NA
ATOM      4  N   UNL     1     -34.683  24.113  -1.257  0.00  0.00    -0.264 NA
ATOM      5  C   UNL     1     -35.604  24.257   3.646  0.00  0.00    +0.056 C 
ATOM      6  C   UNL     1     -35.315  22.884   3.161  0.00  0.00    +0.012 C 
ATOM      7  C   UNL     1     -35.204  24.397   5.129  0.00  0.00    +0.033 C 
ATOM      8  C   UNL     1     -35.024  22.319   1.986  0.00  0.00    +0.028 C 
ATOM      9  C   UNL     1     -35.316  21.704   4.054  0.00  0.00    +0.127 C 
ATOM     10  C   UNL     1     -34.893  20.872   2.170  0.00  0.00    +0.157 C 
ATOM     11  C   UNL     1     -35.490  23.180   5.969  0.00  0.00    -0.023 C 
ATOM     12  C   UNL     1     -34.864  22.855   0.660  0.00  0.00    +0.003 C 
ATOM     13  C   UNL     1     -35.554  21.931   5.490  0.00  0.00    +0.027 C 
ATOM     14  C   UNL     1     -34.617  20.084   1.118  0.00  0.00    +0.146 C 
ATOM     15  C   UNL     1     -34.445  20.642  -0.244  0.00  0.00    +0.103 C 
ATOM     16  C   UNL     1     -34.565  21.959  -0.448  0.00  0.00    +0.005 C 
ATOM     17  C   UNL     1     -34.158  19.536  -1.102  0.00  0.00    +0.017 C 
ATOM     18  C   UNL     1     -34.208  18.388  -0.165  0.00  0.00    +0.106 C 
ATOM     19  C   UNL     1     -34.916  24.078   0.113  0.00  0.00    +0.152 C 
ATOM     20  C   UNL     1     -34.045  16.989  -0.665  0.00  0.00    +0.067 C 
ATOM     21  C   UNL     1     -34.474  22.870  -1.595  0.00  0.00    +0.090 C 
ATOM     22  C   UNL     1     -33.915  19.399  -2.402  0.00  0.00    +0.036 C 
ATOM     23  C   UNL     1     -33.231  16.949  -1.948  0.00  0.00    +0.077 C 
ATOM     24  C   UNL     1     -33.587  18.051  -2.931  0.00  0.00    +0.173 C 
ENDROOT
BRANCH   5  26
ATOM     25  O   UNL     1     -37.682  23.454   2.794  0.00  0.00    -0.356 OA
ATOM     26  C   UNL     1     -37.080  24.574   3.452  0.00  0.00    +0.122 C 
ATOM     27  C   UNL     1     -37.264  25.846   2.616  0.00  0.00    +0.062 C 
ATOM     28  C   UNL     1     -38.743  26.092   2.324  0.00  0.00    +0.142 C 
ATOM     29  C   UNL     1     -39.372  24.832   1.723  0.00  0.00    +0.164 C 
ATOM     30  C   UNL     1     -39.095  23.608   2.608  0.00  0.00    +0.144 C 
ATOM     31  C   UNL     1     -39.608  22.315   1.982  0.00  0.00    +0.035 C 
BRANCH  28  32
ATOM     32  O   UNL     1     -39.415  26.422   3.541  0.00  0.00    -0.382 OA
ATOM     33  H   UNL     1     -39.029  25.913   4.271  0.00  0.00    +0.210 HD
ENDBRANCH  28  32
BRANCH  29  34
ATOM     34  O   UNL     1     -40.767  25.047   1.556  0.00  0.00    -0.380 OA
ATOM     35  H   UNL     1     -41.104  25.573   2.298  0.00  0.00    +0.211 HD
ENDBRANCH  29  34
ENDBRANCH   5  26
TORSDOF 3
ENDMDL
MODEL 3
REMARK VINA RESULT:      -7.3      8.244     10.819
REMARK  Name = 197435
REMARK  3 active torsions:
REMARK  status: ('A' for Active; 'I' for Inactive)
REMARK    1  A    between atoms: C_5  and  C_26
REMARK    2  A    between atoms: C_28  and  O_32
REMARK    3  A    between atoms: C_29  and  O_34
REMARK                            x       y       z     vdW  Elec       q    Type
REMARK                         _______ _______ _______ _____ _____    ______ ____
ROOT
ATOM      1  O   UNL     1     -44.521  26.088  -0.210  0.00  0.00    -0.291 OA
ATOM      2  N   UNL     1     -37.570  25.071   4.096  0.00  0.00    -0.400 NA
ATOM      3  N   UNL     1     -40.173  26.290   2.948  0.00  0.00    -0.408 NA
ATOM      4  N   UNL     1     -39.824  20.973   0.426  0.00  0.00    -0.264 NA
ATOM      5  C   UNL     1     -35.925  21.774   3.436  0.00  0.00    +0.056 C 
ATOM      6  C   UNL     1     -36.884  22.909   3.431  0.00  0.00    +0.012 C 
ATOM      7  C   UNL     1     -35.177  21.711   4.783  0.00  0.00    +0.033 C 
ATOM      8  C   UNL     1     -38.036  23.193   2.819  0.00  0.00    +0.028 C 
ATOM      9  C   UNL     1     -36.674  24.135   4.233  0.00  0.00    +0.127 C 
ATOM     10  C   UNL     1     -38.470  24.535   3.215  0.00  0.00    +0.157 C 
ATOM     11  C   UNL     1     -34.821  23.055   5.362  0.00  0.00    -0.023 C 
ATOM     12  C   UNL     1     -38.845  22.465   1.877  0.00  0.00    +0.003 C 
ATOM     13  C   UNL     1     -35.495  24.186   5.114  0.00  0.00    +0.027 C 
ATOM     14  C   UNL     1     -39.603  25.050   2.710  0.00  0.00    +0.146 C 
ATOM     15  C   UNL     1     -40.437  24.292   1.747  0.00  0.00    +0.103 C 
ATOM     16  C   UNL     1     -40.066  23.065   1.360  0.00  0.00    +0.005 C 
ATOM     17  C   UNL     1     -41.553  25.127   1.432  0.00  0.00    +0.017 C 
ATOM     18  C   UNL     1     -41.272  26.343   2.231  0.00  0.00    +0.106 C 
ATOM     19  C   UNL     1     -38.775  21.260   1.292  0.00  0.00    +0.152 C 
ATOM     20  C   UNL     1     -42.162  27.540   2.135  0.00  0.00    +0.067 C 
ATOM     21  C   UNL     1     -40.589  22.030   0.461  0.00  0.00    +0.090 C 
ATOM     22  C   UNL     1     -42.617  25.007   0.645  0.00  0.00    +0.036 C 
ATOM     23  C   UNL     1     -43.573  27.152   1.725  0.00  0.00    +0.077 C 
ATOM     24  C   UNL     1     -43.623  26.100   0.630  0.00  0.00    +0.173 C 
ENDROOT
BRANCH   5  26
ATOM     25  O   UNL     1     -35.157  23.206   1.690  0.00  0.00    -0.356 OA
ATOM     26  C   UNL     1     -34.946  21.920   2.280  0.00  0.00    +0.122 C 
ATOM     27  C   UNL     1     -35.158  20.814   1.238  0.00  0.00    +0.062 C 
ATOM     28  C   UNL     1     -34.255  21.034   0.026  0.00  0.00    +0.142 C 
ATOM     29  C   UNL     1     -34.433  22.459  -0.505  0.00  0.00    +0.164 C 
ATOM     30  C   UNL     1     -34.247  23.487   0.620  0.00  0.00    +0.144 C 
ATOM     31  C   UNL     1     -34.529  24.912   0.152  0.00  0.00    +0.035 C 
BRANCH  28  32
ATOM     32  O   UNL     1     -32.893  20.839   0.411  0.00  0.00    -0.382 OA
ATOM     33  H   UNL     1     -32.735  19.896   0.572  0.00  0.00    +0.210 HD
ENDBRANCH  28  32
BRANCH  29  34
ATOM     34  O   UNL     1     -33.511  22.676  -1.565  0.00  0.00    -0.380 OA
ATOM     35  H   UNL     1     -33.760  22.130  -2.327  0.00  0.00    +0.211 HD
ENDBRANCH  29  34
ENDBRANCH   5  26
TORSDOF 3
ENDMDL
MODEL 4
REMARK VINA RESULT:      -7.1     10.879     12.284
REMARK  Name = 197435
REMARK  3 active torsions:
REMARK  status: ('A' for Active; 'I' for Inactive)
REMARK    1  A    between atoms: C_5  and  C_26
REMARK    2  A    between atoms: C_28  and  O_32
REMARK    3  A    between atoms: C_29  and  O_34
REMARK                            x       y       z     vdW  Elec       q    Type
REMARK                         _______ _______ _______ _____ _____    ______ ____
ROOT
ATOM      1  O   UNL     1     -36.563  21.585   2.625  0.00  0.00    -0.291 OA
ATOM      2  N   UNL     1     -32.562  28.009   5.882  0.00  0.00    -0.400 NA
ATOM      3  N   UNL     1     -34.139  25.362   5.586  0.00  0.00    -0.408 NA
ATOM      4  N   UNL     1     -33.299  27.178   0.042  0.00  0.00    -0.264 NA
ATOM      5  C   UNL     1     -31.320  30.408   3.292  0.00  0.00    +0.056 C 
ATOM      6  C   UNL     1     -31.933  29.231   3.959  0.00  0.00    +0.012 C 
ATOM      7  C   UNL     1     -30.180  30.981   4.157  0.00  0.00    +0.033 C 
ATOM      8  C   UNL     1     -32.575  28.128   3.567  0.00  0.00    +0.028 C 
ATOM      9  C   UNL     1     -31.949  29.065   5.430  0.00  0.00    +0.127 C 
ATOM     10  C   UNL     1     -32.981  27.364   4.749  0.00  0.00    +0.157 C 
ATOM     11  C   UNL     1     -30.450  30.959   5.639  0.00  0.00    -0.023 C 
ATOM     12  C   UNL     1     -32.938  27.620   2.270  0.00  0.00    +0.003 C 
ATOM     13  C   UNL     1     -31.270  30.089   6.243  0.00  0.00    +0.027 C 
ATOM     14  C   UNL     1     -33.662  26.216   4.605  0.00  0.00    +0.146 C 
ATOM     15  C   UNL     1     -34.026  25.693   3.267  0.00  0.00    +0.103 C 
ATOM     16  C   UNL     1     -33.676  26.370   2.166  0.00  0.00    +0.005 C 
ATOM     17  C   UNL     1     -34.727  24.468   3.487  0.00  0.00    +0.017 C 
ATOM     18  C   UNL     1     -34.742  24.374   4.966  0.00  0.00    +0.106 C 
ATOM     19  C   UNL     1     -32.759  28.024   1.004  0.00  0.00    +0.152 C 
ATOM     20  C   UNL     1     -35.467  23.261   5.651  0.00  0.00    +0.067 C 
ATOM     21  C   UNL     1     -33.839  26.201   0.717  0.00  0.00    +0.090 C 
ATOM     22  C   UNL     1     -35.293  23.560   2.698  0.00  0.00    +0.036 C 
ATOM     23  C   UNL     1     -35.563  22.031   4.764  0.00  0.00    +0.077 C 
ATOM     24  C   UNL     1     -35.890  22.348   3.314  0.00  0.00    +0.173 C 
ENDROOT
BRANCH   5  26
ATOM     25  O   UNL     1     -33.601  30.786   2.706  0.00  0.00    -0.356 OA
ATOM     26  C   UNL     1     -32.383  31.465   3.029  0.00  0.00    +0.122 C 
ATOM     27  C   UNL     1     -31.967  32.389   1.878  0.00  0.00    +0.062 C 
ATOM     28  C   UNL     1     -33.087  33.371   1.540  0.00  0.00    +0.142 C 
ATOM     29  C   UNL     1     -34.396  32.609   1.311  0.00  0.00    +0.164 C 
ATOM     30  C   UNL     1     -34.701  31.680   2.495  0.00  0.00    +0.144 C 
ATOM     31  C   UNL     1     -35.937  30.821   2.250  0.00  0.00    +0.035 C 
BRANCH  28  32
ATOM     32  O   UNL     1     -33.256  34.285   2.625  0.00  0.00    -0.382 OA
ATOM     33  H   UNL     1     -32.423  34.757   2.782  0.00  0.00    +0.210 HD
ENDBRANCH  28  32
BRANCH  29  34
ATOM     34  O   UNL     1     -35.444  33.545   1.102  0.00  0.00    -0.380 OA
ATOM     35  H   UNL     1     -36.188  33.334   1.689  0.00  0.00    +0.211 HD
ENDBRANCH  29  34
ENDBRANCH   5  26
TORSDOF 3
ENDMDL
MODEL 5
REMARK VINA RESULT:      -7.1     11.195     14.636
REMARK  Name = 197435
REMARK  3 active torsions:
REMARK  status: ('A' for Active; 'I' for Inactive)
REMARK    1  A    between atoms: C_5  and  C_26
REMARK    2  A    between atoms: C_28  and  O_32
REMARK    3  A    between atoms: C_29  and  O_34
REMARK                            x       y       z     vdW  Elec       q    Type
REMARK                         _______ _______ _______ _____ _____    ______ ____
ROOT
ATOM      1  O   UNL     1     -27.938  29.954   4.425  0.00  0.00    -0.291 OA
ATOM      2  N   UNL     1     -35.411  26.487   4.616  0.00  0.00    -0.400 NA
ATOM      3  N   UNL     1     -32.909  28.141   5.383  0.00  0.00    -0.408 NA
ATOM      4  N   UNL     1     -31.567  25.833   0.127  0.00  0.00    -0.264 NA
ATOM      5  C   UNL     1     -36.108  24.378   1.603  0.00  0.00    +0.056 C 
ATOM      6  C   UNL     1     -35.461  25.299   2.573  0.00  0.00    +0.012 C 
ATOM      7  C   UNL     1     -37.642  24.500   1.691  0.00  0.00    +0.033 C 
ATOM      8  C   UNL     1     -34.295  25.944   2.658  0.00  0.00    +0.028 C 
ATOM      9  C   UNL     1     -36.111  25.715   3.836  0.00  0.00    +0.127 C 
ATOM     10  C   UNL     1     -34.245  26.678   3.924  0.00  0.00    +0.157 C 
ATOM     11  C   UNL     1     -38.174  24.685   3.087  0.00  0.00    -0.023 C 
ATOM     12  C   UNL     1     -33.149  26.004   1.789  0.00  0.00    +0.003 C 
ATOM     13  C   UNL     1     -37.480  25.235   4.093  0.00  0.00    +0.027 C 
ATOM     14  C   UNL     1     -33.154  27.394   4.242  0.00  0.00    +0.146 C 
ATOM     15  C   UNL     1     -31.979  27.459   3.340  0.00  0.00    +0.103 C 
ATOM     16  C   UNL     1     -31.990  26.795   2.178  0.00  0.00    +0.005 C 
ATOM     17  C   UNL     1     -31.022  28.303   3.982  0.00  0.00    +0.017 C 
ATOM     18  C   UNL     1     -31.709  28.657   5.246  0.00  0.00    +0.106 C 
ATOM     19  C   UNL     1     -32.828  25.482   0.597  0.00  0.00    +0.152 C 
ATOM     20  C   UNL     1     -31.018  29.478   6.286  0.00  0.00    +0.067 C 
ATOM     21  C   UNL     1     -31.068  26.608   1.052  0.00  0.00    +0.090 C 
ATOM     22  C   UNL     1     -29.801  28.732   3.677  0.00  0.00    +0.036 C 
ATOM     23  C   UNL     1     -29.951  30.369   5.671  0.00  0.00    +0.077 C 
ATOM     24  C   UNL     1     -29.125  29.680   4.598  0.00  0.00    +0.173 C 
ENDROOT
BRANCH   5  26
ATOM     25  O   UNL     1     -34.701  22.596   0.872  0.00  0.00    -0.356 OA
ATOM     26  C   UNL     1     -35.662  22.948   1.873  0.00  0.00    +0.122 C 
ATOM     27  C   UNL     1     -36.854  21.984   1.830  0.00  0.00    +0.062 C 
ATOM     28  C   UNL     1     -36.385  20.538   1.982  0.00  0.00    +0.142 C 
ATOM     29  C   UNL     1     -35.280  20.239   0.965  0.00  0.00    +0.164 C 
ATOM     30  C   UNL     1     -34.158  21.283   1.055  0.00  0.00    +0.144 C 
ATOM     31  C   UNL     1     -33.095  21.082  -0.021  0.00  0.00    +0.035 C 
BRANCH  28  32
ATOM     32  O   UNL     1     -35.877  20.343   3.303  0.00  0.00    -0.382 OA
ATOM     33  H   UNL     1     -36.039  21.141   3.831  0.00  0.00    +0.210 HD
ENDBRANCH  28  32
BRANCH  29  34
ATOM     34  O   UNL     1     -34.787  18.925   1.192  0.00  0.00    -0.380 OA
ATOM     35  H   UNL     1     -33.924  18.825   0.760  0.00  0.00    +0.211 HD
ENDBRANCH  29  34
ENDBRANCH   5  26
TORSDOF 3
ENDMDL
MODEL 6
REMARK VINA RESULT:      -7.0     11.354     13.729
REMARK  Name = 197435
REMARK  3 active torsions:
REMARK  status: ('A' for Active; 'I' for Inactive)
REMARK    1  A    between atoms: C_5  and  C_26
REMARK    2  A    between atoms: C_28  and  O_32
REMARK    3  A    between atoms: C_29  and  O_34
REMARK                            x       y       z     vdW  Elec       q    Type
REMARK                         _______ _______ _______ _____ _____    ______ ____
ROOT
ATOM      1  O   UNL     1     -30.889  16.833   0.566  0.00  0.00    -0.291 OA
ATOM      2  N   UNL     1     -33.399  24.598  -0.570  0.00  0.00    -0.400 NA
ATOM      3  N   UNL     1     -31.775  21.969  -0.755  0.00  0.00    -0.408 NA
ATOM      4  N   UNL     1     -36.243  20.665   2.862  0.00  0.00    -0.264 NA
ATOM      5  C   UNL     1     -36.488  25.423   1.375  0.00  0.00    +0.056 C 
ATOM      6  C   UNL     1     -35.341  24.696   0.773  0.00  0.00    +0.012 C 
ATOM      7  C   UNL     1     -36.948  26.562   0.443  0.00  0.00    +0.033 C 
ATOM      8  C   UNL     1     -34.841  23.460   0.843  0.00  0.00    +0.028 C 
ATOM      9  C   UNL     1     -34.385  25.340  -0.156  0.00  0.00    +0.127 C 
ATOM     10  C   UNL     1     -33.630  23.386   0.022  0.00  0.00    +0.157 C 
ATOM     11  C   UNL     1     -35.828  27.285  -0.257  0.00  0.00    -0.023 C 
ATOM     12  C   UNL     1     -35.247  22.283   1.566  0.00  0.00    +0.003 C 
ATOM     13  C   UNL     1     -34.636  26.741  -0.534  0.00  0.00    +0.027 C 
ATOM     14  C   UNL     1     -32.938  22.237  -0.051  0.00  0.00    +0.146 C 
ATOM     15  C   UNL     1     -33.365  21.026   0.690  0.00  0.00    +0.103 C 
ATOM     16  C   UNL     1     -34.463  21.061   1.454  0.00  0.00    +0.005 C 
ATOM     17  C   UNL     1     -32.415  20.005   0.379  0.00  0.00    +0.017 C 
ATOM     18  C   UNL     1     -31.472  20.714  -0.519  0.00  0.00    +0.106 C 
ATOM     19  C   UNL     1     -36.255  21.974   2.394  0.00  0.00    +0.152 C 
ATOM     20  C   UNL     1     -30.245  20.029  -1.027  0.00  0.00    +0.067 C 
ATOM     21  C   UNL     1     -35.192  20.120   2.312  0.00  0.00    +0.090 C 
ATOM     22  C   UNL     1     -32.262  18.733   0.730  0.00  0.00    +0.036 C 
ATOM     23  C   UNL     1     -30.431  18.522  -1.081  0.00  0.00    +0.077 C 
ATOM     24  C   UNL     1     -31.150  17.953   0.130  0.00  0.00    +0.173 C 
ENDROOT
BRANCH   5  26
ATOM     25  O   UNL     1     -34.686  26.212   2.724  0.00  0.00    -0.356 OA
ATOM     26  C   UNL     1     -36.096  25.966   2.742  0.00  0.00    +0.122 C 
ATOM     27  C   UNL     1     -36.450  24.967   3.851  0.00  0.00    +0.062 C 
ATOM     28  C   UNL     1     -35.947  25.464   5.205  0.00  0.00    +0.142 C 
ATOM     29  C   UNL     1     -34.461  25.819   5.111  0.00  0.00    +0.164 C 
ATOM     30  C   UNL     1     -34.204  26.785   3.945  0.00  0.00    +0.144 C 
ATOM     31  C   UNL     1     -32.718  27.072   3.750  0.00  0.00    +0.035 C 
BRANCH  28  32
ATOM     32  O   UNL     1     -36.687  26.625   5.586  0.00  0.00    -0.382 OA
ATOM     33  H   UNL     1     -36.553  26.798   6.531  0.00  0.00    +0.210 HD
ENDBRANCH  28  32
BRANCH  29  34
ATOM     34  O   UNL     1     -34.039  26.376   6.349  0.00  0.00    -0.380 OA
ATOM     35  H   UNL     1     -34.029  27.344   6.281  0.00  0.00    +0.211 HD
ENDBRANCH  29  34
ENDBRANCH   5  26
TORSDOF 3
ENDMDL
MODEL 7
REMARK VINA RESULT:      -7.0      8.303     11.273
REMARK  Name = 197435
REMARK  3 active torsions:
REMARK  status: ('A' for Active; 'I' for Inactive)
REMARK    1  A    between atoms: C_5  and  C_26
REMARK    2  A    between atoms: C_28  and  O_32
REMARK    3  A    between atoms: C_29  and  O_34
REMARK                            x       y       z     vdW  Elec       q    Type
REMARK                         _______ _______ _______ _____ _____    ______ ____
ROOT
ATOM      1  O   UNL     1     -43.584  26.646  -1.745  0.00  0.00    -0.291 OA
ATOM      2  N   UNL     1     -36.951  25.784   3.067  0.00  0.00    -0.400 NA
ATOM      3  N   UNL     1     -39.207  27.033   1.355  0.00  0.00    -0.408 NA
ATOM      4  N   UNL     1     -40.300  21.243   1.195  0.00  0.00    -0.264 NA
ATOM      5  C   UNL     1     -36.212  22.209   3.890  0.00  0.00    +0.056 C 
ATOM      6  C   UNL     1     -36.855  23.442   3.368  0.00  0.00    +0.012 C 
ATOM      7  C   UNL     1     -35.453  22.513   5.197  0.00  0.00    +0.033 C 
ATOM      8  C   UNL     1     -37.921  23.727   2.617  0.00  0.00    +0.028 C 
ATOM      9  C   UNL     1     -36.314  24.795   3.626  0.00  0.00    +0.127 C 
ATOM     10  C   UNL     1     -37.990  25.176   2.414  0.00  0.00    +0.157 C 
ATOM     11  C   UNL     1     -34.750  23.844   5.214  0.00  0.00    -0.023 C 
ATOM     12  C   UNL     1     -38.923  22.903   1.992  0.00  0.00    +0.003 C 
ATOM     13  C   UNL     1     -35.127  24.906   4.490  0.00  0.00    +0.027 C 
ATOM     14  C   UNL     1     -38.976  25.704   1.671  0.00  0.00    +0.146 C 
ATOM     15  C   UNL     1     -40.010  24.852   1.036  0.00  0.00    +0.103 C 
ATOM     16  C   UNL     1     -39.973  23.523   1.197  0.00  0.00    +0.005 C 
ATOM     17  C   UNL     1     -40.891  25.734   0.340  0.00  0.00    +0.017 C 
ATOM     18  C   UNL     1     -40.284  27.060   0.604  0.00  0.00    +0.106 C 
ATOM     19  C   UNL     1     -39.180  21.589   1.943  0.00  0.00    +0.152 C 
ATOM     20  C   UNL     1     -40.849  28.295  -0.022  0.00  0.00    +0.067 C 
ATOM     21  C   UNL     1     -40.773  22.376   0.753  0.00  0.00    +0.090 C 
ATOM     22  C   UNL     1     -41.982  25.572  -0.403  0.00  0.00    +0.036 C 
ATOM     23  C   UNL     1     -42.327  28.132  -0.336  0.00  0.00    +0.077 C 
ATOM     24  C   UNL     1     -42.681  26.775  -0.921  0.00  0.00    +0.173 C 
ENDROOT
BRANCH   5  26
ATOM     25  O   UNL     1     -35.136  22.602   1.798  0.00  0.00    -0.356 OA
ATOM     26  C   UNL     1     -35.272  21.631   2.841  0.00  0.00    +0.122 C 
ATOM     27  C   UNL     1     -35.822  20.316   2.276  0.00  0.00    +0.062 C 
ATOM     28  C   UNL     1     -34.937  19.803   1.141  0.00  0.00    +0.142 C 
ATOM     29  C   UNL     1     -34.728  20.910   0.103  0.00  0.00    +0.164 C 
ATOM     30  C   UNL     1     -34.221  22.196   0.772  0.00  0.00    +0.144 C 
ATOM     31  C   UNL     1     -34.110  23.354  -0.215  0.00  0.00    +0.035 C 
BRANCH  28  32
ATOM     32  O   UNL     1     -33.672  19.407   1.672  0.00  0.00    -0.382 OA
ATOM     33  H   UNL     1     -33.235  20.176   2.073  0.00  0.00    +0.210 HD
ENDBRANCH  28  32
BRANCH  29  34
ATOM     34  O   UNL     1     -33.820  20.448  -0.888  0.00  0.00    -0.380 OA
ATOM     35  H   UNL     1     -33.709  19.488  -0.803  0.00  0.00    +0.211 HD
ENDBRANCH  29  34
ENDBRANCH   5  26
TORSDOF 3
ENDMDL
MODEL 8
REMARK VINA RESULT:      -6.7     11.459     14.454
REMARK  Name = 197435
REMARK  3 active torsions:
REMARK  status: ('A' for Active; 'I' for Inactive)
REMARK    1  A    between atoms: C_5  and  C_26
REMARK    2  A    between atoms: C_28  and  O_32
REMARK    3  A    between atoms: C_29  and  O_34
REMARK                            x       y       z     vdW  Elec       q    Type
REMARK                         _______ _______ _______ _____ _____    ______ ____
ROOT
ATOM      1  O   UNL     1     -31.152  32.614   3.154  0.00  0.00    -0.291 OA
ATOM      2  N   UNL     1     -33.744  25.121   5.396  0.00  0.00    -0.400 NA
ATOM      3  N   UNL     1     -32.396  27.907   5.437  0.00  0.00    -0.408 NA
ATOM      4  N   UNL     1     -35.007  27.636   0.159  0.00  0.00    -0.264 NA
ATOM      5  C   UNL     1     -35.743  23.420   2.728  0.00  0.00    +0.056 C 
ATOM      6  C   UNL     1     -34.960  24.424   3.493  0.00  0.00    +0.012 C 
ATOM      7  C   UNL     1     -36.522  22.501   3.691  0.00  0.00    +0.033 C 
ATOM      8  C   UNL     1     -34.502  25.659   3.272  0.00  0.00    +0.028 C 
ATOM      9  C   UNL     1     -34.458  24.172   4.862  0.00  0.00    +0.127 C 
ATOM     10  C   UNL     1     -33.737  26.101   4.440  0.00  0.00    +0.157 C 
ATOM     11  C   UNL     1     -35.774  22.138   4.946  0.00  0.00    -0.023 C 
ATOM     12  C   UNL     1     -34.599  26.548   2.144  0.00  0.00    +0.003 C 
ATOM     13  C   UNL     1     -34.812  22.891   5.497  0.00  0.00    +0.027 C 
ATOM     14  C   UNL     1     -33.160  27.314   4.445  0.00  0.00    +0.146 C 
ATOM     15  C   UNL     1     -33.270  28.229   3.284  0.00  0.00    +0.103 C 
ATOM     16  C   UNL     1     -33.956  27.853   2.198  0.00  0.00    +0.005 C 
ATOM     17  C   UNL     1     -32.554  29.415   3.633  0.00  0.00    +0.017 C 
ATOM     18  C   UNL     1     -32.048  29.091   4.988  0.00  0.00    +0.106 C 
ATOM     19  C   UNL     1     -35.183  26.498   0.939  0.00  0.00    +0.152 C 
ATOM     20  C   UNL     1     -31.153  30.042   5.715  0.00  0.00    +0.067 C 
ATOM     21  C   UNL     1     -34.287  28.439   0.894  0.00  0.00    +0.090 C 
ATOM     22  C   UNL     1     -32.296  30.566   3.020  0.00  0.00    +0.036 C 
ATOM     23  C   UNL     1     -31.377  31.475   5.258  0.00  0.00    +0.077 C 
ATOM     24  C   UNL     1     -31.546  31.616   3.755  0.00  0.00    +0.173 C 
ENDROOT
BRANCH   5  26
ATOM     25  O   UNL     1     -34.539  23.386   0.669  0.00  0.00    -0.356 OA
ATOM     26  C   UNL     1     -34.813  22.608   1.838  0.00  0.00    +0.122 C 
ATOM     27  C   UNL     1     -35.453  21.269   1.451  0.00  0.00    +0.062 C 
ATOM     28  C   UNL     1     -34.567  20.512   0.464  0.00  0.00    +0.142 C 
ATOM     29  C   UNL     1     -34.209  21.419  -0.717  0.00  0.00    +0.164 C 
ATOM     30  C   UNL     1     -33.619  22.748  -0.225  0.00  0.00    +0.144 C 
ATOM     31  C   UNL     1     -33.357  23.722  -1.370  0.00  0.00    +0.035 C 
BRANCH  28  32
ATOM     32  O   UNL     1     -33.368  20.102   1.125  0.00  0.00    -0.382 OA
ATOM     33  H   UNL     1     -32.862  19.516   0.540  0.00  0.00    +0.210 HD
ENDBRANCH  28  32
BRANCH  29  34
ATOM     34  O   UNL     1     -33.302  20.732  -1.569  0.00  0.00    -0.380 OA
ATOM     35  H   UNL     1     -33.689  19.885  -1.838  0.00  0.00    +0.211 HD
ENDBRANCH  29  34
ENDBRANCH   5  26
TORSDOF 3
ENDMDL
MODEL 9
REMARK VINA RESULT:      -6.6      8.276     11.514
REMARK  Name = 197435
REMARK  3 active torsions:
REMARK  status: ('A' for Active; 'I' for Inactive)
REMARK    1  A    between atoms: C_5  and  C_26
REMARK    2  A    between atoms: C_28  and  O_32
REMARK    3  A    between atoms: C_29  and  O_34
REMARK                            x       y       z     vdW  Elec       q    Type
REMARK                         _______ _______ _______ _____ _____    ______ ____
ROOT
ATOM      1  O   UNL     1     -42.185  28.449  -2.417  0.00  0.00    -0.291 OA
ATOM      2  N   UNL     1     -36.043  26.620   2.762  0.00  0.00    -0.400 NA
ATOM      3  N   UNL     1     -37.884  28.146   0.796  0.00  0.00    -0.408 NA
ATOM      4  N   UNL     1     -40.438  22.864   1.374  0.00  0.00    -0.264 NA
ATOM      5  C   UNL     1     -36.262  23.130   4.096  0.00  0.00    +0.056 C 
ATOM      6  C   UNL     1     -36.559  24.399   3.382  0.00  0.00    +0.012 C 
ATOM      7  C   UNL     1     -35.462  23.414   5.382  0.00  0.00    +0.033 C 
ATOM      8  C   UNL     1     -37.509  24.837   2.552  0.00  0.00    +0.028 C 
ATOM      9  C   UNL     1     -35.689  25.592   3.478  0.00  0.00    +0.127 C 
ATOM     10  C   UNL     1     -37.198  26.211   2.151  0.00  0.00    +0.157 C 
ATOM     11  C   UNL     1     -34.437  24.511   5.250  0.00  0.00    -0.023 C 
ATOM     12  C   UNL     1     -38.684  24.215   2.000  0.00  0.00    +0.003 C 
ATOM     13  C   UNL     1     -34.520  25.519   4.372  0.00  0.00    +0.027 C 
ATOM     14  C   UNL     1     -38.008  26.861   1.299  0.00  0.00    +0.146 C 
ATOM     15  C   UNL     1     -39.221  26.219   0.741  0.00  0.00    +0.103 C 
ATOM     16  C   UNL     1     -39.531  24.962   1.082  0.00  0.00    +0.005 C 
ATOM     17  C   UNL     1     -39.838  27.188  -0.108  0.00  0.00    +0.017 C 
ATOM     18  C   UNL     1     -38.911  28.339  -0.000  0.00  0.00    +0.106 C 
ATOM     19  C   UNL     1     -39.273  23.017   2.118  0.00  0.00    +0.152 C 
ATOM     20  C   UNL     1     -39.131  29.574  -0.812  0.00  0.00    +0.067 C 
ATOM     21  C   UNL     1     -40.597  24.006   0.762  0.00  0.00    +0.090 C 
ATOM     22  C   UNL     1     -40.927  27.205  -0.871  0.00  0.00    +0.036 C 
ATOM     23  C   UNL     1     -40.598  29.751  -1.168  0.00  0.00    +0.077 C 
ATOM     24  C   UNL     1     -41.286  28.460  -1.579  0.00  0.00    +0.173 C 
ENDROOT
BRANCH   5  26
ATOM     25  O   UNL     1     -35.173  22.910   1.985  0.00  0.00    -0.356 OA
ATOM     26  C   UNL     1     -35.495  22.189   3.178  0.00  0.00    +0.122 C 
ATOM     27  C   UNL     1     -36.332  20.948   2.841  0.00  0.00    +0.062 C 
ATOM     28  C   UNL     1     -35.606  20.065   1.827  0.00  0.00    +0.142 C 
ATOM     29  C   UNL     1     -35.183  20.903   0.617  0.00  0.00    +0.164 C 
ATOM     30  C   UNL     1     -34.393  22.142   1.060  0.00  0.00    +0.144 C 
ATOM     31  C   UNL     1     -34.054  23.060  -0.111  0.00  0.00    +0.035 C 
BRANCH  28  32
ATOM     32  O   UNL     1     -34.446  19.500   2.440  0.00  0.00    -0.382 OA
ATOM     33  H   UNL     1     -33.922  20.205   2.852  0.00  0.00    +0.210 HD
ENDBRANCH  28  32
BRANCH  29  34
ATOM     34  O   UNL     1     -34.420  20.089  -0.264  0.00  0.00    -0.380 OA
ATOM     35  H   UNL     1     -33.481  20.318  -0.184  0.00  0.00    +0.211 HD
ENDBRANCH  29  34
ENDBRANCH   5  26
TORSDOF 3
ENDMDL
