MODEL 1
REMARK VINA RESULT:      -6.4      0.000      0.000
REMARK  Name = 21126380
REMARK  6 active torsions:
REMARK  status: ('A' for Active; 'I' for Inactive)
REMARK    1  A    between atoms: C_9  and  C_28
REMARK    2  A    between atoms: C_12  and  O_21
REMARK    3  A    between atoms: C_19  and  O_23
REMARK    4  A    between atoms: C_20  and  O_25
REMARK    5  A    between atoms: C_28  and  C_29
REMARK    6  A    between atoms: C_29  and  O_30
REMARK                            x       y       z     vdW  Elec       q    Type
REMARK                         _______ _______ _______ _____ _____    ______ ____
ROOT
ATOM      1  O   UNL     1     -35.041  27.372   4.461  0.00  0.00    -0.333 OA
ATOM      2  C   UNL     1     -34.591  25.141   3.746  0.00  0.00    +0.061 C 
ATOM      3  C   UNL     1     -32.623  27.267   4.115  0.00  0.00    +0.027 C 
ATOM      4  C   UNL     1     -33.471  25.369   2.686  0.00  0.00    +0.005 C 
ATOM      5  C   UNL     1     -32.945  26.814   2.657  0.00  0.00    +0.003 C 
ATOM      6  C   UNL     1     -32.140  28.763   4.158  0.00  0.00    +0.005 C 
ATOM      7  C   UNL     1     -33.814  26.896   5.050  0.00  0.00    +0.118 C 
ATOM      8  C   UNL     1     -33.982  25.375   5.114  0.00  0.00    +0.035 C 
ATOM      9  C   UNL     1     -35.017  23.719   3.381  0.00  0.00    +0.065 C 
ATOM     10  C   UNL     1     -30.914  28.931   3.193  0.00  0.00    +0.003 C 
ATOM     11  C   UNL     1     -34.102  24.850   1.395  0.00  0.00    +0.001 C 
ATOM     12  C   UNL     1     -35.643  26.275   3.734  0.00  0.00    +0.232 C 
ATOM     13  C   UNL     1     -31.733  26.982   1.739  0.00  0.00    +0.000 C 
ATOM     14  C   UNL     1     -35.042  23.721   1.844  0.00  0.00    +0.008 C 
ATOM     15  C   UNL     1     -31.208  28.417   1.770  0.00  0.00    +0.000 C 
ATOM     16  C   UNL     1     -31.707  29.201   5.586  0.00  0.00    +0.032 C 
ATOM     17  C   UNL     1     -29.631  28.264   3.733  0.00  0.00    +0.032 C 
ATOM     18  C   UNL     1     -33.264  29.743   3.736  0.00  0.00    +0.000 C 
ATOM     19  C   UNL     1     -30.453  28.505   6.107  0.00  0.00    +0.137 C 
ATOM     20  C   UNL     1     -29.282  28.706   5.151  0.00  0.00    +0.137 C 
ENDROOT
BRANCH  12  21
ATOM     21  O   UNL     1     -36.878  25.941   4.354  0.00  0.00    -0.360 OA
ATOM     22  H   UNL     1     -37.076  25.004   4.195  0.00  0.00    +0.213 HD
ENDBRANCH  12  21
BRANCH  19  23
ATOM     23  O   UNL     1     -30.120  29.051   7.384  0.00  0.00    -0.382 OA
ATOM     24  H   UNL     1     -29.439  29.733   7.277  0.00  0.00    +0.210 HD
ENDBRANCH  19  23
BRANCH  20  25
ATOM     25  O   UNL     1     -28.156  27.956   5.608  0.00  0.00    -0.382 OA
ATOM     26  H   UNL     1     -28.457  27.258   6.212  0.00  0.00    +0.210 HD
ENDBRANCH  20  25
BRANCH   9  28
ATOM     27  O   UNL     1     -36.439  23.070   5.174  0.00  0.00    -0.293 OA
ATOM     28  C   UNL     1     -36.306  23.233   3.962  0.00  0.00    +0.180 C 
BRANCH  28  29
ATOM     29  C   UNL     1     -37.423  22.958   2.978  0.00  0.00    +0.202 C 
BRANCH  29  30
ATOM     30  O   UNL     1     -38.535  23.785   3.243  0.00  0.00    -0.375 OA
ATOM     31  H   UNL     1     -38.309  24.420   3.939  0.00  0.00    +0.211 HD
ENDBRANCH  29  30
ENDBRANCH  28  29
ENDBRANCH   9  28
TORSDOF 6
ENDMDL
MODEL 2
REMARK VINA RESULT:      -6.2      2.418      7.034
REMARK  Name = 21126380
REMARK  6 active torsions:
REMARK  status: ('A' for Active; 'I' for Inactive)
REMARK    1  A    between atoms: C_9  and  C_28
REMARK    2  A    between atoms: C_12  and  O_21
REMARK    3  A    between atoms: C_19  and  O_23
REMARK    4  A    between atoms: C_20  and  O_25
REMARK    5  A    between atoms: C_28  and  C_29
REMARK    6  A    between atoms: C_29  and  O_30
REMARK                            x       y       z     vdW  Elec       q    Type
REMARK                         _______ _______ _______ _____ _____    ______ ____
ROOT
ATOM      1  O   UNL     1     -35.963  26.499   2.619  0.00  0.00    -0.333 OA
ATOM      2  C   UNL     1     -33.752  26.817   3.454  0.00  0.00    +0.061 C 
ATOM      3  C   UNL     1     -35.095  24.255   3.055  0.00  0.00    +0.027 C 
ATOM      4  C   UNL     1     -33.661  25.704   4.540  0.00  0.00    +0.005 C 
ATOM      5  C   UNL     1     -34.854  24.734   4.520  0.00  0.00    +0.003 C 
ATOM      6  C   UNL     1     -36.346  23.308   2.958  0.00  0.00    +0.005 C 
ATOM      7  C   UNL     1     -35.081  25.485   2.097  0.00  0.00    +0.118 C 
ATOM      8  C   UNL     1     -33.696  26.141   2.098  0.00  0.00    +0.035 C 
ATOM      9  C   UNL     1     -32.569  27.693   3.871  0.00  0.00    +0.065 C 
ATOM     10  C   UNL     1     -36.159  22.112   3.956  0.00  0.00    +0.003 C 
ATOM     11  C   UNL     1     -33.449  26.493   5.832  0.00  0.00    +0.001 C 
ATOM     12  C   UNL     1     -35.165  27.440   3.375  0.00  0.00    +0.232 C 
ATOM     13  C   UNL     1     -34.669  23.550   5.471  0.00  0.00    +0.000 C 
ATOM     14  C   UNL     1     -32.665  27.742   5.404  0.00  0.00    +0.008 C 
ATOM     15  C   UNL     1     -35.850  22.584   5.390  0.00  0.00    +0.000 C 
ATOM     16  C   UNL     1     -36.539  22.731   1.527  0.00  0.00    +0.032 C 
ATOM     17  C   UNL     1     -35.081  21.109   3.494  0.00  0.00    +0.032 C 
ATOM     18  C   UNL     1     -37.661  24.056   3.293  0.00  0.00    +0.000 C 
ATOM     19  C   UNL     1     -35.443  21.765   1.083  0.00  0.00    +0.137 C 
ATOM     20  C   UNL     1     -35.305  20.609   2.070  0.00  0.00    +0.137 C 
ENDROOT
BRANCH  12  21
ATOM     21  O   UNL     1     -35.218  28.705   2.729  0.00  0.00    -0.360 OA
ATOM     22  H   UNL     1     -34.393  28.852   2.239  0.00  0.00    +0.213 HD
ENDBRANCH  12  21
BRANCH  19  23
ATOM     23  O   UNL     1     -35.778  21.249  -0.206  0.00  0.00    -0.382 OA
ATOM     24  H   UNL     1     -35.274  21.722  -0.885  0.00  0.00    +0.210 HD
ENDBRANCH  19  23
BRANCH  20  25
ATOM     25  O   UNL     1     -34.204  19.784   1.688  0.00  0.00    -0.382 OA
ATOM     26  H   UNL     1     -33.378  20.284   1.782  0.00  0.00    +0.210 HD
ENDBRANCH  20  25
BRANCH   9  28
ATOM     27  O   UNL     1     -32.380  29.216   2.054  0.00  0.00    -0.293 OA
ATOM     28  C   UNL     1     -32.498  29.058   3.268  0.00  0.00    +0.180 C 
BRANCH  28  29
ATOM     29  C   UNL     1     -32.579  30.222   4.234  0.00  0.00    +0.202 C 
BRANCH  29  30
ATOM     30  O   UNL     1     -33.867  30.800   4.210  0.00  0.00    -0.375 OA
ATOM     31  H   UNL     1     -33.983  31.365   4.990  0.00  0.00    +0.211 HD
ENDBRANCH  29  30
ENDBRANCH  28  29
ENDBRANCH   9  28
TORSDOF 6
ENDMDL
MODEL 3
REMARK VINA RESULT:      -6.1      2.869      6.693
REMARK  Name = 21126380
REMARK  6 active torsions:
REMARK  status: ('A' for Active; 'I' for Inactive)
REMARK    1  A    between atoms: C_9  and  C_28
REMARK    2  A    between atoms: C_12  and  O_21
REMARK    3  A    between atoms: C_19  and  O_23
REMARK    4  A    between atoms: C_20  and  O_25
REMARK    5  A    between atoms: C_28  and  C_29
REMARK    6  A    between atoms: C_29  and  O_30
REMARK                            x       y       z     vdW  Elec       q    Type
REMARK                         _______ _______ _______ _____ _____    ______ ____
ROOT
ATOM      1  O   UNL     1     -35.033  25.984   0.969  0.00  0.00    -0.333 OA
ATOM      2  C   UNL     1     -32.740  26.399   1.475  0.00  0.00    +0.061 C 
ATOM      3  C   UNL     1     -34.598  24.802   3.064  0.00  0.00    +0.027 C 
ATOM      4  C   UNL     1     -32.781  26.551   3.026  0.00  0.00    +0.005 C 
ATOM      5  C   UNL     1     -34.141  26.179   3.638  0.00  0.00    +0.003 C 
ATOM      6  C   UNL     1     -36.017  24.396   3.605  0.00  0.00    +0.005 C 
ATOM      7  C   UNL     1     -34.420  24.800   1.515  0.00  0.00    +0.118 C 
ATOM      8  C   UNL     1     -32.937  24.931   1.153  0.00  0.00    +0.035 C 
ATOM      9  C   UNL     1     -31.374  27.023   1.183  0.00  0.00    +0.065 C 
ATOM     10  C   UNL     1     -35.988  24.411   5.174  0.00  0.00    +0.003 C 
ATOM     11  C   UNL     1     -32.305  27.986   3.248  0.00  0.00    +0.001 C 
ATOM     12  C   UNL     1     -34.002  26.985   0.799  0.00  0.00    +0.232 C 
ATOM     13  C   UNL     1     -34.116  26.165   5.168  0.00  0.00    +0.000 C 
ATOM     14  C   UNL     1     -31.327  28.258   2.096  0.00  0.00    +0.008 C 
ATOM     15  C   UNL     1     -35.469  25.746   5.742  0.00  0.00    +0.000 C 
ATOM     16  C   UNL     1     -36.444  22.976   3.134  0.00  0.00    +0.032 C 
ATOM     17  C   UNL     1     -35.176  23.241   5.770  0.00  0.00    +0.032 C 
ATOM     18  C   UNL     1     -37.122  25.359   3.103  0.00  0.00    +0.000 C 
ATOM     19  C   UNL     1     -35.605  21.840   3.715  0.00  0.00    +0.137 C 
ATOM     20  C   UNL     1     -35.617  21.880   5.240  0.00  0.00    +0.137 C 
ENDROOT
BRANCH  12  21
ATOM     21  O   UNL     1     -33.855  27.258  -0.588  0.00  0.00    -0.360 OA
ATOM     22  H   UNL     1     -34.069  28.190  -0.758  0.00  0.00    +0.213 HD
ENDBRANCH  12  21
BRANCH  19  23
ATOM     23  O   UNL     1     -36.147  20.595   3.270  0.00  0.00    -0.382 OA
ATOM     24  H   UNL     1     -36.987  20.427   3.724  0.00  0.00    +0.210 HD
ENDBRANCH  19  23
BRANCH  20  25
ATOM     25  O   UNL     1     -34.741  20.876   5.751  0.00  0.00    -0.382 OA
ATOM     26  H   UNL     1     -34.323  21.196   6.566  0.00  0.00    +0.210 HD
ENDBRANCH  20  25
BRANCH   9  28
ATOM     27  O   UNL     1     -31.309  28.491  -0.687  0.00  0.00    -0.293 OA
ATOM     28  C   UNL     1     -31.084  27.367  -0.242  0.00  0.00    +0.180 C 
BRANCH  28  29
ATOM     29  C   UNL     1     -30.503  26.258  -1.094  0.00  0.00    +0.202 C 
BRANCH  29  30
ATOM     30  O   UNL     1     -29.688  25.408  -0.317  0.00  0.00    -0.375 OA
ATOM     31  H   UNL     1     -30.003  25.405   0.600  0.00  0.00    +0.211 HD
ENDBRANCH  29  30
ENDBRANCH  28  29
ENDBRANCH   9  28
TORSDOF 6
ENDMDL
MODEL 4
REMARK VINA RESULT:      -6.0      4.588      6.928
REMARK  Name = 21126380
REMARK  6 active torsions:
REMARK  status: ('A' for Active; 'I' for Inactive)
REMARK    1  A    between atoms: C_9  and  C_28
REMARK    2  A    between atoms: C_12  and  O_21
REMARK    3  A    between atoms: C_19  and  O_23
REMARK    4  A    between atoms: C_20  and  O_25
REMARK    5  A    between atoms: C_28  and  C_29
REMARK    6  A    between atoms: C_29  and  O_30
REMARK                            x       y       z     vdW  Elec       q    Type
REMARK                         _______ _______ _______ _____ _____    ______ ____
ROOT
ATOM      1  O   UNL     1     -37.901  26.062   1.951  0.00  0.00    -0.333 OA
ATOM      2  C   UNL     1     -39.980  24.899   1.831  0.00  0.00    +0.061 C 
ATOM      3  C   UNL     1     -37.411  23.765   2.631  0.00  0.00    +0.027 C 
ATOM      4  C   UNL     1     -39.533  23.507   1.292  0.00  0.00    +0.005 C 
ATOM      5  C   UNL     1     -38.006  23.330   1.255  0.00  0.00    +0.003 C 
ATOM      6  C   UNL     1     -35.842  23.667   2.634  0.00  0.00    +0.005 C 
ATOM      7  C   UNL     1     -38.021  25.137   3.050  0.00  0.00    +0.118 C 
ATOM      8  C   UNL     1     -39.530  24.999   3.275  0.00  0.00    +0.035 C 
ATOM      9  C   UNL     1     -41.481  24.824   1.548  0.00  0.00    +0.065 C 
ATOM     10  C   UNL     1     -35.420  22.210   2.233  0.00  0.00    +0.003 C 
ATOM     11  C   UNL     1     -40.261  23.401  -0.047  0.00  0.00    +0.001 C 
ATOM     12  C   UNL     1     -39.150  26.054   1.221  0.00  0.00    +0.232 C 
ATOM     13  C   UNL     1     -37.585  21.905   0.891  0.00  0.00    +0.000 C 
ATOM     14  C   UNL     1     -41.565  24.188   0.152  0.00  0.00    +0.008 C 
ATOM     15  C   UNL     1     -36.065  21.753   0.910  0.00  0.00    +0.000 C 
ATOM     16  C   UNL     1     -35.234  23.990   4.030  0.00  0.00    +0.032 C 
ATOM     17  C   UNL     1     -35.714  21.175   3.341  0.00  0.00    +0.032 C 
ATOM     18  C   UNL     1     -35.200  24.677   1.650  0.00  0.00    +0.000 C 
ATOM     19  C   UNL     1     -35.565  22.966   5.113  0.00  0.00    +0.137 C 
ATOM     20  C   UNL     1     -35.125  21.567   4.693  0.00  0.00    +0.137 C 
ENDROOT
BRANCH  12  21
ATOM     21  O   UNL     1     -39.752  27.337   1.332  0.00  0.00    -0.360 OA
ATOM     22  H   UNL     1     -39.310  27.954   0.727  0.00  0.00    +0.213 HD
ENDBRANCH  12  21
BRANCH  19  23
ATOM     23  O   UNL     1     -34.886  23.334   6.315  0.00  0.00    -0.382 OA
ATOM     24  H   UNL     1     -35.125  22.715   7.023  0.00  0.00    +0.210 HD
ENDBRANCH  19  23
BRANCH  20  25
ATOM     25  O   UNL     1     -35.542  20.619   5.675  0.00  0.00    -0.382 OA
ATOM     26  H   UNL     1     -35.885  19.826   5.233  0.00  0.00    +0.210 HD
ENDBRANCH  20  25
BRANCH   9  28
ATOM     27  O   UNL     1     -42.518  26.751   0.615  0.00  0.00    -0.293 OA
ATOM     28  C   UNL     1     -42.245  26.107   1.627  0.00  0.00    +0.180 C 
BRANCH  28  29
ATOM     29  C   UNL     1     -42.656  26.558   3.012  0.00  0.00    +0.202 C 
BRANCH  29  30
ATOM     30  O   UNL     1     -41.912  27.690   3.409  0.00  0.00    -0.375 OA
ATOM     31  H   UNL     1     -41.893  27.742   4.377  0.00  0.00    +0.211 HD
ENDBRANCH  29  30
ENDBRANCH  28  29
ENDBRANCH   9  28
TORSDOF 6
ENDMDL
MODEL 5
REMARK VINA RESULT:      -5.9      2.882      7.860
REMARK  Name = 21126380
REMARK  6 active torsions:
REMARK  status: ('A' for Active; 'I' for Inactive)
REMARK    1  A    between atoms: C_9  and  C_28
REMARK    2  A    between atoms: C_12  and  O_21
REMARK    3  A    between atoms: C_19  and  O_23
REMARK    4  A    between atoms: C_20  and  O_25
REMARK    5  A    between atoms: C_28  and  C_29
REMARK    6  A    between atoms: C_29  and  O_30
REMARK                            x       y       z     vdW  Elec       q    Type
REMARK                         _______ _______ _______ _____ _____    ______ ____
ROOT
ATOM      1  O   UNL     1     -37.919  25.721   3.447  0.00  0.00    -0.333 OA
ATOM      2  C   UNL     1     -35.720  24.830   3.682  0.00  0.00    +0.061 C 
ATOM      3  C   UNL     1     -37.676  24.085   1.647  0.00  0.00    +0.027 C 
ATOM      4  C   UNL     1     -35.946  23.331   3.319  0.00  0.00    +0.005 C 
ATOM      5  C   UNL     1     -37.350  23.044   2.763  0.00  0.00    +0.003 C 
ATOM      6  C   UNL     1     -39.129  23.884   1.081  0.00  0.00    +0.005 C 
ATOM      7  C   UNL     1     -37.322  25.517   2.151  0.00  0.00    +0.118 C 
ATOM      8  C   UNL     1     -35.814  25.632   2.400  0.00  0.00    +0.035 C 
ATOM      9  C   UNL     1     -34.358  24.734   4.373  0.00  0.00    +0.065 C 
ATOM     10  C   UNL     1     -39.282  22.404   0.583  0.00  0.00    +0.003 C 
ATOM     11  C   UNL     1     -35.562  22.599   4.605  0.00  0.00    +0.001 C 
ATOM     12  C   UNL     1     -36.920  25.430   4.452  0.00  0.00    +0.232 C 
ATOM     13  C   UNL     1     -37.501  21.611   2.250  0.00  0.00    +0.000 C 
ATOM     14  C   UNL     1     -34.471  23.472   5.242  0.00  0.00    +0.008 C 
ATOM     15  C   UNL     1     -38.891  21.375   1.662  0.00  0.00    +0.000 C 
ATOM     16  C   UNL     1     -39.436  24.838  -0.109  0.00  0.00    +0.032 C 
ATOM     17  C   UNL     1     -38.494  22.123  -0.714  0.00  0.00    +0.032 C 
ATOM     18  C   UNL     1     -40.210  24.180   2.151  0.00  0.00    +0.000 C 
ATOM     19  C   UNL     1     -38.621  24.558  -1.369  0.00  0.00    +0.137 C 
ATOM     20  C   UNL     1     -38.810  23.115  -1.829  0.00  0.00    +0.137 C 
ENDROOT
BRANCH  12  21
ATOM     21  O   UNL     1     -36.627  26.625   5.164  0.00  0.00    -0.360 OA
ATOM     22  H   UNL     1     -37.252  26.724   5.900  0.00  0.00    +0.213 HD
ENDBRANCH  12  21
BRANCH  19  23
ATOM     23  O   UNL     1     -39.052  25.444  -2.403  0.00  0.00    -0.382 OA
ATOM     24  H   UNL     1     -38.460  25.363  -3.166  0.00  0.00    +0.210 HD
ENDBRANCH  19  23
BRANCH  20  25
ATOM     25  O   UNL     1     -37.955  22.853  -2.942  0.00  0.00    -0.382 OA
ATOM     26  H   UNL     1     -38.412  23.094  -3.764  0.00  0.00    +0.210 HD
ENDBRANCH  20  25
BRANCH   9  28
ATOM     27  O   UNL     1     -34.128  25.997   6.375  0.00  0.00    -0.293 OA
ATOM     28  C   UNL     1     -33.921  25.923   5.165  0.00  0.00    +0.180 C 
BRANCH  28  29
ATOM     29  C   UNL     1     -33.217  27.019   4.393  0.00  0.00    +0.202 C 
BRANCH  29  30
ATOM     30  O   UNL     1     -34.100  28.087   4.125  0.00  0.00    -0.375 OA
ATOM     31  H   UNL     1     -34.564  27.922   3.289  0.00  0.00    +0.211 HD
ENDBRANCH  29  30
ENDBRANCH  28  29
ENDBRANCH   9  28
TORSDOF 6
ENDMDL
MODEL 6
REMARK VINA RESULT:      -5.9      4.557      8.569
REMARK  Name = 21126380
REMARK  6 active torsions:
REMARK  status: ('A' for Active; 'I' for Inactive)
REMARK    1  A    between atoms: C_9  and  C_28
REMARK    2  A    between atoms: C_12  and  O_21
REMARK    3  A    between atoms: C_19  and  O_23
REMARK    4  A    between atoms: C_20  and  O_25
REMARK    5  A    between atoms: C_28  and  C_29
REMARK    6  A    between atoms: C_29  and  O_30
REMARK                            x       y       z     vdW  Elec       q    Type
REMARK                         _______ _______ _______ _____ _____    ______ ____
ROOT
ATOM      1  O   UNL     1     -35.421  20.500   2.813  0.00  0.00    -0.333 OA
ATOM      2  C   UNL     1     -35.994  22.635   1.919  0.00  0.00    +0.061 C 
ATOM      3  C   UNL     1     -34.833  20.400   0.442  0.00  0.00    +0.027 C 
ATOM      4  C   UNL     1     -34.831  22.878   0.911  0.00  0.00    +0.005 C 
ATOM      5  C   UNL     1     -33.933  21.647   0.709  0.00  0.00    +0.003 C 
ATOM      6  C   UNL     1     -33.972  19.092   0.291  0.00  0.00    +0.005 C 
ATOM      7  C   UNL     1     -35.983  20.354   1.494  0.00  0.00    +0.118 C 
ATOM      8  C   UNL     1     -36.899  21.571   1.329  0.00  0.00    +0.035 C 
ATOM      9  C   UNL     1     -36.541  24.058   2.042  0.00  0.00    +0.065 C 
ATOM     10  C   UNL     1     -32.904  19.313  -0.837  0.00  0.00    +0.003 C 
ATOM     11  C   UNL     1     -34.151  24.132   1.459  0.00  0.00    +0.001 C 
ATOM     12  C   UNL     1     -35.517  21.893   3.190  0.00  0.00    +0.232 C 
ATOM     13  C   UNL     1     -32.905  21.842  -0.408  0.00  0.00    +0.000 C 
ATOM     14  C   UNL     1     -35.282  24.935   2.119  0.00  0.00    +0.008 C 
ATOM     15  C   UNL     1     -32.063  20.584  -0.613  0.00  0.00    +0.000 C 
ATOM     16  C   UNL     1     -34.839  17.857  -0.086  0.00  0.00    +0.032 C 
ATOM     17  C   UNL     1     -33.523  19.341  -2.252  0.00  0.00    +0.032 C 
ATOM     18  C   UNL     1     -33.254  18.719   1.612  0.00  0.00    +0.000 C 
ATOM     19  C   UNL     1     -35.463  17.924  -1.477  0.00  0.00    +0.137 C 
ATOM     20  C   UNL     1     -34.392  18.121  -2.545  0.00  0.00    +0.137 C 
ENDROOT
BRANCH  12  21
ATOM     21  O   UNL     1     -36.395  22.005   4.303  0.00  0.00    -0.360 OA
ATOM     22  H   UNL     1     -35.901  22.333   5.072  0.00  0.00    +0.213 HD
ENDBRANCH  12  21
BRANCH  19  23
ATOM     23  O   UNL     1     -36.162  16.703  -1.727  0.00  0.00    -0.382 OA
ATOM     24  H   UNL     1     -36.319  16.610  -2.680  0.00  0.00    +0.210 HD
ENDBRANCH  19  23
BRANCH  20  25
ATOM     25  O   UNL     1     -35.013  18.289  -3.820  0.00  0.00    -0.382 OA
ATOM     26  H   UNL     1     -35.901  17.898  -3.801  0.00  0.00    +0.210 HD
ENDBRANCH  20  25
BRANCH   9  28
ATOM     27  O   UNL     1     -38.575  23.769   3.241  0.00  0.00    -0.293 OA
ATOM     28  C   UNL     1     -37.479  24.322   3.176  0.00  0.00    +0.180 C 
BRANCH  28  29
ATOM     29  C   UNL     1     -37.000  25.301   4.227  0.00  0.00    +0.202 C 
BRANCH  29  30
ATOM     30  O   UNL     1     -36.495  24.617   5.353  0.00  0.00    -0.375 OA
ATOM     31  H   UNL     1     -35.844  23.957   5.066  0.00  0.00    +0.211 HD
ENDBRANCH  29  30
ENDBRANCH  28  29
ENDBRANCH   9  28
TORSDOF 6
ENDMDL
MODEL 7
REMARK VINA RESULT:      -5.8      5.130      9.210
REMARK  Name = 21126380
REMARK  6 active torsions:
REMARK  status: ('A' for Active; 'I' for Inactive)
REMARK    1  A    between atoms: C_9  and  C_28
REMARK    2  A    between atoms: C_12  and  O_21
REMARK    3  A    between atoms: C_19  and  O_23
REMARK    4  A    between atoms: C_20  and  O_25
REMARK    5  A    between atoms: C_28  and  C_29
REMARK    6  A    between atoms: C_29  and  O_30
REMARK                            x       y       z     vdW  Elec       q    Type
REMARK                         _______ _______ _______ _____ _____    ______ ____
ROOT
ATOM      1  O   UNL     1     -34.351  21.912   0.684  0.00  0.00    -0.333 OA
ATOM      2  C   UNL     1     -36.134  21.991   2.267  0.00  0.00    +0.061 C 
ATOM      3  C   UNL     1     -35.499  19.762   0.490  0.00  0.00    +0.027 C 
ATOM      4  C   UNL     1     -37.269  21.248   1.501  0.00  0.00    +0.005 C 
ATOM      5  C   UNL     1     -36.793  20.585   0.199  0.00  0.00    +0.003 C 
ATOM      6  C   UNL     1     -34.925  19.110  -0.820  0.00  0.00    +0.005 C 
ATOM      7  C   UNL     1     -34.508  20.630   1.324  0.00  0.00    +0.118 C 
ATOM      8  C   UNL     1     -35.113  20.955   2.694  0.00  0.00    +0.035 C 
ATOM      9  C   UNL     1     -36.956  22.684   3.355  0.00  0.00    +0.065 C 
ATOM     10  C   UNL     1     -36.047  18.244  -1.493  0.00  0.00    +0.003 C 
ATOM     11  C   UNL     1     -38.354  22.315   1.363  0.00  0.00    +0.001 C 
ATOM     12  C   UNL     1     -35.256  22.845   1.321  0.00  0.00    +0.232 C 
ATOM     13  C   UNL     1     -37.872  19.716  -0.451  0.00  0.00    +0.000 C 
ATOM     14  C   UNL     1     -38.200  23.195   2.612  0.00  0.00    +0.008 C 
ATOM     15  C   UNL     1     -37.350  19.036  -1.716  0.00  0.00    +0.000 C 
ATOM     16  C   UNL     1     -33.700  18.196  -0.535  0.00  0.00    +0.032 C 
ATOM     17  C   UNL     1     -36.353  16.948  -0.711  0.00  0.00    +0.032 C 
ATOM     18  C   UNL     1     -34.430  20.180  -1.826  0.00  0.00    +0.000 C 
ATOM     19  C   UNL     1     -34.025  16.937   0.265  0.00  0.00    +0.137 C 
ATOM     20  C   UNL     1     -35.106  16.114  -0.430  0.00  0.00    +0.137 C 
ENDROOT
BRANCH  12  21
ATOM     21  O   UNL     1     -34.491  23.850   1.972  0.00  0.00    -0.360 OA
ATOM     22  H   UNL     1     -34.795  24.725   1.684  0.00  0.00    +0.213 HD
ENDBRANCH  12  21
BRANCH  19  23
ATOM     23  O   UNL     1     -32.838  16.150   0.387  0.00  0.00    -0.382 OA
ATOM     24  H   UNL     1     -32.971  15.468   1.064  0.00  0.00    +0.210 HD
ENDBRANCH  19  23
BRANCH  20  25
ATOM     25  O   UNL     1     -35.464  15.004   0.392  0.00  0.00    -0.382 OA
ATOM     26  H   UNL     1     -35.575  14.215  -0.162  0.00  0.00    +0.210 HD
ENDBRANCH  20  25
BRANCH   9  28
ATOM     27  O   UNL     1     -36.329  24.943   3.756  0.00  0.00    -0.293 OA
ATOM     28  C   UNL     1     -36.275  23.770   4.123  0.00  0.00    +0.180 C 
BRANCH  28  29
ATOM     29  C   UNL     1     -35.522  23.342   5.365  0.00  0.00    +0.202 C 
BRANCH  29  30
ATOM     30  O   UNL     1     -36.137  22.219   5.959  0.00  0.00    -0.375 OA
ATOM     31  H   UNL     1     -35.947  21.428   5.431  0.00  0.00    +0.211 HD
ENDBRANCH  29  30
ENDBRANCH  28  29
ENDBRANCH   9  28
TORSDOF 6
ENDMDL
MODEL 8
REMARK VINA RESULT:      -5.7      3.359      7.747
REMARK  Name = 21126380
REMARK  6 active torsions:
REMARK  status: ('A' for Active; 'I' for Inactive)
REMARK    1  A    between atoms: C_9  and  C_28
REMARK    2  A    between atoms: C_12  and  O_21
REMARK    3  A    between atoms: C_19  and  O_23
REMARK    4  A    between atoms: C_20  and  O_25
REMARK    5  A    between atoms: C_28  and  C_29
REMARK    6  A    between atoms: C_29  and  O_30
REMARK                            x       y       z     vdW  Elec       q    Type
REMARK                         _______ _______ _______ _____ _____    ______ ____
ROOT
ATOM      1  O   UNL     1     -37.533  24.181   1.978  0.00  0.00    -0.333 OA
ATOM      2  C   UNL     1     -35.611  24.020   3.380  0.00  0.00    +0.061 C 
ATOM      3  C   UNL     1     -36.091  22.511   0.927  0.00  0.00    +0.027 C 
ATOM      4  C   UNL     1     -35.306  22.493   3.324  0.00  0.00    +0.005 C 
ATOM      5  C   UNL     1     -36.152  21.741   2.283  0.00  0.00    +0.003 C 
ATOM      6  C   UNL     1     -36.991  21.824  -0.164  0.00  0.00    +0.005 C 
ATOM      7  C   UNL     1     -36.344  24.028   1.179  0.00  0.00    +0.118 C 
ATOM      8  C   UNL     1     -35.222  24.615   2.042  0.00  0.00    +0.035 C 
ATOM      9  C   UNL     1     -34.788  24.411   4.609  0.00  0.00    +0.065 C 
ATOM     10  C   UNL     1     -36.561  20.322  -0.308  0.00  0.00    +0.003 C 
ATOM     11  C   UNL     1     -35.469  22.051   4.778  0.00  0.00    +0.001 C 
ATOM     12  C   UNL     1     -37.130  24.312   3.362  0.00  0.00    +0.232 C 
ATOM     13  C   UNL     1     -35.723  20.282   2.116  0.00  0.00    +0.000 C 
ATOM     14  C   UNL     1     -35.050  23.273   5.608  0.00  0.00    +0.008 C 
ATOM     15  C   UNL     1     -36.552  19.579   1.042  0.00  0.00    +0.000 C 
ATOM     16  C   UNL     1     -36.858  22.510  -1.554  0.00  0.00    +0.032 C 
ATOM     17  C   UNL     1     -35.193  20.153  -1.004  0.00  0.00    +0.032 C 
ATOM     18  C   UNL     1     -38.494  21.895   0.202  0.00  0.00    +0.000 C 
ATOM     19  C   UNL     1     -35.487  22.353  -2.207  0.00  0.00    +0.137 C 
ATOM     20  C   UNL     1     -35.114  20.880  -2.344  0.00  0.00    +0.137 C 
ENDROOT
BRANCH  12  21
ATOM     21  O   UNL     1     -37.488  25.609   3.821  0.00  0.00    -0.360 OA
ATOM     22  H   UNL     1     -37.899  26.106   3.095  0.00  0.00    +0.213 HD
ENDBRANCH  12  21
BRANCH  19  23
ATOM     23  O   UNL     1     -35.523  22.955  -3.502  0.00  0.00    -0.382 OA
ATOM     24  H   UNL     1     -36.347  23.455  -3.604  0.00  0.00    +0.210 HD
ENDBRANCH  19  23
BRANCH  20  25
ATOM     25  O   UNL     1     -33.786  20.768  -2.856  0.00  0.00    -0.382 OA
ATOM     26  H   UNL     1     -33.319  20.057  -2.389  0.00  0.00    +0.210 HD
ENDBRANCH  20  25
BRANCH   9  28
ATOM     27  O   UNL     1     -35.839  25.889   6.147  0.00  0.00    -0.293 OA
ATOM     28  C   UNL     1     -35.063  25.754   5.203  0.00  0.00    +0.180 C 
BRANCH  28  29
ATOM     29  C   UNL     1     -34.336  26.925   4.577  0.00  0.00    +0.202 C 
BRANCH  29  30
ATOM     30  O   UNL     1     -35.232  27.735   3.846  0.00  0.00    -0.375 OA
ATOM     31  H   UNL     1     -35.260  27.437   2.924  0.00  0.00    +0.211 HD
ENDBRANCH  29  30
ENDBRANCH  28  29
ENDBRANCH   9  28
TORSDOF 6
ENDMDL
MODEL 9
REMARK VINA RESULT:      -5.5      3.401      5.470
REMARK  Name = 21126380
REMARK  6 active torsions:
REMARK  status: ('A' for Active; 'I' for Inactive)
REMARK    1  A    between atoms: C_9  and  C_28
REMARK    2  A    between atoms: C_12  and  O_21
REMARK    3  A    between atoms: C_19  and  O_23
REMARK    4  A    between atoms: C_20  and  O_25
REMARK    5  A    between atoms: C_28  and  C_29
REMARK    6  A    between atoms: C_29  and  O_30
REMARK                            x       y       z     vdW  Elec       q    Type
REMARK                         _______ _______ _______ _____ _____    ______ ____
ROOT
ATOM      1  O   UNL     1     -34.957  25.305   1.315  0.00  0.00    -0.333 OA
ATOM      2  C   UNL     1     -35.529  25.250   3.630  0.00  0.00    +0.061 C 
ATOM      3  C   UNL     1     -35.628  27.587   1.881  0.00  0.00    +0.027 C 
ATOM      4  C   UNL     1     -34.984  26.625   4.122  0.00  0.00    +0.005 C 
ATOM      5  C   UNL     1     -34.519  27.541   2.978  0.00  0.00    +0.003 C 
ATOM      6  C   UNL     1     -35.183  28.459   0.650  0.00  0.00    +0.005 C 
ATOM      7  C   UNL     1     -36.107  26.137   1.565  0.00  0.00    +0.118 C 
ATOM      8  C   UNL     1     -36.769  25.518   2.800  0.00  0.00    +0.035 C 
ATOM      9  C   UNL     1     -35.700  24.536   4.971  0.00  0.00    +0.065 C 
ATOM     10  C   UNL     1     -34.782  29.889   1.157  0.00  0.00    +0.003 C 
ATOM     11  C   UNL     1     -33.925  26.232   5.151  0.00  0.00    +0.001 C 
ATOM     12  C   UNL     1     -34.623  24.620   2.545  0.00  0.00    +0.232 C 
ATOM     13  C   UNL     1     -34.151  28.946   3.459  0.00  0.00    +0.000 C 
ATOM     14  C   UNL     1     -34.437  24.919   5.760  0.00  0.00    +0.008 C 
ATOM     15  C   UNL     1     -33.739  29.842   2.291  0.00  0.00    +0.000 C 
ATOM     16  C   UNL     1     -36.315  28.610  -0.405  0.00  0.00    +0.032 C 
ATOM     17  C   UNL     1     -35.998  30.730   1.602  0.00  0.00    +0.032 C 
ATOM     18  C   UNL     1     -33.984  27.826  -0.101  0.00  0.00    +0.000 C 
ATOM     19  C   UNL     1     -37.518  29.420   0.071  0.00  0.00    +0.137 C 
ATOM     20  C   UNL     1     -37.089  30.807   0.538  0.00  0.00    +0.137 C 
ENDROOT
BRANCH  12  21
ATOM     21  O   UNL     1     -34.812  23.224   2.356  0.00  0.00    -0.360 OA
ATOM     22  H   UNL     1     -34.086  22.870   1.819  0.00  0.00    +0.213 HD
ENDBRANCH  12  21
BRANCH  19  23
ATOM     23  O   UNL     1     -38.442  29.550  -1.011  0.00  0.00    -0.382 OA
ATOM     24  H   UNL     1     -39.254  29.063  -0.803  0.00  0.00    +0.210 HD
ENDBRANCH  19  23
BRANCH  20  25
ATOM     25  O   UNL     1     -38.215  31.500   1.077  0.00  0.00    -0.382 OA
ATOM     26  H   UNL     1     -39.016  30.969   0.941  0.00  0.00    +0.210 HD
ENDBRANCH  20  25
BRANCH   9  28
ATOM     27  O   UNL     1     -36.714  22.548   4.149  0.00  0.00    -0.293 OA
ATOM     28  C   UNL     1     -35.905  23.057   4.924  0.00  0.00    +0.180 C 
BRANCH  28  29
ATOM     29  C   UNL     1     -35.066  22.233   5.878  0.00  0.00    +0.202 C 
BRANCH  29  30
ATOM     30  O   UNL     1     -35.233  20.854   5.625  0.00  0.00    -0.375 OA
ATOM     31  H   UNL     1     -34.493  20.362   6.014  0.00  0.00    +0.211 HD
ENDBRANCH  29  30
ENDBRANCH  28  29
ENDBRANCH   9  28
TORSDOF 6
ENDMDL
