MODEL 1
REMARK VINA RESULT:      -6.7      0.000      0.000
REMARK  Name = 54692975
REMARK  7 active torsions:
REMARK  status: ('A' for Active; 'I' for Inactive)
REMARK    1  A    between atoms: C_5  and  O_33
REMARK    2  A    between atoms: C_7  and  N_26
REMARK    3  A    between atoms: C_11  and  O_35
REMARK    4  A    between atoms: C_13  and  C_23
REMARK    5  A    between atoms: C_14  and  O_37
REMARK    6  A    between atoms: C_17  and  N_30
REMARK    7  A    between atoms: C_18  and  O_39
REMARK                            x       y       z     vdW  Elec       q    Type
REMARK                         _______ _______ _______ _____ _____    ______ ____
ROOT
ATOM      1  S   UNL     1     -33.607  23.011   0.137  0.00  0.00    -0.108 S 
ATOM      2  O   UNL     1     -34.678  24.189   4.890  0.00  0.00    -0.288 OA
ATOM      3  O   UNL     1     -37.945  27.797   0.505  0.00  0.00    -0.293 OA
ATOM      4  C   UNL     1     -34.994  26.418   2.087  0.00  0.00    +0.032 C 
ATOM      5  C   UNL     1     -35.638  25.842   3.372  0.00  0.00    +0.192 C 
ATOM      6  C   UNL     1     -34.815  25.357   0.964  0.00  0.00    +0.034 C 
ATOM      7  C   UNL     1     -35.798  27.608   1.538  0.00  0.00    +0.009 C 
ATOM      8  C   UNL     1     -34.054  24.135   1.486  0.00  0.00    +0.009 C 
ATOM      9  C   UNL     1     -35.000  24.492   3.743  0.00  0.00    +0.207 C 
ATOM     10  C   UNL     1     -34.820  23.531   2.611  0.00  0.00    +0.073 C 
ATOM     11  C   UNL     1     -37.146  25.690   3.279  0.00  0.00    +0.149 C 
ATOM     12  C   UNL     1     -37.266  27.256   1.380  0.00  0.00    +0.161 C 
ATOM     13  C   UNL     1     -37.901  26.291   2.337  0.00  0.00    +0.118 C 
ATOM     14  C   UNL     1     -35.406  22.327   2.696  0.00  0.00    +0.137 C 
ATOM     15  C   UNL     1     -34.683  21.609   0.388  0.00  0.00    +0.115 C 
ATOM     16  C   UNL     1     -35.437  21.385   1.553  0.00  0.00    +0.061 C 
ATOM     17  C   UNL     1     -34.741  20.690  -0.677  0.00  0.00    +0.040 C 
ATOM     18  C   UNL     1     -36.267  20.244   1.588  0.00  0.00    +0.134 C 
ATOM     19  C   UNL     1     -35.553  19.561  -0.609  0.00  0.00    +0.014 C 
ATOM     20  C   UNL     1     -36.320  19.341   0.523  0.00  0.00    +0.037 C 
ENDROOT
BRANCH  13  23
ATOM     21  O   UNL     1     -40.129  26.468   3.089  0.00  0.00    -0.270 OA
ATOM     22  N   UNL     1     -39.702  25.299   1.145  0.00  0.00    -0.325 N 
ATOM     23  C   UNL     1     -39.350  26.040   2.245  0.00  0.00    +0.248 C 
ATOM     24  H   UNL     1     -40.646  25.071   0.986  0.00  0.00    +0.145 HD
ATOM     25  H   UNL     1     -39.008  24.993   0.516  0.00  0.00    +0.145 HD
ENDBRANCH  13  23
BRANCH   7  26
ATOM     26  N   UNL     1     -35.730  28.791   2.394  0.00  0.00    +0.390 N 
ATOM     27  C   UNL     1     -36.235  29.967   1.685  0.00  0.00    -0.100 C 
ATOM     28  C   UNL     1     -34.357  29.019   2.845  0.00  0.00    -0.100 C 
ATOM     29  H   UNL     1     -36.316  28.630   3.212  0.00  0.00    -0.079 HD
ENDBRANCH   7  26
BRANCH  17  30
ATOM     30  N   UNL     1     -33.977  20.865  -1.860  0.00  0.00    -0.306 N 
ATOM     31  C   UNL     1     -34.525  21.601  -2.976  0.00  0.00    +0.112 C 
ATOM     32  C   UNL     1     -32.649  20.301  -1.958  0.00  0.00    +0.112 C 
ENDBRANCH  17  30
BRANCH   5  33
ATOM     33  O   UNL     1     -35.343  26.720   4.460  0.00  0.00    -0.373 OA
ATOM     34  H   UNL     1     -36.076  26.706   5.096  0.00  0.00    +0.211 HD
ENDBRANCH   5  33
BRANCH  11  35
ATOM     35  O   UNL     1     -37.664  24.880   4.277  0.00  0.00    -0.507 OA
ATOM     36  H   UNL     1     -37.798  25.224   5.138  0.00  0.00    +0.292 HD
ENDBRANCH  11  35
BRANCH  14  37
ATOM     37  O   UNL     1     -36.063  21.952   3.856  0.00  0.00    -0.506 OA
ATOM     38  H   UNL     1     -36.331  21.062   3.976  0.00  0.00    +0.292 HD
ENDBRANCH  14  37
BRANCH  18  39
ATOM     39  O   UNL     1     -37.045  19.919   2.666  0.00  0.00    -0.506 OA
ATOM     40  H   UNL     1     -37.143  19.022   2.920  0.00  0.00    +0.292 HD
ENDBRANCH  18  39
TORSDOF 7
ENDMDL
MODEL 2
REMARK VINA RESULT:      -6.4      3.236      7.744
REMARK  Name = 54692975
REMARK  7 active torsions:
REMARK  status: ('A' for Active; 'I' for Inactive)
REMARK    1  A    between atoms: C_5  and  O_33
REMARK    2  A    between atoms: C_7  and  N_26
REMARK    3  A    between atoms: C_11  and  O_35
REMARK    4  A    between atoms: C_13  and  C_23
REMARK    5  A    between atoms: C_14  and  O_37
REMARK    6  A    between atoms: C_17  and  N_30
REMARK    7  A    between atoms: C_18  and  O_39
REMARK                            x       y       z     vdW  Elec       q    Type
REMARK                         _______ _______ _______ _____ _____    ______ ____
ROOT
ATOM      1  S   UNL     1     -35.257  24.029   1.303  0.00  0.00    -0.108 S 
ATOM      2  O   UNL     1     -37.231  19.518   0.368  0.00  0.00    -0.288 OA
ATOM      3  O   UNL     1     -30.942  20.031  -1.393  0.00  0.00    -0.293 OA
ATOM      4  C   UNL     1     -34.443  20.957  -1.387  0.00  0.00    +0.032 C 
ATOM      5  C   UNL     1     -35.035  19.714  -0.680  0.00  0.00    +0.192 C 
ATOM      6  C   UNL     1     -34.188  22.148  -0.419  0.00  0.00    +0.034 C 
ATOM      7  C   UNL     1     -33.140  20.617  -2.129  0.00  0.00    +0.009 C 
ATOM      8  C   UNL     1     -35.455  22.488   0.370  0.00  0.00    +0.009 C 
ATOM      9  C   UNL     1     -36.164  20.121   0.284  0.00  0.00    +0.207 C 
ATOM     10  C   UNL     1     -35.870  21.297   1.160  0.00  0.00    +0.073 C 
ATOM     11  C   UNL     1     -34.000  18.886   0.061  0.00  0.00    +0.149 C 
ATOM     12  C   UNL     1     -32.156  19.907  -1.217  0.00  0.00    +0.161 C 
ATOM     13  C   UNL     1     -32.671  19.001  -0.137  0.00  0.00    +0.118 C 
ATOM     14  C   UNL     1     -35.929  21.133   2.491  0.00  0.00    +0.137 C 
ATOM     15  C   UNL     1     -35.157  23.481   2.998  0.00  0.00    +0.115 C 
ATOM     16  C   UNL     1     -35.479  22.183   3.433  0.00  0.00    +0.061 C 
ATOM     17  C   UNL     1     -34.732  24.450   3.926  0.00  0.00    +0.040 C 
ATOM     18  C   UNL     1     -35.319  21.893   4.805  0.00  0.00    +0.134 C 
ATOM     19  C   UNL     1     -34.601  24.144   5.277  0.00  0.00    +0.014 C 
ATOM     20  C   UNL     1     -34.890  22.862   5.716  0.00  0.00    +0.037 C 
ENDROOT
BRANCH  13  23
ATOM     21  O   UNL     1     -31.958  17.908   1.827  0.00  0.00    -0.270 OA
ATOM     22  N   UNL     1     -30.550  17.937  -0.003  0.00  0.00    -0.325 N 
ATOM     23  C   UNL     1     -31.709  18.231   0.671  0.00  0.00    +0.248 C 
ATOM     24  H   UNL     1     -29.837  17.426   0.444  0.00  0.00    +0.145 HD
ATOM     25  H   UNL     1     -30.432  18.238  -0.933  0.00  0.00    +0.145 HD
ENDBRANCH  13  23
BRANCH   7  26
ATOM     26  N   UNL     1     -33.348  19.754  -3.290  0.00  0.00    +0.390 N 
ATOM     27  C   UNL     1     -32.066  19.349  -3.864  0.00  0.00    -0.100 C 
ATOM     28  C   UNL     1     -34.164  20.436  -4.295  0.00  0.00    -0.100 C 
ATOM     29  H   UNL     1     -33.845  18.918  -2.984  0.00  0.00    -0.079 HD
ENDBRANCH   7  26
BRANCH  17  30
ATOM     30  N   UNL     1     -34.421  25.778   3.533  0.00  0.00    -0.306 N 
ATOM     31  C   UNL     1     -33.069  26.130   3.165  0.00  0.00    +0.112 C 
ATOM     32  C   UNL     1     -35.456  26.788   3.505  0.00  0.00    +0.112 C 
ENDBRANCH  17  30
BRANCH   5  33
ATOM     33  O   UNL     1     -35.652  18.881  -1.665  0.00  0.00    -0.373 OA
ATOM     34  H   UNL     1     -36.352  19.378  -2.117  0.00  0.00    +0.211 HD
ENDBRANCH   5  33
BRANCH  11  35
ATOM     35  O   UNL     1     -34.569  17.989   0.950  0.00  0.00    -0.507 OA
ATOM     36  H   UNL     1     -35.502  17.919   1.014  0.00  0.00    +0.292 HD
ENDBRANCH  11  35
BRANCH  14  37
ATOM     37  O   UNL     1     -36.364  19.932   3.027  0.00  0.00    -0.506 OA
ATOM     38  H   UNL     1     -36.930  19.375   2.529  0.00  0.00    +0.292 HD
ENDBRANCH  14  37
BRANCH  18  39
ATOM     39  O   UNL     1     -35.601  20.668   5.347  0.00  0.00    -0.506 OA
ATOM     40  H   UNL     1     -36.206  20.599   6.060  0.00  0.00    +0.292 HD
ENDBRANCH  18  39
TORSDOF 7
ENDMDL
MODEL 3
REMARK VINA RESULT:      -6.4      2.653      7.030
REMARK  Name = 54692975
REMARK  7 active torsions:
REMARK  status: ('A' for Active; 'I' for Inactive)
REMARK    1  A    between atoms: C_5  and  O_33
REMARK    2  A    between atoms: C_7  and  N_26
REMARK    3  A    between atoms: C_11  and  O_35
REMARK    4  A    between atoms: C_13  and  C_23
REMARK    5  A    between atoms: C_14  and  O_37
REMARK    6  A    between atoms: C_17  and  N_30
REMARK    7  A    between atoms: C_18  and  O_39
REMARK                            x       y       z     vdW  Elec       q    Type
REMARK                         _______ _______ _______ _____ _____    ______ ____
ROOT
ATOM      1  S   UNL     1     -36.294  25.514   0.861  0.00  0.00    -0.108 S 
ATOM      2  O   UNL     1     -39.118  21.744   2.574  0.00  0.00    -0.288 OA
ATOM      3  O   UNL     1     -34.615  19.858  -1.794  0.00  0.00    -0.293 OA
ATOM      4  C   UNL     1     -37.438  21.789  -0.604  0.00  0.00    +0.032 C 
ATOM      5  C   UNL     1     -37.764  20.996   0.686  0.00  0.00    +0.192 C 
ATOM      6  C   UNL     1     -36.550  23.039  -0.345  0.00  0.00    +0.034 C 
ATOM      7  C   UNL     1     -36.764  20.896  -1.659  0.00  0.00    +0.009 C 
ATOM      8  C   UNL     1     -37.169  23.932   0.733  0.00  0.00    +0.009 C 
ATOM      9  C   UNL     1     -38.167  21.950   1.824  0.00  0.00    +0.207 C 
ATOM     10  C   UNL     1     -37.295  23.154   1.996  0.00  0.00    +0.073 C 
ATOM     11  C   UNL     1     -36.633  20.094   1.146  0.00  0.00    +0.149 C 
ATOM     12  C   UNL     1     -35.571  20.159  -1.077  0.00  0.00    +0.161 C 
ATOM     13  C   UNL     1     -35.592  19.744   0.364  0.00  0.00    +0.118 C 
ATOM     14  C   UNL     1     -36.690  23.341   3.179  0.00  0.00    +0.137 C 
ATOM     15  C   UNL     1     -35.426  25.386   2.415  0.00  0.00    +0.115 C 
ATOM     16  C   UNL     1     -35.671  24.396   3.382  0.00  0.00    +0.061 C 
ATOM     17  C   UNL     1     -34.447  26.372   2.647  0.00  0.00    +0.040 C 
ATOM     18  C   UNL     1     -34.878  24.410   4.550  0.00  0.00    +0.134 C 
ATOM     19  C   UNL     1     -33.693  26.374   3.817  0.00  0.00    +0.014 C 
ATOM     20  C   UNL     1     -33.905  25.389   4.767  0.00  0.00    +0.037 C 
ENDROOT
BRANCH  13  23
ATOM     21  O   UNL     1     -33.729  19.364   1.759  0.00  0.00    -0.270 OA
ATOM     22  N   UNL     1     -34.393  17.692   0.314  0.00  0.00    -0.325 N 
ATOM     23  C   UNL     1     -34.479  18.933   0.892  0.00  0.00    +0.248 C 
ATOM     24  H   UNL     1     -33.685  17.067   0.591  0.00  0.00    +0.145 HD
ATOM     25  H   UNL     1     -35.040  17.427  -0.380  0.00  0.00    +0.145 HD
ENDBRANCH  13  23
BRANCH   7  26
ATOM     26  N   UNL     1     -37.663  19.887  -2.216  0.00  0.00    +0.390 N 
ATOM     27  C   UNL     1     -36.933  18.988  -3.110  0.00  0.00    -0.100 C 
ATOM     28  C   UNL     1     -38.771  20.524  -2.927  0.00  0.00    -0.100 C 
ATOM     29  H   UNL     1     -38.045  19.337  -1.447  0.00  0.00    -0.079 HD
ENDBRANCH   7  26
BRANCH  17  30
ATOM     30  N   UNL     1     -34.187  27.404   1.708  0.00  0.00    -0.306 N 
ATOM     31  C   UNL     1     -33.182  27.221   0.687  0.00  0.00    +0.112 C 
ATOM     32  C   UNL     1     -34.921  28.648   1.775  0.00  0.00    +0.112 C 
ENDBRANCH  17  30
BRANCH   5  33
ATOM     33  O   UNL     1     -38.914  20.183   0.440  0.00  0.00    -0.373 OA
ATOM     34  H   UNL     1     -39.367  20.494  -0.359  0.00  0.00    +0.211 HD
ENDBRANCH   5  33
BRANCH  11  35
ATOM     35  O   UNL     1     -36.795  19.657   2.451  0.00  0.00    -0.507 OA
ATOM     36  H   UNL     1     -36.442  20.156   3.161  0.00  0.00    +0.292 HD
ENDBRANCH  11  35
BRANCH  14  37
ATOM     37  O   UNL     1     -36.965  22.498   4.244  0.00  0.00    -0.506 OA
ATOM     38  H   UNL     1     -36.418  22.511   5.003  0.00  0.00    +0.292 HD
ENDBRANCH  14  37
BRANCH  18  39
ATOM     39  O   UNL     1     -35.023  23.499   5.562  0.00  0.00    -0.506 OA
ATOM     40  H   UNL     1     -34.271  23.199   6.034  0.00  0.00    +0.292 HD
ENDBRANCH  18  39
TORSDOF 7
ENDMDL
MODEL 4
REMARK VINA RESULT:      -6.1      1.933      2.518
REMARK  Name = 54692975
REMARK  7 active torsions:
REMARK  status: ('A' for Active; 'I' for Inactive)
REMARK    1  A    between atoms: C_5  and  O_33
REMARK    2  A    between atoms: C_7  and  N_26
REMARK    3  A    between atoms: C_11  and  O_35
REMARK    4  A    between atoms: C_13  and  C_23
REMARK    5  A    between atoms: C_14  and  O_37
REMARK    6  A    between atoms: C_17  and  N_30
REMARK    7  A    between atoms: C_18  and  O_39
REMARK                            x       y       z     vdW  Elec       q    Type
REMARK                         _______ _______ _______ _____ _____    ______ ____
ROOT
ATOM      1  S   UNL     1     -34.828  21.697   1.512  0.00  0.00    -0.108 S 
ATOM      2  O   UNL     1     -36.990  24.637   4.949  0.00  0.00    -0.288 OA
ATOM      3  O   UNL     1     -34.670  27.930  -0.218  0.00  0.00    -0.293 OA
ATOM      4  C   UNL     1     -34.461  25.693   2.621  0.00  0.00    +0.032 C 
ATOM      5  C   UNL     1     -35.827  25.993   3.286  0.00  0.00    +0.192 C 
ATOM      6  C   UNL     1     -34.488  24.434   1.708  0.00  0.00    +0.034 C 
ATOM      7  C   UNL     1     -33.949  26.897   1.813  0.00  0.00    +0.009 C 
ATOM      8  C   UNL     1     -35.033  23.222   2.469  0.00  0.00    +0.009 C 
ATOM      9  C   UNL     1     -36.457  24.706   3.843  0.00  0.00    +0.207 C 
ATOM     10  C   UNL     1     -36.416  23.520   2.931  0.00  0.00    +0.073 C 
ATOM     11  C   UNL     1     -36.810  26.689   2.361  0.00  0.00    +0.149 C 
ATOM     12  C   UNL     1     -35.003  27.396   0.841  0.00  0.00    +0.161 C 
ATOM     13  C   UNL     1     -36.454  27.292   1.209  0.00  0.00    +0.118 C 
ATOM     14  C   UNL     1     -37.576  22.942   2.584  0.00  0.00    +0.137 C 
ATOM     15  C   UNL     1     -36.493  21.289   1.016  0.00  0.00    +0.115 C 
ATOM     16  C   UNL     1     -37.649  21.887   1.547  0.00  0.00    +0.061 C 
ATOM     17  C   UNL     1     -36.605  20.289   0.031  0.00  0.00    +0.040 C 
ATOM     18  C   UNL     1     -38.896  21.477   1.028  0.00  0.00    +0.134 C 
ATOM     19  C   UNL     1     -37.849  19.889  -0.450  0.00  0.00    +0.014 C 
ATOM     20  C   UNL     1     -38.995  20.489   0.046  0.00  0.00    +0.037 C 
ENDROOT
BRANCH  13  23
ATOM     21  O   UNL     1     -38.159  28.825   0.659  0.00  0.00    -0.270 OA
ATOM     22  N   UNL     1     -37.528  27.256  -0.911  0.00  0.00    -0.325 N 
ATOM     23  C   UNL     1     -37.465  27.878   0.310  0.00  0.00    +0.248 C 
ATOM     24  H   UNL     1     -38.170  27.566  -1.590  0.00  0.00    +0.145 HD
ATOM     25  H   UNL     1     -36.931  26.498  -1.109  0.00  0.00    +0.145 HD
ENDBRANCH  13  23
BRANCH   7  26
ATOM     26  N   UNL     1     -33.567  28.031   2.651  0.00  0.00    +0.390 N 
ATOM     27  C   UNL     1     -33.165  29.168   1.823  0.00  0.00    -0.100 C 
ATOM     28  C   UNL     1     -32.484  27.654   3.560  0.00  0.00    -0.100 C 
ATOM     29  H   UNL     1     -34.375  28.306   3.208  0.00  0.00    -0.079 HD
ENDBRANCH   7  26
BRANCH  17  30
ATOM     30  N   UNL     1     -35.465  19.642  -0.513  0.00  0.00    -0.306 N 
ATOM     31  C   UNL     1     -34.948  18.441   0.102  0.00  0.00    +0.112 C 
ATOM     32  C   UNL     1     -34.810  20.186  -1.682  0.00  0.00    +0.112 C 
ENDBRANCH  17  30
BRANCH   5  33
ATOM     33  O   UNL     1     -35.605  26.836   4.419  0.00  0.00    -0.373 OA
ATOM     34  H   UNL     1     -36.436  27.270   4.668  0.00  0.00    +0.211 HD
ENDBRANCH   5  33
BRANCH  11  35
ATOM     35  O   UNL     1     -38.111  26.652   2.839  0.00  0.00    -0.507 OA
ATOM     36  H   UNL     1     -38.270  26.605   3.762  0.00  0.00    +0.292 HD
ENDBRANCH  11  35
BRANCH  14  37
ATOM     37  O   UNL     1     -38.766  23.368   3.152  0.00  0.00    -0.506 OA
ATOM     38  H   UNL     1     -38.889  23.309   4.079  0.00  0.00    +0.292 HD
ENDBRANCH  14  37
BRANCH  18  39
ATOM     39  O   UNL     1     -40.090  21.985   1.466  0.00  0.00    -0.506 OA
ATOM     40  H   UNL     1     -40.862  21.884   0.943  0.00  0.00    +0.292 HD
ENDBRANCH  18  39
TORSDOF 7
ENDMDL
MODEL 5
REMARK VINA RESULT:      -6.1      2.542      3.963
REMARK  Name = 54692975
REMARK  7 active torsions:
REMARK  status: ('A' for Active; 'I' for Inactive)
REMARK    1  A    between atoms: C_5  and  O_33
REMARK    2  A    between atoms: C_7  and  N_26
REMARK    3  A    between atoms: C_11  and  O_35
REMARK    4  A    between atoms: C_13  and  C_23
REMARK    5  A    between atoms: C_14  and  O_37
REMARK    6  A    between atoms: C_17  and  N_30
REMARK    7  A    between atoms: C_18  and  O_39
REMARK                            x       y       z     vdW  Elec       q    Type
REMARK                         _______ _______ _______ _____ _____    ______ ____
ROOT
ATOM      1  S   UNL     1     -35.599  22.476   1.295  0.00  0.00    -0.108 S 
ATOM      2  O   UNL     1     -34.522  25.199   5.362  0.00  0.00    -0.288 OA
ATOM      3  O   UNL     1     -33.508  28.397  -0.265  0.00  0.00    -0.293 OA
ATOM      4  C   UNL     1     -33.083  25.692   2.105  0.00  0.00    +0.032 C 
ATOM      5  C   UNL     1     -33.738  26.337   3.350  0.00  0.00    +0.192 C 
ATOM      6  C   UNL     1     -34.052  24.767   1.314  0.00  0.00    +0.034 C 
ATOM      7  C   UNL     1     -32.506  26.755   1.155  0.00  0.00    +0.009 C 
ATOM      8  C   UNL     1     -34.678  23.719   2.238  0.00  0.00    +0.009 C 
ATOM      9  C   UNL     1     -34.553  25.297   4.138  0.00  0.00    +0.207 C 
ATOM     10  C   UNL     1     -35.436  24.413   3.315  0.00  0.00    +0.073 C 
ATOM     11  C   UNL     1     -34.612  27.536   3.023  0.00  0.00    +0.149 C 
ATOM     12  C   UNL     1     -33.542  27.814   0.820  0.00  0.00    +0.161 C 
ATOM     13  C   UNL     1     -34.570  28.192   1.846  0.00  0.00    +0.118 C 
ATOM     14  C   UNL     1     -36.753  24.407   3.572  0.00  0.00    +0.137 C 
ATOM     15  C   UNL     1     -37.304  22.847   1.668  0.00  0.00    +0.115 C 
ATOM     16  C   UNL     1     -37.722  23.709   2.696  0.00  0.00    +0.061 C 
ATOM     17  C   UNL     1     -38.258  22.203   0.857  0.00  0.00    +0.040 C 
ATOM     18  C   UNL     1     -39.109  23.927   2.847  0.00  0.00    +0.134 C 
ATOM     19  C   UNL     1     -39.621  22.419   1.039  0.00  0.00    +0.014 C 
ATOM     20  C   UNL     1     -40.046  23.286   2.032  0.00  0.00    +0.037 C 
ENDROOT
BRANCH  13  23
ATOM     21  O   UNL     1     -36.708  29.109   1.465  0.00  0.00    -0.270 OA
ATOM     22  N   UNL     1     -34.872  30.506   1.399  0.00  0.00    -0.325 N 
ATOM     23  C   UNL     1     -35.500  29.297   1.554  0.00  0.00    +0.248 C 
ATOM     24  H   UNL     1     -35.399  31.313   1.200  0.00  0.00    +0.145 HD
ATOM     25  H   UNL     1     -33.893  30.567   1.486  0.00  0.00    +0.145 HD
ENDBRANCH  13  23
BRANCH   7  26
ATOM     26  N   UNL     1     -31.345  27.450   1.707  0.00  0.00    +0.390 N 
ATOM     27  C   UNL     1     -30.987  28.595   0.871  0.00  0.00    -0.100 C 
ATOM     28  C   UNL     1     -30.211  26.534   1.831  0.00  0.00    -0.100 C 
ATOM     29  H   UNL     1     -31.587  27.792   2.637  0.00  0.00    -0.079 HD
ENDBRANCH   7  26
BRANCH  17  30
ATOM     30  N   UNL     1     -37.879  21.306  -0.176  0.00  0.00    -0.306 N 
ATOM     31  C   UNL     1     -37.623  21.799  -1.510  0.00  0.00    +0.112 C 
ATOM     32  C   UNL     1     -37.755  19.892   0.100  0.00  0.00    +0.112 C 
ENDBRANCH  17  30
BRANCH   5  33
ATOM     33  O   UNL     1     -32.702  26.767   4.237  0.00  0.00    -0.373 OA
ATOM     34  H   UNL     1     -32.953  27.612   4.643  0.00  0.00    +0.211 HD
ENDBRANCH   5  33
BRANCH  11  35
ATOM     35  O   UNL     1     -35.443  27.893   4.073  0.00  0.00    -0.507 OA
ATOM     36  H   UNL     1     -35.170  27.750   4.958  0.00  0.00    +0.292 HD
ENDBRANCH  11  35
BRANCH  14  37
ATOM     37  O   UNL     1     -37.256  25.119   4.649  0.00  0.00    -0.506 OA
ATOM     38  H   UNL     1     -38.154  25.022   4.896  0.00  0.00    +0.292 HD
ENDBRANCH  14  37
BRANCH  18  39
ATOM     39  O   UNL     1     -39.637  24.742   3.812  0.00  0.00    -0.506 OA
ATOM     40  H   UNL     1     -39.812  25.642   3.620  0.00  0.00    +0.292 HD
ENDBRANCH  18  39
TORSDOF 7
ENDMDL
MODEL 6
REMARK VINA RESULT:      -5.9      2.682      6.881
REMARK  Name = 54692975
REMARK  7 active torsions:
REMARK  status: ('A' for Active; 'I' for Inactive)
REMARK    1  A    between atoms: C_5  and  O_33
REMARK    2  A    between atoms: C_7  and  N_26
REMARK    3  A    between atoms: C_11  and  O_35
REMARK    4  A    between atoms: C_13  and  C_23
REMARK    5  A    between atoms: C_14  and  O_37
REMARK    6  A    between atoms: C_17  and  N_30
REMARK    7  A    between atoms: C_18  and  O_39
REMARK                            x       y       z     vdW  Elec       q    Type
REMARK                         _______ _______ _______ _____ _____    ______ ____
ROOT
ATOM      1  S   UNL     1     -37.688  27.275  -0.085  0.00  0.00    -0.108 S 
ATOM      2  O   UNL     1     -39.608  24.663   3.739  0.00  0.00    -0.288 OA
ATOM      3  O   UNL     1     -36.547  20.935  -0.694  0.00  0.00    -0.293 OA
ATOM      4  C   UNL     1     -38.986  23.355   0.448  0.00  0.00    +0.032 C 
ATOM      5  C   UNL     1     -38.852  23.152   1.977  0.00  0.00    +0.192 C 
ATOM      6  C   UNL     1     -38.143  24.547  -0.087  0.00  0.00    +0.034 C 
ATOM      7  C   UNL     1     -38.613  22.080  -0.325  0.00  0.00    +0.009 C 
ATOM      8  C   UNL     1     -38.458  25.828   0.690  0.00  0.00    +0.009 C 
ATOM      9  C   UNL     1     -38.947  24.498   2.716  0.00  0.00    +0.207 C 
ATOM     10  C   UNL     1     -38.142  25.614   2.128  0.00  0.00    +0.073 C 
ATOM     11  C   UNL     1     -37.579  22.430   2.384  0.00  0.00    +0.149 C 
ATOM     12  C   UNL     1     -37.255  21.553   0.103  0.00  0.00    +0.161 C 
ATOM     13  C   UNL     1     -36.807  21.736   1.523  0.00  0.00    +0.118 C 
ATOM     14  C   UNL     1     -37.218  26.209   2.898  0.00  0.00    +0.137 C 
ATOM     15  C   UNL     1     -36.380  27.708   1.050  0.00  0.00    +0.115 C 
ATOM     16  C   UNL     1     -36.254  27.191   2.351  0.00  0.00    +0.061 C 
ATOM     17  C   UNL     1     -35.442  28.640   0.567  0.00  0.00    +0.040 C 
ATOM     18  C   UNL     1     -35.145  27.609   3.118  0.00  0.00    +0.134 C 
ATOM     19  C   UNL     1     -34.367  29.051   1.351  0.00  0.00    +0.014 C 
ATOM     20  C   UNL     1     -34.216  28.530   2.626  0.00  0.00    +0.037 C 
ENDROOT
BRANCH  13  23
ATOM     21  O   UNL     1     -35.493  20.344   2.901  0.00  0.00    -0.270 OA
ATOM     22  N   UNL     1     -34.461  21.526   1.209  0.00  0.00    -0.325 N 
ATOM     23  C   UNL     1     -35.538  21.126   1.958  0.00  0.00    +0.248 C 
ATOM     24  H   UNL     1     -33.562  21.181   1.413  0.00  0.00    +0.145 HD
ATOM     25  H   UNL     1     -34.587  22.161   0.467  0.00  0.00    +0.145 HD
ENDBRANCH  13  23
BRANCH   7  26
ATOM     26  N   UNL     1     -39.573  20.993  -0.140  0.00  0.00    +0.390 N 
ATOM     27  C   UNL     1     -39.100  19.774  -0.797  0.00  0.00    -0.100 C 
ATOM     28  C   UNL     1     -40.886  21.376  -0.659  0.00  0.00    -0.100 C 
ATOM     29  H   UNL     1     -39.661  20.809   0.859  0.00  0.00    -0.079 HD
ENDBRANCH   7  26
BRANCH  17  30
ATOM     30  N   UNL     1     -35.547  29.205  -0.731  0.00  0.00    -0.306 N 
ATOM     31  C   UNL     1     -34.905  28.564  -1.856  0.00  0.00    +0.112 C 
ATOM     32  C   UNL     1     -36.290  30.429  -0.932  0.00  0.00    +0.112 C 
ENDBRANCH  17  30
BRANCH   5  33
ATOM     33  O   UNL     1     -39.968  22.383   2.433  0.00  0.00    -0.373 OA
ATOM     34  H   UNL     1     -40.133  22.575   3.369  0.00  0.00    +0.211 HD
ENDBRANCH   5  33
BRANCH  11  35
ATOM     35  O   UNL     1     -37.307  22.548   3.737  0.00  0.00    -0.507 OA
ATOM     36  H   UNL     1     -37.199  23.396   4.122  0.00  0.00    +0.292 HD
ENDBRANCH  11  35
BRANCH  14  37
ATOM     37  O   UNL     1     -37.099  25.868   4.236  0.00  0.00    -0.506 OA
ATOM     38  H   UNL     1     -36.316  25.461   4.547  0.00  0.00    +0.292 HD
ENDBRANCH  14  37
BRANCH  18  39
ATOM     39  O   UNL     1     -34.915  27.178   4.397  0.00  0.00    -0.506 OA
ATOM     40  H   UNL     1     -34.736  27.799   5.075  0.00  0.00    +0.292 HD
ENDBRANCH  18  39
TORSDOF 7
ENDMDL
MODEL 7
REMARK VINA RESULT:      -5.9      4.058      7.117
REMARK  Name = 54692975
REMARK  7 active torsions:
REMARK  status: ('A' for Active; 'I' for Inactive)
REMARK    1  A    between atoms: C_5  and  O_33
REMARK    2  A    between atoms: C_7  and  N_26
REMARK    3  A    between atoms: C_11  and  O_35
REMARK    4  A    between atoms: C_13  and  C_23
REMARK    5  A    between atoms: C_14  and  O_37
REMARK    6  A    between atoms: C_17  and  N_30
REMARK    7  A    between atoms: C_18  and  O_39
REMARK                            x       y       z     vdW  Elec       q    Type
REMARK                         _______ _______ _______ _____ _____    ______ ____
ROOT
ATOM      1  S   UNL     1     -30.376  27.772   1.836  0.00  0.00    -0.108 S 
ATOM      2  O   UNL     1     -34.811  29.562   3.336  0.00  0.00    -0.288 OA
ATOM      3  O   UNL     1     -34.813  23.089   2.329  0.00  0.00    -0.293 OA
ATOM      4  C   UNL     1     -34.337  26.560   1.416  0.00  0.00    +0.032 C 
ATOM      5  C   UNL     1     -35.035  27.240   2.619  0.00  0.00    +0.192 C 
ATOM      6  C   UNL     1     -32.794  26.455   1.583  0.00  0.00    +0.034 C 
ATOM      7  C   UNL     1     -34.915  25.162   1.143  0.00  0.00    +0.009 C 
ATOM      8  C   UNL     1     -32.186  27.825   1.898  0.00  0.00    +0.009 C 
ATOM      9  C   UNL     1     -34.265  28.497   3.057  0.00  0.00    +0.207 C 
ATOM     10  C   UNL     1     -32.780  28.340   3.162  0.00  0.00    +0.073 C 
ATOM     11  C   UNL     1     -35.230  26.315   3.808  0.00  0.00    +0.149 C 
ATOM     12  C   UNL     1     -34.923  24.314   2.402  0.00  0.00    +0.161 C 
ATOM     13  C   UNL     1     -35.130  24.973   3.735  0.00  0.00    +0.118 C 
ATOM     14  C   UNL     1     -32.193  28.589   4.342  0.00  0.00    +0.137 C 
ATOM     15  C   UNL     1     -29.896  27.913   3.550  0.00  0.00    +0.115 C 
ATOM     16  C   UNL     1     -30.765  28.286   4.590  0.00  0.00    +0.061 C 
ATOM     17  C   UNL     1     -28.544  27.632   3.826  0.00  0.00    +0.040 C 
ATOM     18  C   UNL     1     -30.242  28.323   5.900  0.00  0.00    +0.134 C 
ATOM     19  C   UNL     1     -28.049  27.695   5.126  0.00  0.00    +0.014 C 
ATOM     20  C   UNL     1     -28.900  28.036   6.164  0.00  0.00    +0.037 C 
ENDROOT
BRANCH  13  23
ATOM     21  O   UNL     1     -34.469  24.248   5.879  0.00  0.00    -0.270 OA
ATOM     22  N   UNL     1     -36.287  23.240   4.877  0.00  0.00    -0.325 N 
ATOM     23  C   UNL     1     -35.246  24.131   4.939  0.00  0.00    +0.248 C 
ATOM     24  H   UNL     1     -36.456  22.627   5.628  0.00  0.00    +0.145 HD
ATOM     25  H   UNL     1     -36.864  23.212   4.079  0.00  0.00    +0.145 HD
ENDBRANCH  13  23
BRANCH   7  26
ATOM     26  N   UNL     1     -36.287  25.196   0.640  0.00  0.00    +0.390 N 
ATOM     27  C   UNL     1     -36.833  23.842   0.548  0.00  0.00    -0.100 C 
ATOM     28  C   UNL     1     -36.338  25.855  -0.665  0.00  0.00    -0.100 C 
ATOM     29  H   UNL     1     -36.857  25.730   1.295  0.00  0.00    -0.079 HD
ENDBRANCH   7  26
BRANCH  17  30
ATOM     30  N   UNL     1     -27.628  27.278   2.802  0.00  0.00    -0.306 N 
ATOM     31  C   UNL     1     -27.359  25.887   2.518  0.00  0.00    +0.112 C 
ATOM     32  C   UNL     1     -26.953  28.307   2.044  0.00  0.00    +0.112 C 
ENDBRANCH  17  30
BRANCH   5  33
ATOM     33  O   UNL     1     -36.320  27.703   2.196  0.00  0.00    -0.373 OA
ATOM     34  H   UNL     1     -36.953  26.969   2.222  0.00  0.00    +0.211 HD
ENDBRANCH   5  33
BRANCH  11  35
ATOM     35  O   UNL     1     -35.539  27.000   4.972  0.00  0.00    -0.507 OA
ATOM     36  H   UNL     1     -34.955  27.656   5.300  0.00  0.00    +0.292 HD
ENDBRANCH  11  35
BRANCH  14  37
ATOM     37  O   UNL     1     -32.937  29.088   5.400  0.00  0.00    -0.506 OA
ATOM     38  H   UNL     1     -33.605  28.562   5.792  0.00  0.00    +0.292 HD
ENDBRANCH  14  37
BRANCH  18  39
ATOM     39  O   UNL     1     -30.989  28.671   6.993  0.00  0.00    -0.506 OA
ATOM     40  H   UNL     1     -31.676  29.303   6.909  0.00  0.00    +0.292 HD
ENDBRANCH  18  39
TORSDOF 7
ENDMDL
MODEL 8
REMARK VINA RESULT:      -5.9      2.956      5.942
REMARK  Name = 54692975
REMARK  7 active torsions:
REMARK  status: ('A' for Active; 'I' for Inactive)
REMARK    1  A    between atoms: C_5  and  O_33
REMARK    2  A    between atoms: C_7  and  N_26
REMARK    3  A    between atoms: C_11  and  O_35
REMARK    4  A    between atoms: C_13  and  C_23
REMARK    5  A    between atoms: C_14  and  O_37
REMARK    6  A    between atoms: C_17  and  N_30
REMARK    7  A    between atoms: C_18  and  O_39
REMARK                            x       y       z     vdW  Elec       q    Type
REMARK                         _______ _______ _______ _____ _____    ______ ____
ROOT
ATOM      1  S   UNL     1     -34.687  28.075   0.362  0.00  0.00    -0.108 S 
ATOM      2  O   UNL     1     -35.233  26.583   5.116  0.00  0.00    -0.288 OA
ATOM      3  O   UNL     1     -37.521  22.271   0.747  0.00  0.00    -0.293 OA
ATOM      4  C   UNL     1     -37.277  25.502   2.363  0.00  0.00    +0.032 C 
ATOM      5  C   UNL     1     -36.464  25.100   3.618  0.00  0.00    +0.192 C 
ATOM      6  C   UNL     1     -36.394  26.075   1.218  0.00  0.00    +0.034 C 
ATOM      7  C   UNL     1     -38.105  24.323   1.826  0.00  0.00    +0.009 C 
ATOM      8  C   UNL     1     -35.523  27.227   1.728  0.00  0.00    +0.009 C 
ATOM      9  C   UNL     1     -35.434  26.187   3.970  0.00  0.00    +0.207 C 
ATOM     10  C   UNL     1     -34.643  26.724   2.818  0.00  0.00    +0.073 C 
ATOM     11  C   UNL     1     -35.769  23.757   3.485  0.00  0.00    +0.149 C 
ATOM     12  C   UNL     1     -37.241  23.091   1.624  0.00  0.00    +0.161 C 
ATOM     13  C   UNL     1     -36.080  22.845   2.541  0.00  0.00    +0.118 C 
ATOM     14  C   UNL     1     -33.306  26.623   2.859  0.00  0.00    +0.137 C 
ATOM     15  C   UNL     1     -32.980  27.589   0.552  0.00  0.00    +0.115 C 
ATOM     16  C   UNL     1     -32.456  26.957   1.693  0.00  0.00    +0.061 C 
ATOM     17  C   UNL     1     -32.139  27.889  -0.537  0.00  0.00    +0.040 C 
ATOM     18  C   UNL     1     -31.089  26.607   1.679  0.00  0.00    +0.134 C 
ATOM     19  C   UNL     1     -30.789  27.551  -0.517  0.00  0.00    +0.014 C 
ATOM     20  C   UNL     1     -30.265  26.904   0.591  0.00  0.00    +0.037 C 
ENDROOT
BRANCH  13  23
ATOM     21  O   UNL     1     -35.351  20.726   3.274  0.00  0.00    -0.270 OA
ATOM     22  N   UNL     1     -34.588  21.523   1.246  0.00  0.00    -0.325 N 
ATOM     23  C   UNL     1     -35.315  21.592   2.408  0.00  0.00    +0.248 C 
ATOM     24  H   UNL     1     -34.039  20.729   1.055  0.00  0.00    +0.145 HD
ATOM     25  H   UNL     1     -34.616  22.269   0.604  0.00  0.00    +0.145 HD
ENDBRANCH  13  23
BRANCH   7  26
ATOM     26  N   UNL     1     -39.201  23.938   2.712  0.00  0.00    +0.390 N 
ATOM     27  C   UNL     1     -39.917  22.783   2.172  0.00  0.00    -0.100 C 
ATOM     28  C   UNL     1     -40.119  25.061   2.909  0.00  0.00    -0.100 C 
ATOM     29  H   UNL     1     -38.807  23.681   3.617  0.00  0.00    -0.079 HD
ENDBRANCH   7  26
BRANCH  17  30
ATOM     30  N   UNL     1     -32.621  28.550  -1.697  0.00  0.00    -0.306 N 
ATOM     31  C   UNL     1     -33.140  27.783  -2.807  0.00  0.00    +0.112 C 
ATOM     32  C   UNL     1     -32.590  29.993  -1.777  0.00  0.00    +0.112 C 
ENDBRANCH  17  30
BRANCH   5  33
ATOM     33  O   UNL     1     -37.353  25.036   4.735  0.00  0.00    -0.373 OA
ATOM     34  H   UNL     1     -38.066  24.407   4.545  0.00  0.00    +0.211 HD
ENDBRANCH   5  33
BRANCH  11  35
ATOM     35  O   UNL     1     -34.794  23.562   4.449  0.00  0.00    -0.507 OA
ATOM     36  H   UNL     1     -34.045  23.030   4.260  0.00  0.00    +0.292 HD
ENDBRANCH  11  35
BRANCH  14  37
ATOM     37  O   UNL     1     -32.677  26.136   3.994  0.00  0.00    -0.506 OA
ATOM     38  H   UNL     1     -32.112  25.392   3.933  0.00  0.00    +0.292 HD
ENDBRANCH  14  37
BRANCH  18  39
ATOM     39  O   UNL     1     -30.465  25.990   2.730  0.00  0.00    -0.506 OA
ATOM     40  H   UNL     1     -29.914  25.247   2.577  0.00  0.00    +0.292 HD
ENDBRANCH  18  39
TORSDOF 7
ENDMDL
MODEL 9
REMARK VINA RESULT:      -5.9      2.729      6.570
REMARK  Name = 54692975
REMARK  7 active torsions:
REMARK  status: ('A' for Active; 'I' for Inactive)
REMARK    1  A    between atoms: C_5  and  O_33
REMARK    2  A    between atoms: C_7  and  N_26
REMARK    3  A    between atoms: C_11  and  O_35
REMARK    4  A    between atoms: C_13  and  C_23
REMARK    5  A    between atoms: C_14  and  O_37
REMARK    6  A    between atoms: C_17  and  N_30
REMARK    7  A    between atoms: C_18  and  O_39
REMARK                            x       y       z     vdW  Elec       q    Type
REMARK                         _______ _______ _______ _____ _____    ______ ____
ROOT
ATOM      1  S   UNL     1     -36.216  27.732   1.432  0.00  0.00    -0.108 S 
ATOM      2  O   UNL     1     -39.450  24.703   3.774  0.00  0.00    -0.288 OA
ATOM      3  O   UNL     1     -36.333  21.833  -1.222  0.00  0.00    -0.293 OA
ATOM      4  C   UNL     1     -38.398  24.355   0.354  0.00  0.00    +0.032 C 
ATOM      5  C   UNL     1     -38.656  23.662   1.714  0.00  0.00    +0.192 C 
ATOM      6  C   UNL     1     -37.224  25.374   0.399  0.00  0.00    +0.034 C 
ATOM      7  C   UNL     1     -38.139  23.329  -0.762  0.00  0.00    +0.009 C 
ATOM      8  C   UNL     1     -37.427  26.388   1.528  0.00  0.00    +0.009 C 
ATOM      9  C   UNL     1     -38.627  24.686   2.862  0.00  0.00    +0.207 C 
ATOM     10  C   UNL     1     -37.494  25.663   2.826  0.00  0.00    +0.073 C 
ATOM     11  C   UNL     1     -37.688  22.530   2.011  0.00  0.00    +0.149 C 
ATOM     12  C   UNL     1     -37.054  22.345  -0.364  0.00  0.00    +0.161 C 
ATOM     13  C   UNL     1     -36.907  21.950   1.076  0.00  0.00    +0.118 C 
ATOM     14  C   UNL     1     -36.661  25.714   3.877  0.00  0.00    +0.137 C 
ATOM     15  C   UNL     1     -35.133  27.418   2.816  0.00  0.00    +0.115 C 
ATOM     16  C   UNL     1     -35.414  26.512   3.854  0.00  0.00    +0.061 C 
ATOM     17  C   UNL     1     -33.936  28.158   2.830  0.00  0.00    +0.040 C 
ATOM     18  C   UNL     1     -34.442  26.351   4.864  0.00  0.00    +0.134 C 
ATOM     19  C   UNL     1     -33.002  27.995   3.850  0.00  0.00    +0.014 C 
ATOM     20  C   UNL     1     -33.254  27.087   4.865  0.00  0.00    +0.037 C 
ENDROOT
BRANCH  13  23
ATOM     21  O   UNL     1     -34.722  21.143   1.443  0.00  0.00    -0.270 OA
ATOM     22  N   UNL     1     -36.504  19.708   1.751  0.00  0.00    -0.325 N 
ATOM     23  C   UNL     1     -35.926  20.912   1.438  0.00  0.00    +0.248 C 
ATOM     24  H   UNL     1     -35.940  18.942   2.006  0.00  0.00    +0.145 HD
ATOM     25  H   UNL     1     -37.483  19.609   1.719  0.00  0.00    +0.145 HD
ENDBRANCH  13  23
BRANCH   7  26
ATOM     26  N   UNL     1     -39.323  22.546  -1.109  0.00  0.00    +0.390 N 
ATOM     27  C   UNL     1     -38.987  21.518  -2.094  0.00  0.00    -0.100 C 
ATOM     28  C   UNL     1     -40.381  23.417  -1.622  0.00  0.00    -0.100 C 
ATOM     29  H   UNL     1     -39.664  22.087  -0.265  0.00  0.00    -0.079 HD
ENDBRANCH   7  26
BRANCH  17  30
ATOM     30  N   UNL     1     -33.626  29.102   1.816  0.00  0.00    -0.306 N 
ATOM     31  C   UNL     1     -32.913  28.686   0.630  0.00  0.00    +0.112 C 
ATOM     32  C   UNL     1     -34.015  30.486   1.969  0.00  0.00    +0.112 C 
ENDBRANCH  17  30
BRANCH   5  33
ATOM     33  O   UNL     1     -39.982  23.127   1.708  0.00  0.00    -0.373 OA
ATOM     34  H   UNL     1     -40.077  22.490   2.432  0.00  0.00    +0.211 HD
ENDBRANCH   5  33
BRANCH  11  35
ATOM     35  O   UNL     1     -37.707  22.145   3.342  0.00  0.00    -0.507 OA
ATOM     36  H   UNL     1     -37.283  21.352   3.607  0.00  0.00    +0.292 HD
ENDBRANCH  11  35
BRANCH  14  37
ATOM     37  O   UNL     1     -36.920  24.958   5.009  0.00  0.00    -0.506 OA
ATOM     38  H   UNL     1     -36.265  24.869   5.672  0.00  0.00    +0.292 HD
ENDBRANCH  14  37
BRANCH  18  39
ATOM     39  O   UNL     1     -34.601  25.501   5.926  0.00  0.00    -0.506 OA
ATOM     40  H   UNL     1     -34.102  25.631   6.708  0.00  0.00    +0.292 HD
ENDBRANCH  18  39
TORSDOF 7
ENDMDL
