MODEL 1
REMARK VINA RESULT:      -6.5      0.000      0.000
REMARK  Name = 5281701
REMARK  6 active torsions:
REMARK  status: ('A' for Active; 'I' for Inactive)
REMARK    1  A    between atoms: C_4  and  C_12
REMARK    2  A    between atoms: C_8  and  O_24
REMARK    3  A    between atoms: C_10  and  O_26
REMARK    4  A    between atoms: C_15  and  O_18
REMARK    5  A    between atoms: C_16  and  O_20
REMARK    6  A    between atoms: C_17  and  O_22
REMARK                            x       y       z     vdW  Elec       q    Type
REMARK                         _______ _______ _______ _____ _____    ______ ____
ROOT
ATOM      1  O   UNL     1     -33.442  26.212   4.992  0.00  0.00    -0.453 OA
ATOM      2  O   UNL     1     -33.455  28.839   1.878  0.00  0.00    -0.286 OA
ATOM      3  C   UNL     1     -32.870  28.409   4.127  0.00  0.00    +0.107 C 
ATOM      4  C   UNL     1     -33.995  25.883   3.764  0.00  0.00    +0.149 C 
ATOM      5  C   UNL     1     -32.898  27.461   5.149  0.00  0.00    +0.154 C 
ATOM      6  C   UNL     1     -33.448  28.059   2.820  0.00  0.00    +0.205 C 
ATOM      7  C   UNL     1     -34.023  26.704   2.703  0.00  0.00    +0.080 C 
ATOM      8  C   UNL     1     -32.301  29.666   4.343  0.00  0.00    +0.143 C 
ATOM      9  C   UNL     1     -32.355  27.768   6.397  0.00  0.00    +0.074 C 
ATOM     10  C   UNL     1     -31.786  29.022   6.618  0.00  0.00    +0.140 C 
ATOM     11  C   UNL     1     -31.760  29.969   5.593  0.00  0.00    +0.073 C 
ENDROOT
BRANCH   4  12
ATOM     12  C   UNL     1     -34.547  24.514   3.703  0.00  0.00    +0.041 C 
ATOM     13  C   UNL     1     -34.616  23.840   2.481  0.00  0.00    +0.043 C 
ATOM     14  C   UNL     1     -34.999  23.886   4.866  0.00  0.00    +0.043 C 
ATOM     15  C   UNL     1     -35.518  22.592   4.807  0.00  0.00    +0.171 C 
ATOM     16  C   UNL     1     -35.135  22.546   2.422  0.00  0.00    +0.171 C 
ATOM     17  C   UNL     1     -35.586  21.922   3.586  0.00  0.00    +0.202 C 
BRANCH  15  18
ATOM     18  O   UNL     1     -35.954  21.993   5.951  0.00  0.00    -0.503 OA
ATOM     19  H   UNL     1     -35.805  21.078   6.086  0.00  0.00    +0.292 HD
ENDBRANCH  15  18
BRANCH  16  20
ATOM     20  O   UNL     1     -35.196  21.904   1.223  0.00  0.00    -0.503 OA
ATOM     21  H   UNL     1     -35.215  20.968   1.192  0.00  0.00    +0.292 HD
ENDBRANCH  16  20
BRANCH  17  22
ATOM     22  O   UNL     1     -36.092  20.658   3.528  0.00  0.00    -0.501 OA
ATOM     23  H   UNL     1     -36.640  20.405   2.810  0.00  0.00    +0.292 HD
ENDBRANCH  17  22
ENDBRANCH   4  12
BRANCH   8  24
ATOM     24  O   UNL     1     -32.250  30.624   3.376  0.00  0.00    -0.505 OA
ATOM     25  H   UNL     1     -31.623  30.558   2.683  0.00  0.00    +0.292 HD
ENDBRANCH   8  24
BRANCH  10  26
ATOM     26  O   UNL     1     -31.255  29.324   7.834  0.00  0.00    -0.505 OA
ATOM     27  H   UNL     1     -30.336  29.488   7.917  0.00  0.00    +0.292 HD
ENDBRANCH  10  26
TORSDOF 6
ENDMDL
MODEL 2
REMARK VINA RESULT:      -6.2      1.230      3.131
REMARK  Name = 5281701
REMARK  6 active torsions:
REMARK  status: ('A' for Active; 'I' for Inactive)
REMARK    1  A    between atoms: C_4  and  C_12
REMARK    2  A    between atoms: C_8  and  O_24
REMARK    3  A    between atoms: C_10  and  O_26
REMARK    4  A    between atoms: C_15  and  O_18
REMARK    5  A    between atoms: C_16  and  O_20
REMARK    6  A    between atoms: C_17  and  O_22
REMARK                            x       y       z     vdW  Elec       q    Type
REMARK                         _______ _______ _______ _____ _____    ______ ____
ROOT
ATOM      1  O   UNL     1     -33.694  26.043   3.319  0.00  0.00    -0.453 OA
ATOM      2  O   UNL     1     -33.010  27.362   7.112  0.00  0.00    -0.286 OA
ATOM      3  C   UNL     1     -32.874  27.791   4.793  0.00  0.00    +0.107 C 
ATOM      4  C   UNL     1     -34.003  25.267   4.425  0.00  0.00    +0.149 C 
ATOM      5  C   UNL     1     -33.136  27.279   3.523  0.00  0.00    +0.154 C 
ATOM      6  C   UNL     1     -33.210  26.974   5.969  0.00  0.00    +0.205 C 
ATOM      7  C   UNL     1     -33.806  25.651   5.696  0.00  0.00    +0.080 C 
ATOM      8  C   UNL     1     -32.305  29.058   4.940  0.00  0.00    +0.143 C 
ATOM      9  C   UNL     1     -32.828  28.035   2.391  0.00  0.00    +0.074 C 
ATOM     10  C   UNL     1     -32.259  29.300   2.534  0.00  0.00    +0.140 C 
ATOM     11  C   UNL     1     -31.998  29.810   3.806  0.00  0.00    +0.073 C 
ENDROOT
BRANCH   4  12
ATOM     12  C   UNL     1     -34.604  23.960   4.092  0.00  0.00    +0.041 C 
ATOM     13  C   UNL     1     -34.779  22.995   5.087  0.00  0.00    +0.043 C 
ATOM     14  C   UNL     1     -35.002  23.683   2.783  0.00  0.00    +0.043 C 
ATOM     15  C   UNL     1     -35.571  22.448   2.469  0.00  0.00    +0.171 C 
ATOM     16  C   UNL     1     -35.349  21.760   4.774  0.00  0.00    +0.171 C 
ATOM     17  C   UNL     1     -35.744  21.487   3.465  0.00  0.00    +0.202 C 
BRANCH  15  18
ATOM     18  O   UNL     1     -35.955  22.193   1.186  0.00  0.00    -0.503 OA
ATOM     19  H   UNL     1     -36.539  21.484   1.005  0.00  0.00    +0.292 HD
ENDBRANCH  15  18
BRANCH  16  20
ATOM     20  O   UNL     1     -35.510  20.830   5.756  0.00  0.00    -0.503 OA
ATOM     21  H   UNL     1     -34.768  20.526   6.240  0.00  0.00    +0.292 HD
ENDBRANCH  16  20
BRANCH  17  22
ATOM     22  O   UNL     1     -36.301  20.281   3.159  0.00  0.00    -0.501 OA
ATOM     23  H   UNL     1     -36.637  19.734   3.843  0.00  0.00    +0.292 HD
ENDBRANCH  17  22
ENDBRANCH   4  12
BRANCH   8  24
ATOM     24  O   UNL     1     -32.031  29.601   6.159  0.00  0.00    -0.505 OA
ATOM     25  H   UNL     1     -32.149  29.091   6.937  0.00  0.00    +0.292 HD
ENDBRANCH   8  24
BRANCH  10  26
ATOM     26  O   UNL     1     -31.959  30.039   1.431  0.00  0.00    -0.505 OA
ATOM     27  H   UNL     1     -32.084  30.968   1.441  0.00  0.00    +0.292 HD
ENDBRANCH  10  26
TORSDOF 6
ENDMDL
MODEL 3
REMARK VINA RESULT:      -6.1      1.215      2.628
REMARK  Name = 5281701
REMARK  6 active torsions:
REMARK  status: ('A' for Active; 'I' for Inactive)
REMARK    1  A    between atoms: C_4  and  C_12
REMARK    2  A    between atoms: C_8  and  O_24
REMARK    3  A    between atoms: C_10  and  O_26
REMARK    4  A    between atoms: C_15  and  O_18
REMARK    5  A    between atoms: C_16  and  O_20
REMARK    6  A    between atoms: C_17  and  O_22
REMARK                            x       y       z     vdW  Elec       q    Type
REMARK                         _______ _______ _______ _____ _____    ______ ____
ROOT
ATOM      1  O   UNL     1     -33.747  26.099   3.329  0.00  0.00    -0.453 OA
ATOM      2  O   UNL     1     -32.948  27.405   7.104  0.00  0.00    -0.286 OA
ATOM      3  C   UNL     1     -32.895  27.848   4.784  0.00  0.00    +0.107 C 
ATOM      4  C   UNL     1     -34.010  25.315   4.441  0.00  0.00    +0.149 C 
ATOM      5  C   UNL     1     -33.195  27.340   3.521  0.00  0.00    +0.154 C 
ATOM      6  C   UNL     1     -33.182  27.022   5.966  0.00  0.00    +0.205 C 
ATOM      7  C   UNL     1     -33.773  25.694   5.707  0.00  0.00    +0.080 C 
ATOM      8  C   UNL     1     -32.335  29.121   4.919  0.00  0.00    +0.143 C 
ATOM      9  C   UNL     1     -32.935  28.105   2.383  0.00  0.00    +0.074 C 
ATOM     10  C   UNL     1     -32.374  29.376   2.514  0.00  0.00    +0.140 C 
ATOM     11  C   UNL     1     -32.075  29.882   3.780  0.00  0.00    +0.073 C 
ENDROOT
BRANCH   4  12
ATOM     12  C   UNL     1     -34.608  24.003   4.121  0.00  0.00    +0.041 C 
ATOM     13  C   UNL     1     -34.988  23.707   2.808  0.00  0.00    +0.043 C 
ATOM     14  C   UNL     1     -34.794  23.051   5.125  0.00  0.00    +0.043 C 
ATOM     15  C   UNL     1     -35.357  21.811   4.821  0.00  0.00    +0.171 C 
ATOM     16  C   UNL     1     -35.551  22.467   2.504  0.00  0.00    +0.171 C 
ATOM     17  C   UNL     1     -35.736  21.520   3.511  0.00  0.00    +0.202 C 
BRANCH  15  18
ATOM     18  O   UNL     1     -35.532  20.894   5.814  0.00  0.00    -0.503 OA
ATOM     19  H   UNL     1     -35.440  19.980   5.627  0.00  0.00    +0.292 HD
ENDBRANCH  15  18
BRANCH  16  20
ATOM     20  O   UNL     1     -35.917  22.196   1.221  0.00  0.00    -0.503 OA
ATOM     21  H   UNL     1     -36.138  21.321   0.971  0.00  0.00    +0.292 HD
ENDBRANCH  16  20
BRANCH  17  22
ATOM     22  O   UNL     1     -36.285  20.308   3.213  0.00  0.00    -0.501 OA
ATOM     23  H   UNL     1     -35.870  19.521   3.507  0.00  0.00    +0.292 HD
ENDBRANCH  17  22
ENDBRANCH   4  12
BRANCH   8  24
ATOM     24  O   UNL     1     -32.025  29.660   6.131  0.00  0.00    -0.505 OA
ATOM     25  H   UNL     1     -32.294  29.229   6.919  0.00  0.00    +0.292 HD
ENDBRANCH   8  24
BRANCH  10  26
ATOM     26  O   UNL     1     -32.120  30.124   1.406  0.00  0.00    -0.505 OA
ATOM     27  H   UNL     1     -31.602  29.769   0.710  0.00  0.00    +0.292 HD
ENDBRANCH  10  26
TORSDOF 6
ENDMDL
MODEL 4
REMARK VINA RESULT:      -6.1      3.835      8.918
REMARK  Name = 5281701
REMARK  6 active torsions:
REMARK  status: ('A' for Active; 'I' for Inactive)
REMARK    1  A    between atoms: C_4  and  C_12
REMARK    2  A    between atoms: C_8  and  O_24
REMARK    3  A    between atoms: C_10  and  O_26
REMARK    4  A    between atoms: C_15  and  O_18
REMARK    5  A    between atoms: C_16  and  O_20
REMARK    6  A    between atoms: C_17  and  O_22
REMARK                            x       y       z     vdW  Elec       q    Type
REMARK                         _______ _______ _______ _____ _____    ______ ____
ROOT
ATOM      1  O   UNL     1     -37.353  21.734   1.695  0.00  0.00    -0.453 OA
ATOM      2  O   UNL     1     -34.133  19.238   1.627  0.00  0.00    -0.286 OA
ATOM      3  C   UNL     1     -36.322  19.697   0.864  0.00  0.00    +0.107 C 
ATOM      4  C   UNL     1     -36.212  21.999   2.435  0.00  0.00    +0.149 C 
ATOM      5  C   UNL     1     -37.387  20.594   0.932  0.00  0.00    +0.154 C 
ATOM      6  C   UNL     1     -35.106  19.980   1.642  0.00  0.00    +0.205 C 
ATOM      7  C   UNL     1     -35.120  21.217   2.448  0.00  0.00    +0.080 C 
ATOM      8  C   UNL     1     -36.412  18.552   0.069  0.00  0.00    +0.143 C 
ATOM      9  C   UNL     1     -38.550  20.349   0.202  0.00  0.00    +0.074 C 
ATOM     10  C   UNL     1     -38.645  19.207  -0.592  0.00  0.00    +0.140 C 
ATOM     11  C   UNL     1     -37.578  18.310  -0.658  0.00  0.00    +0.073 C 
ENDROOT
BRANCH   4  12
ATOM     12  C   UNL     1     -36.280  23.252   3.214  0.00  0.00    +0.041 C 
ATOM     13  C   UNL     1     -35.261  23.573   4.115  0.00  0.00    +0.043 C 
ATOM     14  C   UNL     1     -37.360  24.122   3.052  0.00  0.00    +0.043 C 
ATOM     15  C   UNL     1     -37.423  25.306   3.787  0.00  0.00    +0.171 C 
ATOM     16  C   UNL     1     -35.323  24.759   4.849  0.00  0.00    +0.171 C 
ATOM     17  C   UNL     1     -36.404  25.625   4.685  0.00  0.00    +0.202 C 
BRANCH  15  18
ATOM     18  O   UNL     1     -38.484  26.145   3.617  0.00  0.00    -0.503 OA
ATOM     19  H   UNL     1     -38.341  27.030   3.346  0.00  0.00    +0.292 HD
ENDBRANCH  15  18
BRANCH  16  20
ATOM     20  O   UNL     1     -34.323  25.056   5.724  0.00  0.00    -0.503 OA
ATOM     21  H   UNL     1     -34.038  24.416   6.346  0.00  0.00    +0.292 HD
ENDBRANCH  16  20
BRANCH  17  22
ATOM     22  O   UNL     1     -36.465  26.782   5.402  0.00  0.00    -0.501 OA
ATOM     23  H   UNL     1     -36.157  27.583   5.025  0.00  0.00    +0.292 HD
ENDBRANCH  17  22
ENDBRANCH   4  12
BRANCH   8  24
ATOM     24  O   UNL     1     -35.399  17.647  -0.030  0.00  0.00    -0.505 OA
ATOM     25  H   UNL     1     -34.571  17.906  -0.383  0.00  0.00    +0.292 HD
ENDBRANCH   8  24
BRANCH  10  26
ATOM     26  O   UNL     1     -39.779  18.966  -1.305  0.00  0.00    -0.505 OA
ATOM     27  H   UNL     1     -39.730  18.516  -2.126  0.00  0.00    +0.292 HD
ENDBRANCH  10  26
TORSDOF 6
ENDMDL
MODEL 5
REMARK VINA RESULT:      -6.1      3.947      8.491
REMARK  Name = 5281701
REMARK  6 active torsions:
REMARK  status: ('A' for Active; 'I' for Inactive)
REMARK    1  A    between atoms: C_4  and  C_12
REMARK    2  A    between atoms: C_8  and  O_24
REMARK    3  A    between atoms: C_10  and  O_26
REMARK    4  A    between atoms: C_15  and  O_18
REMARK    5  A    between atoms: C_16  and  O_20
REMARK    6  A    between atoms: C_17  and  O_22
REMARK                            x       y       z     vdW  Elec       q    Type
REMARK                         _______ _______ _______ _____ _____    ______ ____
ROOT
ATOM      1  O   UNL     1     -35.253  21.319   2.226  0.00  0.00    -0.453 OA
ATOM      2  O   UNL     1     -38.385  20.025  -0.036  0.00  0.00    -0.286 OA
ATOM      3  C   UNL     1     -36.161  19.677   0.682  0.00  0.00    +0.107 C 
ATOM      4  C   UNL     1     -36.453  22.012   2.179  0.00  0.00    +0.149 C 
ATOM      5  C   UNL     1     -35.131  20.175   1.479  0.00  0.00    +0.154 C 
ATOM      6  C   UNL     1     -37.438  20.406   0.638  0.00  0.00    +0.205 C 
ATOM      7  C   UNL     1     -37.518  21.631   1.457  0.00  0.00    +0.080 C 
ATOM      8  C   UNL     1     -35.980  18.505  -0.057  0.00  0.00    +0.143 C 
ATOM      9  C   UNL     1     -33.911  19.501   1.540  0.00  0.00    +0.074 C 
ATOM     10  C   UNL     1     -33.725  18.332   0.803  0.00  0.00    +0.140 C 
ATOM     11  C   UNL     1     -34.758  17.836   0.006  0.00  0.00    +0.073 C 
ENDROOT
BRANCH   4  12
ATOM     12  C   UNL     1     -36.478  23.223   3.024  0.00  0.00    +0.041 C 
ATOM     13  C   UNL     1     -35.500  23.414   4.005  0.00  0.00    +0.043 C 
ATOM     14  C   UNL     1     -37.476  24.184   2.846  0.00  0.00    +0.043 C 
ATOM     15  C   UNL     1     -37.497  25.328   3.644  0.00  0.00    +0.171 C 
ATOM     16  C   UNL     1     -35.521  24.559   4.802  0.00  0.00    +0.171 C 
ATOM     17  C   UNL     1     -36.520  25.516   4.621  0.00  0.00    +0.202 C 
BRANCH  15  18
ATOM     18  O   UNL     1     -38.478  26.256   3.457  0.00  0.00    -0.503 OA
ATOM     19  H   UNL     1     -39.376  26.015   3.565  0.00  0.00    +0.292 HD
ENDBRANCH  15  18
BRANCH  16  20
ATOM     20  O   UNL     1     -34.562  24.728   5.754  0.00  0.00    -0.503 OA
ATOM     21  H   UNL     1     -33.892  24.083   5.864  0.00  0.00    +0.292 HD
ENDBRANCH  16  20
BRANCH  17  22
ATOM     22  O   UNL     1     -36.541  26.634   5.401  0.00  0.00    -0.501 OA
ATOM     23  H   UNL     1     -36.612  26.554   6.332  0.00  0.00    +0.292 HD
ENDBRANCH  17  22
ENDBRANCH   4  12
BRANCH   8  24
ATOM     24  O   UNL     1     -36.956  17.980  -0.848  0.00  0.00    -0.505 OA
ATOM     25  H   UNL     1     -36.781  17.798  -1.750  0.00  0.00    +0.292 HD
ENDBRANCH   8  24
BRANCH  10  26
ATOM     26  O   UNL     1     -32.536  17.672   0.861  0.00  0.00    -0.505 OA
ATOM     27  H   UNL     1     -31.737  18.154   0.960  0.00  0.00    +0.292 HD
ENDBRANCH  10  26
TORSDOF 6
ENDMDL
MODEL 6
REMARK VINA RESULT:      -6.1      3.947      8.428
REMARK  Name = 5281701
REMARK  6 active torsions:
REMARK  status: ('A' for Active; 'I' for Inactive)
REMARK    1  A    between atoms: C_4  and  C_12
REMARK    2  A    between atoms: C_8  and  O_24
REMARK    3  A    between atoms: C_10  and  O_26
REMARK    4  A    between atoms: C_15  and  O_18
REMARK    5  A    between atoms: C_16  and  O_20
REMARK    6  A    between atoms: C_17  and  O_22
REMARK                            x       y       z     vdW  Elec       q    Type
REMARK                         _______ _______ _______ _____ _____    ______ ____
ROOT
ATOM      1  O   UNL     1     -35.251  21.321   2.224  0.00  0.00    -0.453 OA
ATOM      2  O   UNL     1     -38.388  20.029  -0.033  0.00  0.00    -0.286 OA
ATOM      3  C   UNL     1     -36.163  19.679   0.683  0.00  0.00    +0.107 C 
ATOM      4  C   UNL     1     -36.450  22.015   2.179  0.00  0.00    +0.149 C 
ATOM      5  C   UNL     1     -35.131  20.176   1.477  0.00  0.00    +0.154 C 
ATOM      6  C   UNL     1     -37.439  20.409   0.640  0.00  0.00    +0.205 C 
ATOM      7  C   UNL     1     -37.517  21.635   1.459  0.00  0.00    +0.080 C 
ATOM      8  C   UNL     1     -35.984  18.508  -0.056  0.00  0.00    +0.143 C 
ATOM      9  C   UNL     1     -33.911  19.501   1.537  0.00  0.00    +0.074 C 
ATOM     10  C   UNL     1     -33.728  18.332   0.800  0.00  0.00    +0.140 C 
ATOM     11  C   UNL     1     -34.763  17.836   0.005  0.00  0.00    +0.073 C 
ENDROOT
BRANCH   4  12
ATOM     12  C   UNL     1     -36.472  23.227   3.024  0.00  0.00    +0.041 C 
ATOM     13  C   UNL     1     -37.471  24.188   2.844  0.00  0.00    +0.043 C 
ATOM     14  C   UNL     1     -35.498  23.417   4.006  0.00  0.00    +0.043 C 
ATOM     15  C   UNL     1     -35.522  24.561   4.805  0.00  0.00    +0.171 C 
ATOM     16  C   UNL     1     -37.495  25.332   3.643  0.00  0.00    +0.171 C 
ATOM     17  C   UNL     1     -36.520  25.518   4.623  0.00  0.00    +0.202 C 
BRANCH  15  18
ATOM     18  O   UNL     1     -34.564  24.731   5.759  0.00  0.00    -0.503 OA
ATOM     19  H   UNL     1     -34.640  25.430   6.379  0.00  0.00    +0.292 HD
ENDBRANCH  15  18
BRANCH  16  20
ATOM     20  O   UNL     1     -38.475  26.258   3.454  0.00  0.00    -0.503 OA
ATOM     21  H   UNL     1     -38.451  27.068   3.924  0.00  0.00    +0.292 HD
ENDBRANCH  16  20
BRANCH  17  22
ATOM     22  O   UNL     1     -36.544  26.635   5.403  0.00  0.00    -0.501 OA
ATOM     23  H   UNL     1     -35.902  26.749   6.077  0.00  0.00    +0.292 HD
ENDBRANCH  17  22
ENDBRANCH   4  12
BRANCH   8  24
ATOM     24  O   UNL     1     -36.962  17.983  -0.846  0.00  0.00    -0.505 OA
ATOM     25  H   UNL     1     -37.754  17.663  -0.461  0.00  0.00    +0.292 HD
ENDBRANCH   8  24
BRANCH  10  26
ATOM     26  O   UNL     1     -32.540  17.671   0.856  0.00  0.00    -0.505 OA
ATOM     27  H   UNL     1     -32.019  17.708   1.635  0.00  0.00    +0.292 HD
ENDBRANCH  10  26
TORSDOF 6
ENDMDL
MODEL 7
REMARK VINA RESULT:      -6.1      3.603      6.019
REMARK  Name = 5281701
REMARK  6 active torsions:
REMARK  status: ('A' for Active; 'I' for Inactive)
REMARK    1  A    between atoms: C_4  and  C_12
REMARK    2  A    between atoms: C_8  and  O_24
REMARK    3  A    between atoms: C_10  and  O_26
REMARK    4  A    between atoms: C_15  and  O_18
REMARK    5  A    between atoms: C_16  and  O_20
REMARK    6  A    between atoms: C_17  and  O_22
REMARK                            x       y       z     vdW  Elec       q    Type
REMARK                         _______ _______ _______ _____ _____    ______ ____
ROOT
ATOM      1  O   UNL     1     -35.105  22.002   2.851  0.00  0.00    -0.453 OA
ATOM      2  O   UNL     1     -39.022  23.056   2.476  0.00  0.00    -0.286 OA
ATOM      3  C   UNL     1     -36.909  23.524   3.424  0.00  0.00    +0.107 C 
ATOM      4  C   UNL     1     -35.986  21.263   2.077  0.00  0.00    +0.149 C 
ATOM      5  C   UNL     1     -35.582  23.108   3.508  0.00  0.00    +0.154 C 
ATOM      6  C   UNL     1     -37.845  22.747   2.596  0.00  0.00    +0.205 C 
ATOM      7  C   UNL     1     -37.283  21.565   1.912  0.00  0.00    +0.080 C 
ATOM      8  C   UNL     1     -37.339  24.660   4.114  0.00  0.00    +0.143 C 
ATOM      9  C   UNL     1     -34.674  23.829   4.284  0.00  0.00    +0.074 C 
ATOM     10  C   UNL     1     -35.099  24.963   4.976  0.00  0.00    +0.140 C 
ATOM     11  C   UNL     1     -36.429  25.377   4.891  0.00  0.00    +0.073 C 
ENDROOT
BRANCH   4  12
ATOM     12  C   UNL     1     -35.368  20.099   1.411  0.00  0.00    +0.041 C 
ATOM     13  C   UNL     1     -36.048  19.434   0.388  0.00  0.00    +0.043 C 
ATOM     14  C   UNL     1     -34.100  19.659   1.799  0.00  0.00    +0.043 C 
ATOM     15  C   UNL     1     -33.516  18.560   1.168  0.00  0.00    +0.171 C 
ATOM     16  C   UNL     1     -35.463  18.335  -0.244  0.00  0.00    +0.171 C 
ATOM     17  C   UNL     1     -34.198  17.899   0.146  0.00  0.00    +0.202 C 
BRANCH  15  18
ATOM     18  O   UNL     1     -32.278  18.143   1.558  0.00  0.00    -0.503 OA
ATOM     19  H   UNL     1     -31.688  18.747   1.962  0.00  0.00    +0.292 HD
ENDBRANCH  15  18
BRANCH  16  20
ATOM     20  O   UNL     1     -36.141  17.698  -1.239  0.00  0.00    -0.503 OA
ATOM     21  H   UNL     1     -36.763  17.030  -1.029  0.00  0.00    +0.292 HD
ENDBRANCH  16  20
BRANCH  17  22
ATOM     22  O   UNL     1     -33.627  16.826  -0.471  0.00  0.00    -0.501 OA
ATOM     23  H   UNL     1     -33.286  16.118   0.041  0.00  0.00    +0.292 HD
ENDBRANCH  17  22
ENDBRANCH   4  12
BRANCH   8  24
ATOM     24  O   UNL     1     -38.625  25.105   4.064  0.00  0.00    -0.505 OA
ATOM     25  H   UNL     1     -38.828  25.982   4.325  0.00  0.00    +0.292 HD
ENDBRANCH   8  24
BRANCH  10  26
ATOM     26  O   UNL     1     -34.215  25.668   5.734  0.00  0.00    -0.505 OA
ATOM     27  H   UNL     1     -33.797  25.260   6.467  0.00  0.00    +0.292 HD
ENDBRANCH  10  26
TORSDOF 6
ENDMDL
MODEL 8
REMARK VINA RESULT:      -6.0      2.750      7.501
REMARK  Name = 5281701
REMARK  6 active torsions:
REMARK  status: ('A' for Active; 'I' for Inactive)
REMARK    1  A    between atoms: C_4  and  C_12
REMARK    2  A    between atoms: C_8  and  O_24
REMARK    3  A    between atoms: C_10  and  O_26
REMARK    4  A    between atoms: C_15  and  O_18
REMARK    5  A    between atoms: C_16  and  O_20
REMARK    6  A    between atoms: C_17  and  O_22
REMARK                            x       y       z     vdW  Elec       q    Type
REMARK                         _______ _______ _______ _____ _____    ______ ____
ROOT
ATOM      1  O   UNL     1     -36.494  25.474   3.610  0.00  0.00    -0.453 OA
ATOM      2  O   UNL     1     -35.686  21.488   3.367  0.00  0.00    -0.286 OA
ATOM      3  C   UNL     1     -37.244  23.234   3.039  0.00  0.00    +0.107 C 
ATOM      4  C   UNL     1     -35.268  24.955   3.994  0.00  0.00    +0.149 C 
ATOM      5  C   UNL     1     -37.453  24.608   3.147  0.00  0.00    +0.154 C 
ATOM      6  C   UNL     1     -35.939  22.683   3.438  0.00  0.00    +0.205 C 
ATOM      7  C   UNL     1     -34.943  23.654   3.931  0.00  0.00    +0.080 C 
ATOM      8  C   UNL     1     -38.256  22.400   2.560  0.00  0.00    +0.143 C 
ATOM      9  C   UNL     1     -38.680  25.157   2.774  0.00  0.00    +0.074 C 
ATOM     10  C   UNL     1     -39.695  24.328   2.295  0.00  0.00    +0.140 C 
ATOM     11  C   UNL     1     -39.482  22.953   2.189  0.00  0.00    +0.073 C 
ENDROOT
BRANCH   4  12
ATOM     12  C   UNL     1     -34.310  25.973   4.470  0.00  0.00    +0.041 C 
ATOM     13  C   UNL     1     -33.958  26.027   5.822  0.00  0.00    +0.043 C 
ATOM     14  C   UNL     1     -33.750  26.886   3.573  0.00  0.00    +0.043 C 
ATOM     15  C   UNL     1     -32.843  27.846   4.024  0.00  0.00    +0.171 C 
ATOM     16  C   UNL     1     -33.051  26.987   6.273  0.00  0.00    +0.171 C 
ATOM     17  C   UNL     1     -32.494  27.897   5.373  0.00  0.00    +0.202 C 
BRANCH  15  18
ATOM     18  O   UNL     1     -32.306  28.729   3.135  0.00  0.00    -0.503 OA
ATOM     19  H   UNL     1     -31.466  29.109   3.304  0.00  0.00    +0.292 HD
ENDBRANCH  15  18
BRANCH  16  20
ATOM     20  O   UNL     1     -32.720  27.026   7.593  0.00  0.00    -0.503 OA
ATOM     21  H   UNL     1     -32.103  27.659   7.904  0.00  0.00    +0.292 HD
ENDBRANCH  16  20
BRANCH  17  22
ATOM     22  O   UNL     1     -31.608  28.834   5.814  0.00  0.00    -0.501 OA
ATOM     23  H   UNL     1     -31.874  29.731   5.889  0.00  0.00    +0.292 HD
ENDBRANCH  17  22
ENDBRANCH   4  12
BRANCH   8  24
ATOM     24  O   UNL     1     -38.100  21.053   2.436  0.00  0.00    -0.505 OA
ATOM     25  H   UNL     1     -37.286  20.702   2.132  0.00  0.00    +0.292 HD
ENDBRANCH   8  24
BRANCH  10  26
ATOM     26  O   UNL     1     -40.893  24.860   1.930  0.00  0.00    -0.505 OA
ATOM     27  H   UNL     1     -41.068  25.769   2.081  0.00  0.00    +0.292 HD
ENDBRANCH  10  26
TORSDOF 6
ENDMDL
MODEL 9
REMARK VINA RESULT:      -6.0      2.767      7.263
REMARK  Name = 5281701
REMARK  6 active torsions:
REMARK  status: ('A' for Active; 'I' for Inactive)
REMARK    1  A    between atoms: C_4  and  C_12
REMARK    2  A    between atoms: C_8  and  O_24
REMARK    3  A    between atoms: C_10  and  O_26
REMARK    4  A    between atoms: C_15  and  O_18
REMARK    5  A    between atoms: C_16  and  O_20
REMARK    6  A    between atoms: C_17  and  O_22
REMARK                            x       y       z     vdW  Elec       q    Type
REMARK                         _______ _______ _______ _____ _____    ______ ____
ROOT
ATOM      1  O   UNL     1     -36.445  25.594   3.645  0.00  0.00    -0.453 OA
ATOM      2  O   UNL     1     -35.723  21.593   3.379  0.00  0.00    -0.286 OA
ATOM      3  C   UNL     1     -37.246  23.373   3.070  0.00  0.00    +0.107 C 
ATOM      4  C   UNL     1     -35.227  25.048   4.019  0.00  0.00    +0.149 C 
ATOM      5  C   UNL     1     -37.425  24.751   3.186  0.00  0.00    +0.154 C 
ATOM      6  C   UNL     1     -35.951  22.792   3.457  0.00  0.00    +0.205 C 
ATOM      7  C   UNL     1     -34.931  23.741   3.947  0.00  0.00    +0.080 C 
ATOM      8  C   UNL     1     -38.280  22.564   2.594  0.00  0.00    +0.143 C 
ATOM      9  C   UNL     1     -38.643  25.327   2.824  0.00  0.00    +0.074 C 
ATOM     10  C   UNL     1     -39.678  24.522   2.348  0.00  0.00    +0.140 C 
ATOM     11  C   UNL     1     -39.496  23.143   2.235  0.00  0.00    +0.073 C 
ENDROOT
BRANCH   4  12
ATOM     12  C   UNL     1     -34.245  26.043   4.492  0.00  0.00    +0.041 C 
ATOM     13  C   UNL     1     -33.646  26.924   3.586  0.00  0.00    +0.043 C 
ATOM     14  C   UNL     1     -33.910  26.112   5.846  0.00  0.00    +0.043 C 
ATOM     15  C   UNL     1     -32.983  27.054   6.293  0.00  0.00    +0.171 C 
ATOM     16  C   UNL     1     -32.719  27.867   4.033  0.00  0.00    +0.171 C 
ATOM     17  C   UNL     1     -32.388  27.931   5.387  0.00  0.00    +0.202 C 
BRANCH  15  18
ATOM     18  O   UNL     1     -32.668  27.108   7.618  0.00  0.00    -0.503 OA
ATOM     19  H   UNL     1     -31.915  27.589   7.900  0.00  0.00    +0.292 HD
ENDBRANCH  15  18
BRANCH  16  20
ATOM     20  O   UNL     1     -32.145  28.715   3.137  0.00  0.00    -0.503 OA
ATOM     21  H   UNL     1     -31.230  28.649   2.947  0.00  0.00    +0.292 HD
ENDBRANCH  16  20
BRANCH  17  22
ATOM     22  O   UNL     1     -31.483  28.852   5.822  0.00  0.00    -0.501 OA
ATOM     23  H   UNL     1     -31.613  29.284   6.645  0.00  0.00    +0.292 HD
ENDBRANCH  17  22
ENDBRANCH   4  12
BRANCH   8  24
ATOM     24  O   UNL     1     -38.152  21.214   2.464  0.00  0.00    -0.505 OA
ATOM     25  H   UNL     1     -38.860  20.650   2.706  0.00  0.00    +0.292 HD
ENDBRANCH   8  24
BRANCH  10  26
ATOM     26  O   UNL     1     -40.868  25.082   1.995  0.00  0.00    -0.505 OA
ATOM     27  H   UNL     1     -41.102  25.151   1.090  0.00  0.00    +0.292 HD
ENDBRANCH  10  26
TORSDOF 6
ENDMDL
