MODEL 1
REMARK VINA RESULT:      -6.6      0.000      0.000
REMARK  Name = 5466141
REMARK  5 active torsions:
REMARK  status: ('A' for Active; 'I' for Inactive)
REMARK    1  A    between atoms: C_4  and  C_12
REMARK    2  A    between atoms: C_10  and  O_22
REMARK    3  A    between atoms: C_11  and  O_24
REMARK    4  A    between atoms: C_15  and  O_18
REMARK    5  A    between atoms: C_17  and  O_20
REMARK                            x       y       z     vdW  Elec       q    Type
REMARK                         _______ _______ _______ _____ _____    ______ ____
ROOT
ATOM      1  O   UNL     1     -34.541  26.355   2.415  0.00  0.00    -0.450 OA
ATOM      2  O   UNL     1     -36.064  24.119   5.469  0.00  0.00    -0.286 OA
ATOM      3  C   UNL     1     -34.581  25.811   4.780  0.00  0.00    +0.077 C 
ATOM      4  C   UNL     1     -36.105  24.646   3.148  0.00  0.00    +0.077 C 
ATOM      5  C   UNL     1     -34.089  26.538   3.697  0.00  0.00    +0.152 C 
ATOM      6  C   UNL     1     -35.628  24.799   4.550  0.00  0.00    +0.202 C 
ATOM      7  C   UNL     1     -34.080  26.041   6.065  0.00  0.00    +0.046 C 
ATOM      8  C   UNL     1     -35.532  25.424   2.216  0.00  0.00    +0.183 C 
ATOM      9  C   UNL     1     -33.095  27.498   3.890  0.00  0.00    +0.077 C 
ATOM     10  C   UNL     1     -33.086  27.001   6.257  0.00  0.00    +0.168 C 
ATOM     11  C   UNL     1     -32.595  27.728   5.172  0.00  0.00    +0.171 C 
ENDROOT
BRANCH   4  12
ATOM     12  C   UNL     1     -37.173  23.701   2.787  0.00  0.00    +0.009 C 
ATOM     13  C   UNL     1     -36.867  22.366   2.518  0.00  0.00    +0.040 C 
ATOM     14  C   UNL     1     -38.498  24.138   2.712  0.00  0.00    +0.004 C 
ATOM     15  C   UNL     1     -37.881  21.471   2.174  0.00  0.00    +0.167 C 
ATOM     16  C   UNL     1     -39.511  23.243   2.368  0.00  0.00    +0.040 C 
ATOM     17  C   UNL     1     -39.203  21.909   2.100  0.00  0.00    +0.167 C 
BRANCH  15  18
ATOM     18  O   UNL     1     -37.567  20.171   1.915  0.00  0.00    -0.503 OA
ATOM     19  H   UNL     1     -37.113  19.946   1.127  0.00  0.00    +0.292 HD
ENDBRANCH  15  18
BRANCH  17  20
ATOM     20  O   UNL     1     -40.201  21.045   1.767  0.00  0.00    -0.503 OA
ATOM     21  H   UNL     1     -40.554  21.048   0.900  0.00  0.00    +0.292 HD
ENDBRANCH  17  20
ENDBRANCH   4  12
BRANCH  10  22
ATOM     22  O   UNL     1     -32.603  27.220   7.511  0.00  0.00    -0.503 OA
ATOM     23  H   UNL     1     -32.291  28.070   7.752  0.00  0.00    +0.292 HD
ENDBRANCH  10  22
BRANCH  11  24
ATOM     24  O   UNL     1     -31.625  28.669   5.353  0.00  0.00    -0.503 OA
ATOM     25  H   UNL     1     -30.958  28.535   5.996  0.00  0.00    +0.292 HD
ENDBRANCH  11  24
TORSDOF 5
ENDMDL
MODEL 2
REMARK VINA RESULT:      -6.3      2.430      7.386
REMARK  Name = 5466141
REMARK  5 active torsions:
REMARK  status: ('A' for Active; 'I' for Inactive)
REMARK    1  A    between atoms: C_4  and  C_12
REMARK    2  A    between atoms: C_10  and  O_22
REMARK    3  A    between atoms: C_11  and  O_24
REMARK    4  A    between atoms: C_15  and  O_18
REMARK    5  A    between atoms: C_17  and  O_20
REMARK                            x       y       z     vdW  Elec       q    Type
REMARK                         _______ _______ _______ _____ _____    ______ ____
ROOT
ATOM      1  O   UNL     1     -34.091  25.032   2.368  0.00  0.00    -0.450 OA
ATOM      2  O   UNL     1     -34.062  26.405   6.210  0.00  0.00    -0.286 OA
ATOM      3  C   UNL     1     -34.582  24.662   4.716  0.00  0.00    +0.077 C 
ATOM      4  C   UNL     1     -33.513  26.802   3.928  0.00  0.00    +0.077 C 
ATOM      5  C   UNL     1     -34.577  24.249   3.384  0.00  0.00    +0.152 C 
ATOM      6  C   UNL     1     -34.049  25.994   5.057  0.00  0.00    +0.202 C 
ATOM      7  C   UNL     1     -35.090  23.821   5.710  0.00  0.00    +0.046 C 
ATOM      8  C   UNL     1     -33.578  26.262   2.701  0.00  0.00    +0.183 C 
ATOM      9  C   UNL     1     -35.080  22.995   3.038  0.00  0.00    +0.077 C 
ATOM     10  C   UNL     1     -35.593  22.567   5.362  0.00  0.00    +0.168 C 
ATOM     11  C   UNL     1     -35.588  22.154   4.029  0.00  0.00    +0.171 C 
ENDROOT
BRANCH   4  12
ATOM     12  C   UNL     1     -32.916  28.131   4.135  0.00  0.00    +0.009 C 
ATOM     13  C   UNL     1     -31.895  28.303   5.070  0.00  0.00    +0.040 C 
ATOM     14  C   UNL     1     -33.371  29.226   3.395  0.00  0.00    +0.004 C 
ATOM     15  C   UNL     1     -31.330  29.564   5.267  0.00  0.00    +0.167 C 
ATOM     16  C   UNL     1     -32.807  30.486   3.593  0.00  0.00    +0.040 C 
ATOM     17  C   UNL     1     -31.786  30.655   4.528  0.00  0.00    +0.167 C 
BRANCH  15  18
ATOM     18  O   UNL     1     -30.333  29.716   6.183  0.00  0.00    -0.503 OA
ATOM     19  H   UNL     1     -30.207  30.542   6.606  0.00  0.00    +0.292 HD
ENDBRANCH  15  18
BRANCH  17  20
ATOM     20  O   UNL     1     -31.242  31.890   4.709  0.00  0.00    -0.503 OA
ATOM     21  H   UNL     1     -30.338  32.038   4.511  0.00  0.00    +0.292 HD
ENDBRANCH  17  20
ENDBRANCH   4  12
BRANCH  10  22
ATOM     22  O   UNL     1     -36.088  21.753   6.335  0.00  0.00    -0.503 OA
ATOM     23  H   UNL     1     -37.002  21.547   6.355  0.00  0.00    +0.292 HD
ENDBRANCH  10  22
BRANCH  11  24
ATOM     24  O   UNL     1     -36.076  20.930   3.683  0.00  0.00    -0.503 OA
ATOM     25  H   UNL     1     -35.727  20.481   2.938  0.00  0.00    +0.292 HD
ENDBRANCH  11  24
TORSDOF 5
ENDMDL
MODEL 3
REMARK VINA RESULT:      -6.2      0.619      1.486
REMARK  Name = 5466141
REMARK  5 active torsions:
REMARK  status: ('A' for Active; 'I' for Inactive)
REMARK    1  A    between atoms: C_4  and  C_12
REMARK    2  A    between atoms: C_10  and  O_22
REMARK    3  A    between atoms: C_11  and  O_24
REMARK    4  A    between atoms: C_15  and  O_18
REMARK    5  A    between atoms: C_17  and  O_20
REMARK                            x       y       z     vdW  Elec       q    Type
REMARK                         _______ _______ _______ _____ _____    ______ ____
ROOT
ATOM      1  O   UNL     1     -34.589  26.335   2.367  0.00  0.00    -0.450 OA
ATOM      2  O   UNL     1     -36.122  24.049   5.380  0.00  0.00    -0.286 OA
ATOM      3  C   UNL     1     -34.640  25.756   4.724  0.00  0.00    +0.077 C 
ATOM      4  C   UNL     1     -36.151  24.610   3.066  0.00  0.00    +0.077 C 
ATOM      5  C   UNL     1     -34.145  26.500   3.654  0.00  0.00    +0.152 C 
ATOM      6  C   UNL     1     -35.682  24.744   4.473  0.00  0.00    +0.202 C 
ATOM      7  C   UNL     1     -34.147  25.968   6.015  0.00  0.00    +0.046 C 
ATOM      8  C   UNL     1     -35.576  25.403   2.149  0.00  0.00    +0.183 C 
ATOM      9  C   UNL     1     -33.155  27.460   3.867  0.00  0.00    +0.077 C 
ATOM     10  C   UNL     1     -33.157  26.928   6.226  0.00  0.00    +0.168 C 
ATOM     11  C   UNL     1     -32.662  27.673   5.155  0.00  0.00    +0.171 C 
ENDROOT
BRANCH   4  12
ATOM     12  C   UNL     1     -37.215  23.667   2.686  0.00  0.00    +0.009 C 
ATOM     13  C   UNL     1     -38.520  24.123   2.493  0.00  0.00    +0.040 C 
ATOM     14  C   UNL     1     -36.921  22.312   2.517  0.00  0.00    +0.004 C 
ATOM     15  C   UNL     1     -39.529  23.228   2.134  0.00  0.00    +0.167 C 
ATOM     16  C   UNL     1     -37.929  21.417   2.159  0.00  0.00    +0.040 C 
ATOM     17  C   UNL     1     -39.232  21.875   1.966  0.00  0.00    +0.167 C 
BRANCH  15  18
ATOM     18  O   UNL     1     -40.797  23.687   1.949  0.00  0.00    -0.503 OA
ATOM     19  H   UNL     1     -41.039  24.081   1.134  0.00  0.00    +0.292 HD
ENDBRANCH  15  18
BRANCH  17  20
ATOM     20  O   UNL     1     -40.208  20.992   1.614  0.00  0.00    -0.503 OA
ATOM     21  H   UNL     1     -41.101  21.271   1.573  0.00  0.00    +0.292 HD
ENDBRANCH  17  20
ENDBRANCH   4  12
BRANCH  10  22
ATOM     22  O   UNL     1     -32.681  27.130   7.486  0.00  0.00    -0.503 OA
ATOM     23  H   UNL     1     -31.784  26.946   7.683  0.00  0.00    +0.292 HD
ENDBRANCH  10  22
BRANCH  11  24
ATOM     24  O   UNL     1     -31.696  28.614   5.355  0.00  0.00    -0.503 OA
ATOM     25  H   UNL     1     -31.918  29.524   5.332  0.00  0.00    +0.292 HD
ENDBRANCH  11  24
TORSDOF 5
ENDMDL
MODEL 4
REMARK VINA RESULT:      -6.2      2.513      7.315
REMARK  Name = 5466141
REMARK  5 active torsions:
REMARK  status: ('A' for Active; 'I' for Inactive)
REMARK    1  A    between atoms: C_4  and  C_12
REMARK    2  A    between atoms: C_10  and  O_22
REMARK    3  A    between atoms: C_11  and  O_24
REMARK    4  A    between atoms: C_15  and  O_18
REMARK    5  A    between atoms: C_17  and  O_20
REMARK                            x       y       z     vdW  Elec       q    Type
REMARK                         _______ _______ _______ _____ _____    ______ ____
ROOT
ATOM      1  O   UNL     1     -34.216  24.975   2.183  0.00  0.00    -0.450 OA
ATOM      2  O   UNL     1     -34.112  26.484   5.973  0.00  0.00    -0.286 OA
ATOM      3  C   UNL     1     -34.626  24.675   4.556  0.00  0.00    +0.077 C 
ATOM      4  C   UNL     1     -33.641  26.814   3.662  0.00  0.00    +0.077 C 
ATOM      5  C   UNL     1     -34.649  24.216   3.240  0.00  0.00    +0.152 C 
ATOM      6  C   UNL     1     -34.120  26.032   4.835  0.00  0.00    +0.202 C 
ATOM      7  C   UNL     1     -35.082  23.857   5.594  0.00  0.00    +0.046 C 
ATOM      8  C   UNL     1     -33.727  26.230   2.457  0.00  0.00    +0.183 C 
ATOM      9  C   UNL     1     -35.127  22.937   2.952  0.00  0.00    +0.077 C 
ATOM     10  C   UNL     1     -35.560  22.578   5.304  0.00  0.00    +0.168 C 
ATOM     11  C   UNL     1     -35.582  22.119   3.987  0.00  0.00    +0.171 C 
ENDROOT
BRANCH   4  12
ATOM     12  C   UNL     1     -33.076  28.165   3.805  0.00  0.00    +0.009 C 
ATOM     13  C   UNL     1     -33.766  29.271   3.307  0.00  0.00    +0.040 C 
ATOM     14  C   UNL     1     -31.844  28.344   4.440  0.00  0.00    +0.004 C 
ATOM     15  C   UNL     1     -33.228  30.552   3.441  0.00  0.00    +0.167 C 
ATOM     16  C   UNL     1     -31.306  29.624   4.574  0.00  0.00    +0.040 C 
ATOM     17  C   UNL     1     -31.999  30.728   4.076  0.00  0.00    +0.167 C 
BRANCH  15  18
ATOM     18  O   UNL     1     -33.914  31.622   2.951  0.00  0.00    -0.503 OA
ATOM     19  H   UNL     1     -34.829  31.546   2.763  0.00  0.00    +0.292 HD
ENDBRANCH  15  18
BRANCH  17  20
ATOM     20  O   UNL     1     -31.464  31.973   4.215  0.00  0.00    -0.503 OA
ATOM     21  H   UNL     1     -30.560  32.072   4.441  0.00  0.00    +0.292 HD
ENDBRANCH  17  20
ENDBRANCH   4  12
BRANCH  10  22
ATOM     22  O   UNL     1     -36.002  21.786   6.320  0.00  0.00    -0.503 OA
ATOM     23  H   UNL     1     -36.030  20.855   6.211  0.00  0.00    +0.292 HD
ENDBRANCH  10  22
BRANCH  11  24
ATOM     24  O   UNL     1     -36.046  20.871   3.698  0.00  0.00    -0.503 OA
ATOM     25  H   UNL     1     -35.801  20.144   4.237  0.00  0.00    +0.292 HD
ENDBRANCH  11  24
TORSDOF 5
ENDMDL
MODEL 5
REMARK VINA RESULT:      -6.1      3.400      5.189
REMARK  Name = 5466141
REMARK  5 active torsions:
REMARK  status: ('A' for Active; 'I' for Inactive)
REMARK    1  A    between atoms: C_4  and  C_12
REMARK    2  A    between atoms: C_10  and  O_22
REMARK    3  A    between atoms: C_11  and  O_24
REMARK    4  A    between atoms: C_15  and  O_18
REMARK    5  A    between atoms: C_17  and  O_20
REMARK                            x       y       z     vdW  Elec       q    Type
REMARK                         _______ _______ _______ _____ _____    ______ ____
ROOT
ATOM      1  O   UNL     1     -35.612  22.023   4.610  0.00  0.00    -0.450 OA
ATOM      2  O   UNL     1     -35.415  22.658   0.584  0.00  0.00    -0.286 OA
ATOM      3  C   UNL     1     -35.724  23.562   2.736  0.00  0.00    +0.077 C 
ATOM      4  C   UNL     1     -35.244  21.114   2.388  0.00  0.00    +0.077 C 
ATOM      5  C   UNL     1     -35.792  23.284   4.100  0.00  0.00    +0.152 C 
ATOM      6  C   UNL     1     -35.452  22.462   1.792  0.00  0.00    +0.202 C 
ATOM      7  C   UNL     1     -35.917  24.867   2.274  0.00  0.00    +0.046 C 
ATOM      8  C   UNL     1     -35.338  21.011   3.723  0.00  0.00    +0.183 C 
ATOM      9  C   UNL     1     -36.052  24.309   5.012  0.00  0.00    +0.077 C 
ATOM     10  C   UNL     1     -36.177  25.890   3.187  0.00  0.00    +0.168 C 
ATOM     11  C   UNL     1     -36.245  25.612   4.552  0.00  0.00    +0.171 C 
ENDROOT
BRANCH   4  12
ATOM     12  C   UNL     1     -34.925  19.938   1.563  0.00  0.00    +0.009 C 
ATOM     13  C   UNL     1     -33.706  19.277   1.724  0.00  0.00    +0.040 C 
ATOM     14  C   UNL     1     -35.842  19.480   0.614  0.00  0.00    +0.004 C 
ATOM     15  C   UNL     1     -33.404  18.163   0.940  0.00  0.00    +0.167 C 
ATOM     16  C   UNL     1     -35.540  18.366  -0.170  0.00  0.00    +0.040 C 
ATOM     17  C   UNL     1     -34.322  17.708  -0.006  0.00  0.00    +0.167 C 
BRANCH  15  18
ATOM     18  O   UNL     1     -32.211  17.528   1.109  0.00  0.00    -0.503 OA
ATOM     19  H   UNL     1     -31.730  17.638   1.906  0.00  0.00    +0.292 HD
ENDBRANCH  15  18
BRANCH  17  20
ATOM     20  O   UNL     1     -34.040  16.620  -0.776  0.00  0.00    -0.503 OA
ATOM     21  H   UNL     1     -34.681  16.291  -1.375  0.00  0.00    +0.292 HD
ENDBRANCH  17  20
ENDBRANCH   4  12
BRANCH  10  22
ATOM     22  O   UNL     1     -36.364  27.160   2.730  0.00  0.00    -0.503 OA
ATOM     23  H   UNL     1     -36.215  27.360   1.828  0.00  0.00    +0.292 HD
ENDBRANCH  10  22
BRANCH  11  24
ATOM     24  O   UNL     1     -36.497  26.607   5.449  0.00  0.00    -0.503 OA
ATOM     25  H   UNL     1     -36.753  26.394   6.324  0.00  0.00    +0.292 HD
ENDBRANCH  11  24
TORSDOF 5
ENDMDL
MODEL 6
REMARK VINA RESULT:      -6.1      2.695      3.987
REMARK  Name = 5466141
REMARK  5 active torsions:
REMARK  status: ('A' for Active; 'I' for Inactive)
REMARK    1  A    between atoms: C_4  and  C_12
REMARK    2  A    between atoms: C_10  and  O_22
REMARK    3  A    between atoms: C_11  and  O_24
REMARK    4  A    between atoms: C_15  and  O_18
REMARK    5  A    between atoms: C_17  and  O_20
REMARK                            x       y       z     vdW  Elec       q    Type
REMARK                         _______ _______ _______ _____ _____    ______ ____
ROOT
ATOM      1  O   UNL     1     -36.446  27.250   2.253  0.00  0.00    -0.450 OA
ATOM      2  O   UNL     1     -33.044  26.116   4.200  0.00  0.00    -0.286 OA
ATOM      3  C   UNL     1     -34.194  27.777   2.992  0.00  0.00    +0.077 C 
ATOM      4  C   UNL     1     -35.266  25.565   3.546  0.00  0.00    +0.077 C 
ATOM      5  C   UNL     1     -35.377  28.106   2.331  0.00  0.00    +0.152 C 
ATOM      6  C   UNL     1     -34.076  26.456   3.636  0.00  0.00    +0.202 C 
ATOM      7  C   UNL     1     -33.137  28.690   3.038  0.00  0.00    +0.046 C 
ATOM      8  C   UNL     1     -36.331  26.030   2.875  0.00  0.00    +0.183 C 
ATOM      9  C   UNL     1     -35.510  29.349   1.711  0.00  0.00    +0.077 C 
ATOM     10  C   UNL     1     -33.272  29.933   2.417  0.00  0.00    +0.168 C 
ATOM     11  C   UNL     1     -34.455  30.262   1.755  0.00  0.00    +0.171 C 
ENDROOT
BRANCH   4  12
ATOM     12  C   UNL     1     -35.295  24.238   4.178  0.00  0.00    +0.009 C 
ATOM     13  C   UNL     1     -35.510  23.096   3.404  0.00  0.00    +0.040 C 
ATOM     14  C   UNL     1     -35.109  24.115   5.557  0.00  0.00    +0.004 C 
ATOM     15  C   UNL     1     -35.540  21.837   4.005  0.00  0.00    +0.167 C 
ATOM     16  C   UNL     1     -35.138  22.856   6.158  0.00  0.00    +0.040 C 
ATOM     17  C   UNL     1     -35.353  21.718   5.381  0.00  0.00    +0.167 C 
BRANCH  15  18
ATOM     18  O   UNL     1     -35.749  20.732   3.236  0.00  0.00    -0.503 OA
ATOM     19  H   UNL     1     -36.595  20.329   3.215  0.00  0.00    +0.292 HD
ENDBRANCH  15  18
BRANCH  17  20
ATOM     20  O   UNL     1     -35.377  20.494   5.980  0.00  0.00    -0.503 OA
ATOM     21  H   UNL     1     -36.191  20.126   6.261  0.00  0.00    +0.292 HD
ENDBRANCH  17  20
ENDBRANCH   4  12
BRANCH  10  22
ATOM     22  O   UNL     1     -32.238  30.818   2.465  0.00  0.00    -0.503 OA
ATOM     23  H   UNL     1     -32.255  31.527   3.077  0.00  0.00    +0.292 HD
ENDBRANCH  10  22
BRANCH  11  24
ATOM     24  O   UNL     1     -34.594  31.475   1.149  0.00  0.00    -0.503 OA
ATOM     25  H   UNL     1     -33.843  32.018   1.014  0.00  0.00    +0.292 HD
ENDBRANCH  11  24
TORSDOF 5
ENDMDL
MODEL 7
REMARK VINA RESULT:      -6.0      4.094      5.807
REMARK  Name = 5466141
REMARK  5 active torsions:
REMARK  status: ('A' for Active; 'I' for Inactive)
REMARK    1  A    between atoms: C_4  and  C_12
REMARK    2  A    between atoms: C_10  and  O_22
REMARK    3  A    between atoms: C_11  and  O_24
REMARK    4  A    between atoms: C_15  and  O_18
REMARK    5  A    between atoms: C_17  and  O_20
REMARK                            x       y       z     vdW  Elec       q    Type
REMARK                         _______ _______ _______ _____ _____    ______ ____
ROOT
ATOM      1  O   UNL     1     -34.174  23.199   0.553  0.00  0.00    -0.450 OA
ATOM      2  O   UNL     1     -35.799  20.351   2.982  0.00  0.00    -0.286 OA
ATOM      3  C   UNL     1     -35.629  22.628   2.410  0.00  0.00    +0.077 C 
ATOM      4  C   UNL     1     -34.399  20.848   1.121  0.00  0.00    +0.077 C 
ATOM      5  C   UNL     1     -35.036  23.558   1.558  0.00  0.00    +0.152 C 
ATOM      6  C   UNL     1     -35.322  21.196   2.236  0.00  0.00    +0.202 C 
ATOM      7  C   UNL     1     -36.500  23.054   3.418  0.00  0.00    +0.046 C 
ATOM      8  C   UNL     1     -33.912  21.860   0.387  0.00  0.00    +0.183 C 
ATOM      9  C   UNL     1     -35.308  24.919   1.708  0.00  0.00    +0.077 C 
ATOM     10  C   UNL     1     -36.771  24.414   3.566  0.00  0.00    +0.168 C 
ATOM     11  C   UNL     1     -36.177  25.345   2.713  0.00  0.00    +0.171 C 
ENDROOT
BRANCH   4  12
ATOM     12  C   UNL     1     -34.042  19.455   0.812  0.00  0.00    +0.009 C 
ATOM     13  C   UNL     1     -32.792  18.952   1.181  0.00  0.00    +0.040 C 
ATOM     14  C   UNL     1     -34.952  18.629   0.147  0.00  0.00    +0.004 C 
ATOM     15  C   UNL     1     -32.454  17.631   0.886  0.00  0.00    +0.167 C 
ATOM     16  C   UNL     1     -34.613  17.309  -0.148  0.00  0.00    +0.040 C 
ATOM     17  C   UNL     1     -33.365  16.810   0.223  0.00  0.00    +0.167 C 
BRANCH  15  18
ATOM     18  O   UNL     1     -31.231  17.155   1.253  0.00  0.00    -0.503 OA
ATOM     19  H   UNL     1     -30.463  17.431   0.794  0.00  0.00    +0.292 HD
ENDBRANCH  15  18
BRANCH  17  20
ATOM     20  O   UNL     1     -33.047  15.517  -0.069  0.00  0.00    -0.503 OA
ATOM     21  H   UNL     1     -32.303  15.328  -0.606  0.00  0.00    +0.292 HD
ENDBRANCH  17  20
ENDBRANCH   4  12
BRANCH  10  22
ATOM     22  O   UNL     1     -37.619  24.822   4.550  0.00  0.00    -0.503 OA
ATOM     23  H   UNL     1     -37.288  25.288   5.292  0.00  0.00    +0.292 HD
ENDBRANCH  10  22
BRANCH  11  24
ATOM     24  O   UNL     1     -36.439  26.675   2.851  0.00  0.00    -0.503 OA
ATOM     25  H   UNL     1     -36.545  27.045   3.705  0.00  0.00    +0.292 HD
ENDBRANCH  11  24
TORSDOF 5
ENDMDL
MODEL 8
REMARK VINA RESULT:      -6.0      3.201      5.109
REMARK  Name = 5466141
REMARK  5 active torsions:
REMARK  status: ('A' for Active; 'I' for Inactive)
REMARK    1  A    between atoms: C_4  and  C_12
REMARK    2  A    between atoms: C_10  and  O_22
REMARK    3  A    between atoms: C_11  and  O_24
REMARK    4  A    between atoms: C_15  and  O_18
REMARK    5  A    between atoms: C_17  and  O_20
REMARK                            x       y       z     vdW  Elec       q    Type
REMARK                         _______ _______ _______ _____ _____    ______ ____
ROOT
ATOM      1  O   UNL     1     -35.638  22.057   4.576  0.00  0.00    -0.450 OA
ATOM      2  O   UNL     1     -35.482  22.735   0.555  0.00  0.00    -0.286 OA
ATOM      3  C   UNL     1     -35.759  23.617   2.720  0.00  0.00    +0.077 C 
ATOM      4  C   UNL     1     -35.302  21.169   2.339  0.00  0.00    +0.077 C 
ATOM      5  C   UNL     1     -35.813  23.324   4.082  0.00  0.00    +0.152 C 
ATOM      6  C   UNL     1     -35.507  22.526   1.761  0.00  0.00    +0.202 C 
ATOM      7  C   UNL     1     -35.947  24.929   2.275  0.00  0.00    +0.046 C 
ATOM      8  C   UNL     1     -35.382  21.052   3.674  0.00  0.00    +0.183 C 
ATOM      9  C   UNL     1     -36.055  24.341   5.007  0.00  0.00    +0.077 C 
ATOM     10  C   UNL     1     -36.188  25.943   3.202  0.00  0.00    +0.168 C 
ATOM     11  C   UNL     1     -36.242  25.651   4.565  0.00  0.00    +0.171 C 
ENDROOT
BRANCH   4  12
ATOM     12  C   UNL     1     -35.003  20.000   1.498  0.00  0.00    +0.009 C 
ATOM     13  C   UNL     1     -35.982  19.474   0.654  0.00  0.00    +0.040 C 
ATOM     14  C   UNL     1     -33.736  19.412   1.541  0.00  0.00    +0.004 C 
ATOM     15  C   UNL     1     -35.698  18.364  -0.143  0.00  0.00    +0.167 C 
ATOM     16  C   UNL     1     -33.452  18.303   0.745  0.00  0.00    +0.040 C 
ATOM     17  C   UNL     1     -34.433  17.779  -0.097  0.00  0.00    +0.167 C 
BRANCH  15  18
ATOM     18  O   UNL     1     -36.664  17.862  -0.962  0.00  0.00    -0.503 OA
ATOM     19  H   UNL     1     -37.225  17.175  -0.660  0.00  0.00    +0.292 HD
ENDBRANCH  15  18
BRANCH  17  20
ATOM     20  O   UNL     1     -34.142  16.697  -0.872  0.00  0.00    -0.503 OA
ATOM     21  H   UNL     1     -34.639  15.909  -0.781  0.00  0.00    +0.292 HD
ENDBRANCH  17  20
ENDBRANCH   4  12
BRANCH  10  22
ATOM     22  O   UNL     1     -36.370  27.219   2.762  0.00  0.00    -0.503 OA
ATOM     23  H   UNL     1     -37.229  27.594   2.750  0.00  0.00    +0.292 HD
ENDBRANCH  10  22
BRANCH  11  24
ATOM     24  O   UNL     1     -36.476  26.638   5.475  0.00  0.00    -0.503 OA
ATOM     25  H   UNL     1     -36.424  26.450   6.391  0.00  0.00    +0.292 HD
ENDBRANCH  11  24
TORSDOF 5
ENDMDL
MODEL 9
REMARK VINA RESULT:      -5.9      1.021      2.141
REMARK  Name = 5466141
REMARK  5 active torsions:
REMARK  status: ('A' for Active; 'I' for Inactive)
REMARK    1  A    between atoms: C_4  and  C_12
REMARK    2  A    between atoms: C_10  and  O_22
REMARK    3  A    between atoms: C_11  and  O_24
REMARK    4  A    between atoms: C_15  and  O_18
REMARK    5  A    between atoms: C_17  and  O_20
REMARK                            x       y       z     vdW  Elec       q    Type
REMARK                         _______ _______ _______ _____ _____    ______ ____
ROOT
ATOM      1  O   UNL     1     -34.884  24.869   6.188  0.00  0.00    -0.450 OA
ATOM      2  O   UNL     1     -34.997  25.429   2.147  0.00  0.00    -0.286 OA
ATOM      3  C   UNL     1     -34.113  26.080   4.229  0.00  0.00    +0.077 C 
ATOM      4  C   UNL     1     -35.748  24.175   4.026  0.00  0.00    +0.077 C 
ATOM      5  C   UNL     1     -34.123  25.851   5.605  0.00  0.00    +0.152 C 
ATOM      6  C   UNL     1     -34.954  25.241   3.356  0.00  0.00    +0.202 C 
ATOM      7  C   UNL     1     -33.317  27.096   3.692  0.00  0.00    +0.046 C 
ATOM      8  C   UNL     1     -35.647  24.080   5.361  0.00  0.00    +0.183 C 
ATOM      9  C   UNL     1     -33.338  26.635   6.451  0.00  0.00    +0.077 C 
ATOM     10  C   UNL     1     -32.534  27.879   4.540  0.00  0.00    +0.168 C 
ATOM     11  C   UNL     1     -32.543  27.650   5.916  0.00  0.00    +0.171 C 
ENDROOT
BRANCH   4  12
ATOM     12  C   UNL     1     -36.597  23.243   3.268  0.00  0.00    +0.009 C 
ATOM     13  C   UNL     1     -36.228  21.902   3.142  0.00  0.00    +0.040 C 
ATOM     14  C   UNL     1     -37.775  23.697   2.670  0.00  0.00    +0.004 C 
ATOM     15  C   UNL     1     -37.033  21.019   2.421  0.00  0.00    +0.167 C 
ATOM     16  C   UNL     1     -38.580  22.814   1.950  0.00  0.00    +0.040 C 
ATOM     17  C   UNL     1     -38.209  21.475   1.826  0.00  0.00    +0.167 C 
BRANCH  15  18
ATOM     18  O   UNL     1     -36.661  19.714   2.307  0.00  0.00    -0.503 OA
ATOM     19  H   UNL     1     -36.190  19.298   3.003  0.00  0.00    +0.292 HD
ENDBRANCH  15  18
BRANCH  17  20
ATOM     20  O   UNL     1     -39.004  20.623   1.121  0.00  0.00    -0.503 OA
ATOM     21  H   UNL     1     -39.881  20.457   1.406  0.00  0.00    +0.292 HD
ENDBRANCH  17  20
ENDBRANCH   4  12
BRANCH  10  22
ATOM     22  O   UNL     1     -31.761  28.868   4.010  0.00  0.00    -0.503 OA
ATOM     23  H   UNL     1     -31.224  28.694   3.262  0.00  0.00    +0.292 HD
ENDBRANCH  10  22
BRANCH  11  24
ATOM     24  O   UNL     1     -31.779  28.410   6.749  0.00  0.00    -0.503 OA
ATOM     25  H   UNL     1     -30.867  28.219   6.852  0.00  0.00    +0.292 HD
ENDBRANCH  11  24
TORSDOF 5
ENDMDL
