MODEL 1
REMARK VINA RESULT:      -6.9      0.000      0.000
REMARK  Name = 60196346
REMARK  6 active torsions:
REMARK  status: ('A' for Active; 'I' for Inactive)
REMARK    1  A    between atoms: C_8  and  O_23
REMARK    2  A    between atoms: C_8  and  C_28
REMARK    3  A    between atoms: C_9  and  O_25
REMARK    4  A    between atoms: C_28  and  C_29
REMARK    5  A    between atoms: C_29  and  O_30
REMARK    6  A    between atoms: O_30  and  C_32
REMARK                            x       y       z     vdW  Elec       q    Type
REMARK                         _______ _______ _______ _____ _____    ______ ____
ROOT
ATOM      1  F   UNL     1     -34.485  23.357   3.554  0.00  0.00    -0.237 F 
ATOM      2  O   UNL     1     -32.560  27.149   5.948  0.00  0.00    -0.287 OA
ATOM      3  C   UNL     1     -36.628  21.592   1.374  0.00  0.00    +0.035 C 
ATOM      4  C   UNL     1     -35.464  22.487   0.883  0.00  0.00    +0.010 C 
ATOM      5  C   UNL     1     -35.463  23.917   1.478  0.00  0.00    +0.034 C 
ATOM      6  C   UNL     1     -35.606  23.967   3.030  0.00  0.00    +0.164 C 
ATOM      7  C   UNL     1     -36.756  21.678   2.924  0.00  0.00    +0.035 C 
ATOM      8  C   UNL     1     -36.167  20.170   0.933  0.00  0.00    +0.158 C 
ATOM      9  C   UNL     1     -36.800  23.101   3.500  0.00  0.00    +0.141 C 
ATOM     10  C   UNL     1     -35.575  25.450   3.584  0.00  0.00    +0.064 C 
ATOM     11  C   UNL     1     -34.195  21.646   1.144  0.00  0.00    +0.025 C 
ATOM     12  C   UNL     1     -34.216  24.688   1.001  0.00  0.00    +0.007 C 
ATOM     13  C   UNL     1     -34.670  20.217   1.103  0.00  0.00    -0.014 C 
ATOM     14  C   UNL     1     -37.967  21.981   0.714  0.00  0.00    +0.003 C 
ATOM     15  C   UNL     1     -34.189  26.121   1.519  0.00  0.00    +0.023 C 
ATOM     16  C   UNL     1     -34.322  26.129   3.020  0.00  0.00    -0.035 C 
ATOM     17  C   UNL     1     -36.798  26.307   3.183  0.00  0.00    +0.011 C 
ATOM     18  C   UNL     1     -35.555  25.438   5.107  0.00  0.00    -0.017 C 
ATOM     19  C   UNL     1     -33.856  19.166   1.268  0.00  0.00    -0.006 C 
ATOM     20  C   UNL     1     -33.357  26.669   3.782  0.00  0.00    +0.034 C 
ATOM     21  C   UNL     1     -34.597  25.971   5.871  0.00  0.00    +0.038 C 
ATOM     22  C   UNL     1     -33.435  26.639   5.257  0.00  0.00    +0.195 C 
ENDROOT
BRANCH   8  23
ATOM     23  O   UNL     1     -36.762  19.140   1.696  0.00  0.00    -0.376 OA
ATOM     24  H   UNL     1     -37.428  19.520   2.289  0.00  0.00    +0.211 HD
ENDBRANCH   8  23
BRANCH   9  25
ATOM     25  O   UNL     1     -38.044  23.708   3.192  0.00  0.00    -0.382 OA
ATOM     26  H   UNL     1     -38.014  24.071   2.293  0.00  0.00    +0.210 HD
ENDBRANCH   9  25
BRANCH   8  28
ATOM     27  O   UNL     1     -35.764  20.380  -1.414  0.00  0.00    -0.289 OA
ATOM     28  C   UNL     1     -36.396  19.823  -0.516  0.00  0.00    +0.222 C 
BRANCH  28  29
ATOM     29  C   UNL     1     -37.437  18.761  -0.796  0.00  0.00    +0.275 C 
BRANCH  29  30
ATOM     30  O   UNL     1     -36.914  17.473  -0.551  0.00  0.00    -0.440 OA
BRANCH  30  32
ATOM     31  O   UNL     1     -37.678  15.509   0.396  0.00  0.00    -0.250 OA
ATOM     32  C   UNL     1     -37.833  16.476  -0.338  0.00  0.00    +0.318 C 
ATOM     33  C   UNL     1     -39.074  16.736  -1.136  0.00  0.00    +0.121 C 
ENDBRANCH  30  32
ENDBRANCH  29  30
ENDBRANCH  28  29
ENDBRANCH   8  28
TORSDOF 6
ENDMDL
MODEL 2
REMARK VINA RESULT:      -6.7      2.475      8.331
REMARK  Name = 60196346
REMARK  6 active torsions:
REMARK  status: ('A' for Active; 'I' for Inactive)
REMARK    1  A    between atoms: C_8  and  O_23
REMARK    2  A    between atoms: C_8  and  C_28
REMARK    3  A    between atoms: C_9  and  O_25
REMARK    4  A    between atoms: C_28  and  C_29
REMARK    5  A    between atoms: C_29  and  O_30
REMARK    6  A    between atoms: O_30  and  C_32
REMARK                            x       y       z     vdW  Elec       q    Type
REMARK                         _______ _______ _______ _____ _____    ______ ____
ROOT
ATOM      1  F   UNL     1     -37.106  23.767   1.072  0.00  0.00    -0.237 F 
ATOM      2  O   UNL     1     -39.131  20.799  -2.229  0.00  0.00    -0.287 OA
ATOM      3  C   UNL     1     -35.073  24.775   3.777  0.00  0.00    +0.035 C 
ATOM      4  C   UNL     1     -34.518  24.465   2.365  0.00  0.00    +0.010 C 
ATOM      5  C   UNL     1     -34.959  23.095   1.793  0.00  0.00    +0.034 C 
ATOM      6  C   UNL     1     -36.493  22.827   1.875  0.00  0.00    +0.164 C 
ATOM      7  C   UNL     1     -36.602  24.481   3.831  0.00  0.00    +0.035 C 
ATOM      8  C   UNL     1     -34.796  26.302   3.918  0.00  0.00    +0.158 C 
ATOM      9  C   UNL     1     -37.023  23.101   3.303  0.00  0.00    +0.141 C 
ATOM     10  C   UNL     1     -36.888  21.424   1.256  0.00  0.00    +0.064 C 
ATOM     11  C   UNL     1     -34.898  25.702   1.522  0.00  0.00    +0.025 C 
ATOM     12  C   UNL     1     -34.434  22.928   0.353  0.00  0.00    +0.007 C 
ATOM     13  C   UNL     1     -34.997  26.827   2.520  0.00  0.00    -0.014 C 
ATOM     14  C   UNL     1     -34.344  23.966   4.869  0.00  0.00    +0.003 C 
ATOM     15  C   UNL     1     -34.798  21.574  -0.243  0.00  0.00    +0.023 C 
ATOM     16  C   UNL     1     -36.286  21.355  -0.152  0.00  0.00    -0.035 C 
ATOM     17  C   UNL     1     -36.369  20.205   2.052  0.00  0.00    +0.011 C 
ATOM     18  C   UNL     1     -38.403  21.281   1.212  0.00  0.00    -0.017 C 
ATOM     19  C   UNL     1     -35.292  28.088   2.179  0.00  0.00    -0.006 C 
ATOM     20  C   UNL     1     -37.009  21.157  -1.266  0.00  0.00    +0.034 C 
ATOM     21  C   UNL     1     -39.130  21.087   0.108  0.00  0.00    +0.038 C 
ATOM     22  C   UNL     1     -38.477  20.996  -1.212  0.00  0.00    +0.195 C 
ENDROOT
BRANCH   8  23
ATOM     23  O   UNL     1     -35.650  26.930   4.855  0.00  0.00    -0.376 OA
ATOM     24  H   UNL     1     -35.506  27.889   4.831  0.00  0.00    +0.211 HD
ENDBRANCH   8  23
BRANCH   9  25
ATOM     25  O   UNL     1     -36.623  22.093   4.217  0.00  0.00    -0.382 OA
ATOM     26  H   UNL     1     -37.188  22.128   5.004  0.00  0.00    +0.210 HD
ENDBRANCH   9  25
BRANCH   8  28
ATOM     27  O   UNL     1     -32.468  26.612   3.478  0.00  0.00    -0.289 OA
ATOM     28  C   UNL     1     -33.387  26.684   4.292  0.00  0.00    +0.222 C 
BRANCH  28  29
ATOM     29  C   UNL     1     -33.175  27.157   5.715  0.00  0.00    +0.275 C 
BRANCH  29  30
ATOM     30  O   UNL     1     -32.641  28.464   5.731  0.00  0.00    -0.440 OA
BRANCH  30  32
ATOM     31  O   UNL     1     -30.428  27.869   6.031  0.00  0.00    -0.250 OA
ATOM     32  C   UNL     1     -31.384  28.598   6.265  0.00  0.00    +0.318 C 
ATOM     33  C   UNL     1     -31.335  29.776   7.190  0.00  0.00    +0.121 C 
ENDBRANCH  30  32
ENDBRANCH  29  30
ENDBRANCH  28  29
ENDBRANCH   8  28
TORSDOF 6
ENDMDL
MODEL 3
REMARK VINA RESULT:      -6.6      2.047      7.706
REMARK  Name = 60196346
REMARK  6 active torsions:
REMARK  status: ('A' for Active; 'I' for Inactive)
REMARK    1  A    between atoms: C_8  and  O_23
REMARK    2  A    between atoms: C_8  and  C_28
REMARK    3  A    between atoms: C_9  and  O_25
REMARK    4  A    between atoms: C_28  and  C_29
REMARK    5  A    between atoms: C_29  and  O_30
REMARK    6  A    between atoms: O_30  and  C_32
REMARK                            x       y       z     vdW  Elec       q    Type
REMARK                         _______ _______ _______ _____ _____    ______ ____
ROOT
ATOM      1  F   UNL     1     -36.509  22.064   0.359  0.00  0.00    -0.237 F 
ATOM      2  O   UNL     1     -35.710  18.930  -3.295  0.00  0.00    -0.287 OA
ATOM      3  C   UNL     1     -36.020  23.709   3.444  0.00  0.00    +0.035 C 
ATOM      4  C   UNL     1     -35.145  23.969   2.193  0.00  0.00    +0.010 C 
ATOM      5  C   UNL     1     -34.563  22.689   1.544  0.00  0.00    +0.034 C 
ATOM      6  C   UNL     1     -35.614  21.565   1.283  0.00  0.00    +0.164 C 
ATOM      7  C   UNL     1     -37.045  22.573   3.158  0.00  0.00    +0.035 C 
ATOM      8  C   UNL     1     -36.745  25.076   3.636  0.00  0.00    +0.158 C 
ATOM      9  C   UNL     1     -36.451  21.290   2.556  0.00  0.00    +0.141 C 
ATOM     10  C   UNL     1     -34.968  20.292   0.599  0.00  0.00    +0.064 C 
ATOM     11  C   UNL     1     -36.029  24.846   1.280  0.00  0.00    +0.025 C 
ATOM     12  C   UNL     1     -33.793  23.049   0.259  0.00  0.00    +0.007 C 
ATOM     13  C   UNL     1     -36.962  25.560   2.225  0.00  0.00    -0.014 C 
ATOM     14  C   UNL     1     -35.165  23.347   4.676  0.00  0.00    +0.003 C 
ATOM     15  C   UNL     1     -33.156  21.829  -0.396  0.00  0.00    +0.023 C 
ATOM     16  C   UNL     1     -34.201  20.771  -0.638  0.00  0.00    -0.035 C 
ATOM     17  C   UNL     1     -33.978  19.517   1.498  0.00  0.00    +0.011 C 
ATOM     18  C   UNL     1     -36.056  19.296   0.219  0.00  0.00    -0.017 C 
ATOM     19  C   UNL     1     -37.886  26.441   1.820  0.00  0.00    -0.006 C 
ATOM     20  C   UNL     1     -34.445  20.334  -1.884  0.00  0.00    +0.034 C 
ATOM     21  C   UNL     1     -36.306  18.859  -1.018  0.00  0.00    +0.038 C 
ATOM     22  C   UNL     1     -35.503  19.339  -2.158  0.00  0.00    +0.195 C 
ENDROOT
BRANCH   8  23
ATOM     23  O   UNL     1     -37.957  24.957   4.354  0.00  0.00    -0.376 OA
ATOM     24  H   UNL     1     -37.763  24.803   5.292  0.00  0.00    +0.211 HD
ENDBRANCH   8  23
BRANCH   9  25
ATOM     25  O   UNL     1     -35.701  20.599   3.541  0.00  0.00    -0.382 OA
ATOM     26  H   UNL     1     -35.369  19.766   3.170  0.00  0.00    +0.210 HD
ENDBRANCH   9  25
BRANCH   8  28
ATOM     27  O   UNL     1     -36.039  26.361   5.522  0.00  0.00    -0.289 OA
ATOM     28  C   UNL     1     -35.944  26.158   4.312  0.00  0.00    +0.222 C 
BRANCH  28  29
ATOM     29  C   UNL     1     -35.026  26.969   3.423  0.00  0.00    +0.275 C 
BRANCH  29  30
ATOM     30  O   UNL     1     -34.080  27.678   4.196  0.00  0.00    -0.440 OA
BRANCH  30  32
ATOM     31  O   UNL     1     -31.832  27.650   4.728  0.00  0.00    -0.250 OA
ATOM     32  C   UNL     1     -32.764  27.347   3.994  0.00  0.00    +0.318 C 
ATOM     33  C   UNL     1     -32.616  26.552   2.733  0.00  0.00    +0.121 C 
ENDBRANCH  30  32
ENDBRANCH  29  30
ENDBRANCH  28  29
ENDBRANCH   8  28
TORSDOF 6
ENDMDL
MODEL 4
REMARK VINA RESULT:      -6.5      1.689      2.113
REMARK  Name = 60196346
REMARK  6 active torsions:
REMARK  status: ('A' for Active; 'I' for Inactive)
REMARK    1  A    between atoms: C_8  and  O_23
REMARK    2  A    between atoms: C_8  and  C_28
REMARK    3  A    between atoms: C_9  and  O_25
REMARK    4  A    between atoms: C_28  and  C_29
REMARK    5  A    between atoms: C_29  and  O_30
REMARK    6  A    between atoms: O_30  and  C_32
REMARK                            x       y       z     vdW  Elec       q    Type
REMARK                         _______ _______ _______ _____ _____    ______ ____
ROOT
ATOM      1  F   UNL     1     -34.453  22.938   2.533  0.00  0.00    -0.237 F 
ATOM      2  O   UNL     1     -34.782  27.341   4.610  0.00  0.00    -0.287 OA
ATOM      3  C   UNL     1     -35.421  20.110   0.653  0.00  0.00    +0.035 C 
ATOM      4  C   UNL     1     -35.005  21.456   0.011  0.00  0.00    +0.010 C 
ATOM      5  C   UNL     1     -35.752  22.690   0.575  0.00  0.00    +0.034 C 
ATOM      6  C   UNL     1     -35.764  22.779   2.132  0.00  0.00    +0.164 C 
ATOM      7  C   UNL     1     -35.440  20.236   2.205  0.00  0.00    +0.035 C 
ATOM      8  C   UNL     1     -34.283  19.151   0.188  0.00  0.00    +0.158 C 
ATOM      9  C   UNL     1     -36.223  21.438   2.755  0.00  0.00    +0.141 C 
ATOM     10  C   UNL     1     -36.521  24.069   2.650  0.00  0.00    +0.064 C 
ATOM     11  C   UNL     1     -33.466  21.484   0.138  0.00  0.00    +0.025 C 
ATOM     12  C   UNL     1     -35.198  23.981  -0.060  0.00  0.00    +0.007 C 
ATOM     13  C   UNL     1     -33.061  20.033   0.181  0.00  0.00    -0.014 C 
ATOM     14  C   UNL     1     -36.799  19.636   0.148  0.00  0.00    +0.003 C 
ATOM     15  C   UNL     1     -35.933  25.225   0.424  0.00  0.00    +0.023 C 
ATOM     16  C   UNL     1     -35.917  25.280   1.930  0.00  0.00    -0.035 C 
ATOM     17  C   UNL     1     -38.043  24.069   2.379  0.00  0.00    +0.011 C 
ATOM     18  C   UNL     1     -36.366  24.195   4.159  0.00  0.00    -0.017 C 
ATOM     19  C   UNL     1     -31.787  19.627   0.270  0.00  0.00    -0.006 C 
ATOM     20  C   UNL     1     -35.358  26.324   2.562  0.00  0.00    +0.034 C 
ATOM     21  C   UNL     1     -35.808  25.230   4.796  0.00  0.00    +0.038 C 
ATOM     22  C   UNL     1     -35.278  26.377   4.037  0.00  0.00    +0.195 C 
ENDROOT
BRANCH   8  23
ATOM     23  O   UNL     1     -34.130  18.030   1.036  0.00  0.00    -0.376 OA
ATOM     24  H   UNL     1     -33.972  18.331   1.944  0.00  0.00    +0.211 HD
ENDBRANCH   8  23
BRANCH   9  25
ATOM     25  O   UNL     1     -37.614  21.226   2.584  0.00  0.00    -0.382 OA
ATOM     26  H   UNL     1     -38.016  21.012   3.441  0.00  0.00    +0.210 HD
ENDBRANCH   9  25
BRANCH   8  28
ATOM     27  O   UNL     1     -34.424  19.376  -2.187  0.00  0.00    -0.289 OA
ATOM     28  C   UNL     1     -34.403  18.619  -1.217  0.00  0.00    +0.222 C 
BRANCH  28  29
ATOM     29  C   UNL     1     -34.494  17.115  -1.359  0.00  0.00    +0.275 C 
BRANCH  29  30
ATOM     30  O   UNL     1     -35.842  16.701  -1.431  0.00  0.00    -0.440 OA
BRANCH  30  32
ATOM     31  O   UNL     1     -35.591  15.222   0.325  0.00  0.00    -0.250 OA
ATOM     32  C   UNL     1     -36.291  15.919  -0.398  0.00  0.00    +0.318 C 
ATOM     33  C   UNL     1     -37.780  16.033  -0.269  0.00  0.00    +0.121 C 
ENDBRANCH  30  32
ENDBRANCH  29  30
ENDBRANCH  28  29
ENDBRANCH   8  28
TORSDOF 6
ENDMDL
MODEL 5
REMARK VINA RESULT:      -6.2      3.915      6.421
REMARK  Name = 60196346
REMARK  6 active torsions:
REMARK  status: ('A' for Active; 'I' for Inactive)
REMARK    1  A    between atoms: C_8  and  O_23
REMARK    2  A    between atoms: C_8  and  C_28
REMARK    3  A    between atoms: C_9  and  O_25
REMARK    4  A    between atoms: C_28  and  C_29
REMARK    5  A    between atoms: C_29  and  O_30
REMARK    6  A    between atoms: O_30  and  C_32
REMARK                            x       y       z     vdW  Elec       q    Type
REMARK                         _______ _______ _______ _____ _____    ______ ____
ROOT
ATOM      1  F   UNL     1     -32.772  28.627   1.673  0.00  0.00    -0.237 F 
ATOM      2  O   UNL     1     -30.437  32.841   0.901  0.00  0.00    -0.287 OA
ATOM      3  C   UNL     1     -34.603  26.152   3.402  0.00  0.00    +0.035 C 
ATOM      4  C   UNL     1     -35.235  27.463   2.871  0.00  0.00    +0.010 C 
ATOM      5  C   UNL     1     -34.485  28.750   3.295  0.00  0.00    +0.034 C 
ATOM      6  C   UNL     1     -32.947  28.712   3.039  0.00  0.00    +0.164 C 
ATOM      7  C   UNL     1     -33.067  26.153   3.148  0.00  0.00    +0.035 C 
ATOM      8  C   UNL     1     -35.309  25.065   2.536  0.00  0.00    +0.158 C 
ATOM      9  C   UNL     1     -32.326  27.416   3.613  0.00  0.00    +0.141 C 
ATOM     10  C   UNL     1     -32.238  30.061   3.470  0.00  0.00    +0.064 C 
ATOM     11  C   UNL     1     -35.376  27.234   1.351  0.00  0.00    +0.025 C 
ATOM     12  C   UNL     1     -35.137  29.983   2.638  0.00  0.00    +0.007 C 
ATOM     13  C   UNL     1     -35.481  25.738   1.198  0.00  0.00    -0.014 C 
ATOM     14  C   UNL     1     -34.886  25.948   4.904  0.00  0.00    +0.003 C 
ATOM     15  C   UNL     1     -34.467  31.285   3.061  0.00  0.00    +0.023 C 
ATOM     16  C   UNL     1     -32.986  31.214   2.792  0.00  0.00    -0.035 C 
ATOM     17  C   UNL     1     -32.240  30.326   4.993  0.00  0.00    +0.011 C 
ATOM     18  C   UNL     1     -30.774  30.036   3.052  0.00  0.00    -0.017 C 
ATOM     19  C   UNL     1     -35.636  25.128   0.016  0.00  0.00    -0.006 C 
ATOM     20  C   UNL     1     -32.405  32.100   1.968  0.00  0.00    +0.034 C 
ATOM     21  C   UNL     1     -30.189  30.913   2.230  0.00  0.00    +0.038 C 
ATOM     22  C   UNL     1     -30.966  32.019   1.641  0.00  0.00    +0.195 C 
ENDROOT
BRANCH   8  23
ATOM     23  O   UNL     1     -34.561  23.869   2.442  0.00  0.00    -0.376 OA
ATOM     24  H   UNL     1     -34.712  23.460   1.576  0.00  0.00    +0.211 HD
ENDBRANCH   8  23
BRANCH   9  25
ATOM     25  O   UNL     1     -32.264  27.443   5.030  0.00  0.00    -0.382 OA
ATOM     26  H   UNL     1     -32.766  28.205   5.361  0.00  0.00    +0.210 HD
ENDBRANCH   9  25
BRANCH   8  28
ATOM     27  O   UNL     1     -37.604  25.505   3.036  0.00  0.00    -0.289 OA
ATOM     28  C   UNL     1     -36.698  24.675   2.971  0.00  0.00    +0.222 C 
BRANCH  28  29
ATOM     29  C   UNL     1     -36.908  23.217   3.320  0.00  0.00    +0.275 C 
BRANCH  29  30
ATOM     30  O   UNL     1     -36.576  22.974   4.670  0.00  0.00    -0.440 OA
BRANCH  30  32
ATOM     31  O   UNL     1     -35.288  21.146   4.090  0.00  0.00    -0.250 OA
ATOM     32  C   UNL     1     -35.642  21.995   4.898  0.00  0.00    +0.318 C 
ATOM     33  C   UNL     1     -35.103  22.106   6.291  0.00  0.00    +0.121 C 
ENDBRANCH  30  32
ENDBRANCH  29  30
ENDBRANCH  28  29
ENDBRANCH   8  28
TORSDOF 6
ENDMDL
MODEL 6
REMARK VINA RESULT:      -6.2      3.516      9.188
REMARK  Name = 60196346
REMARK  6 active torsions:
REMARK  status: ('A' for Active; 'I' for Inactive)
REMARK    1  A    between atoms: C_8  and  O_23
REMARK    2  A    between atoms: C_8  and  C_28
REMARK    3  A    between atoms: C_9  and  O_25
REMARK    4  A    between atoms: C_28  and  C_29
REMARK    5  A    between atoms: C_29  and  O_30
REMARK    6  A    between atoms: O_30  and  C_32
REMARK                            x       y       z     vdW  Elec       q    Type
REMARK                         _______ _______ _______ _____ _____    ______ ____
ROOT
ATOM      1  F   UNL     1     -33.789  25.043   2.841  0.00  0.00    -0.237 F 
ATOM      2  O   UNL     1     -35.255  20.418   3.360  0.00  0.00    -0.287 OA
ATOM      3  C   UNL     1     -34.004  28.565   2.714  0.00  0.00    +0.035 C 
ATOM      4  C   UNL     1     -34.030  27.758   4.035  0.00  0.00    +0.010 C 
ATOM      5  C   UNL     1     -35.068  26.610   4.062  0.00  0.00    +0.034 C 
ATOM      6  C   UNL     1     -35.018  25.669   2.818  0.00  0.00    +0.164 C 
ATOM      7  C   UNL     1     -33.972  27.599   1.494  0.00  0.00    +0.035 C 
ATOM      8  C   UNL     1     -32.666  29.357   2.831  0.00  0.00    +0.158 C 
ATOM      9  C   UNL     1     -35.036  26.491   1.507  0.00  0.00    +0.141 C 
ATOM     10  C   UNL     1     -36.085  24.502   2.910  0.00  0.00    +0.064 C 
ATOM     11  C   UNL     1     -32.560  27.343   4.262  0.00  0.00    +0.025 C 
ATOM     12  C   UNL     1     -34.946  25.814   5.376  0.00  0.00    +0.007 C 
ATOM     13  C   UNL     1     -31.752  28.398   3.551  0.00  0.00    -0.014 C 
ATOM     14  C   UNL     1     -35.213  29.515   2.600  0.00  0.00    +0.003 C 
ATOM     15  C   UNL     1     -35.980  24.699   5.476  0.00  0.00    +0.023 C 
ATOM     16  C   UNL     1     -35.896  23.809   4.264  0.00  0.00    -0.035 C 
ATOM     17  C   UNL     1     -37.555  24.972   2.820  0.00  0.00    +0.011 C 
ATOM     18  C   UNL     1     -35.888  23.524   1.760  0.00  0.00    -0.017 C 
ATOM     19  C   UNL     1     -30.413  28.408   3.527  0.00  0.00    -0.006 C 
ATOM     20  C   UNL     1     -35.627  22.500   4.402  0.00  0.00    +0.034 C 
ATOM     21  C   UNL     1     -35.617  22.222   1.890  0.00  0.00    +0.038 C 
ATOM     22  C   UNL     1     -35.483  21.615   3.228  0.00  0.00    +0.195 C 
ENDROOT
BRANCH   8  23
ATOM     23  O   UNL     1     -32.150  29.749   1.575  0.00  0.00    -0.376 OA
ATOM     24  H   UNL     1     -32.787  30.328   1.130  0.00  0.00    +0.211 HD
ENDBRANCH   8  23
BRANCH   9  25
ATOM     25  O   UNL     1     -36.315  27.047   1.250  0.00  0.00    -0.382 OA
ATOM     26  H   UNL     1     -36.911  26.353   0.928  0.00  0.00    +0.210 HD
ENDBRANCH   9  25
BRANCH   8  28
ATOM     27  O   UNL     1     -32.945  30.530   4.894  0.00  0.00    -0.289 OA
ATOM     28  C   UNL     1     -32.706  30.595   3.689  0.00  0.00    +0.222 C 
BRANCH  28  29
ATOM     29  C   UNL     1     -32.436  31.908   2.986  0.00  0.00    +0.275 C 
BRANCH  29  30
ATOM     30  O   UNL     1     -33.646  32.542   2.631  0.00  0.00    -0.440 OA
BRANCH  30  32
ATOM     31  O   UNL     1     -33.693  32.029   0.379  0.00  0.00    -0.250 OA
ATOM     32  C   UNL     1     -33.812  32.827   1.299  0.00  0.00    +0.318 C 
ATOM     33  C   UNL     1     -34.164  34.273   1.118  0.00  0.00    +0.121 C 
ENDBRANCH  30  32
ENDBRANCH  29  30
ENDBRANCH  28  29
ENDBRANCH   8  28
TORSDOF 6
ENDMDL
MODEL 7
REMARK VINA RESULT:      -6.1      3.172      4.594
REMARK  Name = 60196346
REMARK  6 active torsions:
REMARK  status: ('A' for Active; 'I' for Inactive)
REMARK    1  A    between atoms: C_8  and  O_23
REMARK    2  A    between atoms: C_8  and  C_28
REMARK    3  A    between atoms: C_9  and  O_25
REMARK    4  A    between atoms: C_28  and  C_29
REMARK    5  A    between atoms: C_29  and  O_30
REMARK    6  A    between atoms: O_30  and  C_32
REMARK                            x       y       z     vdW  Elec       q    Type
REMARK                         _______ _______ _______ _____ _____    ______ ____
ROOT
ATOM      1  F   UNL     1     -34.114  27.486   4.055  0.00  0.00    -0.237 F 
ATOM      2  O   UNL     1     -31.250  31.404   4.567  0.00  0.00    -0.287 OA
ATOM      3  C   UNL     1     -35.924  24.928   2.429  0.00  0.00    +0.035 C 
ATOM      4  C   UNL     1     -34.382  24.920   2.573  0.00  0.00    +0.010 C 
ATOM      5  C   UNL     1     -33.690  26.223   2.104  0.00  0.00    +0.034 C 
ATOM      6  C   UNL     1     -34.312  27.528   2.690  0.00  0.00    +0.164 C 
ATOM      7  C   UNL     1     -36.512  26.249   3.006  0.00  0.00    +0.035 C 
ATOM      8  C   UNL     1     -36.349  23.705   3.297  0.00  0.00    +0.158 C 
ATOM      9  C   UNL     1     -35.848  27.539   2.499  0.00  0.00    +0.141 C 
ATOM     10  C   UNL     1     -33.552  28.826   2.195  0.00  0.00    +0.064 C 
ATOM     11  C   UNL     1     -34.135  24.516   4.043  0.00  0.00    +0.025 C 
ATOM     12  C   UNL     1     -32.175  26.148   2.379  0.00  0.00    +0.007 C 
ATOM     13  C   UNL     1     -35.351  23.713   4.428  0.00  0.00    -0.014 C 
ATOM     14  C   UNL     1     -36.363  24.756   0.961  0.00  0.00    +0.003 C 
ATOM     15  C   UNL     1     -31.436  27.388   1.891  0.00  0.00    +0.023 C 
ATOM     16  C   UNL     1     -32.060  28.625   2.482  0.00  0.00    -0.035 C 
ATOM     17  C   UNL     1     -33.707  29.120   0.685  0.00  0.00    +0.011 C 
ATOM     18  C   UNL     1     -34.090  30.053   2.918  0.00  0.00    -0.017 C 
ATOM     19  C   UNL     1     -35.515  23.159   5.636  0.00  0.00    -0.006 C 
ATOM     20  C   UNL     1     -31.327  29.452   3.245  0.00  0.00    +0.034 C 
ATOM     21  C   UNL     1     -33.368  30.879   3.681  0.00  0.00    +0.038 C 
ATOM     22  C   UNL     1     -31.927  30.642   3.885  0.00  0.00    +0.195 C 
ENDROOT
BRANCH   8  23
ATOM     23  O   UNL     1     -37.682  23.797   3.758  0.00  0.00    -0.376 OA
ATOM     24  H   UNL     1     -37.723  23.522   4.688  0.00  0.00    +0.211 HD
ENDBRANCH   8  23
BRANCH   9  25
ATOM     25  O   UNL     1     -36.210  27.767   1.148  0.00  0.00    -0.382 OA
ATOM     26  H   UNL     1     -35.873  28.632   0.864  0.00  0.00    +0.210 HD
ENDBRANCH   9  25
BRANCH   8  28
ATOM     27  O   UNL     1     -35.111  21.935   2.275  0.00  0.00    -0.289 OA
ATOM     28  C   UNL     1     -36.207  22.353   2.646  0.00  0.00    +0.222 C 
BRANCH  28  29
ATOM     29  C   UNL     1     -37.480  21.552   2.479  0.00  0.00    +0.275 C 
BRANCH  29  30
ATOM     30  O   UNL     1     -38.228  22.027   1.379  0.00  0.00    -0.440 OA
BRANCH  30  32
ATOM     31  O   UNL     1     -40.295  21.118   1.867  0.00  0.00    -0.250 OA
ATOM     32  C   UNL     1     -39.589  22.064   1.543  0.00  0.00    +0.318 C 
ATOM     33  C   UNL     1     -40.107  23.443   1.269  0.00  0.00    +0.121 C 
ENDBRANCH  30  32
ENDBRANCH  29  30
ENDBRANCH  28  29
ENDBRANCH   8  28
TORSDOF 6
ENDMDL
MODEL 8
REMARK VINA RESULT:      -6.0      3.686      8.747
REMARK  Name = 60196346
REMARK  6 active torsions:
REMARK  status: ('A' for Active; 'I' for Inactive)
REMARK    1  A    between atoms: C_8  and  O_23
REMARK    2  A    between atoms: C_8  and  C_28
REMARK    3  A    between atoms: C_9  and  O_25
REMARK    4  A    between atoms: C_28  and  C_29
REMARK    5  A    between atoms: C_29  and  O_30
REMARK    6  A    between atoms: O_30  and  C_32
REMARK                            x       y       z     vdW  Elec       q    Type
REMARK                         _______ _______ _______ _____ _____    ______ ____
ROOT
ATOM      1  F   UNL     1     -33.831  24.871   3.061  0.00  0.00    -0.237 F 
ATOM      2  O   UNL     1     -35.030  20.674   5.243  0.00  0.00    -0.287 OA
ATOM      3  C   UNL     1     -34.206  28.155   1.822  0.00  0.00    +0.035 C 
ATOM      4  C   UNL     1     -34.039  27.828   3.326  0.00  0.00    +0.010 C 
ATOM      5  C   UNL     1     -35.018  26.752   3.857  0.00  0.00    +0.034 C 
ATOM      6  C   UNL     1     -35.080  25.455   2.993  0.00  0.00    +0.164 C 
ATOM      7  C   UNL     1     -34.282  26.842   0.989  0.00  0.00    +0.035 C 
ATOM      8  C   UNL     1     -32.899  28.941   1.502  0.00  0.00    +0.158 C 
ATOM      9  C   UNL     1     -35.289  25.800   1.499  0.00  0.00    +0.141 C 
ATOM     10  C   UNL     1     -36.078  24.384   3.595  0.00  0.00    +0.064 C 
ATOM     11  C   UNL     1     -32.537  27.510   3.486  0.00  0.00    +0.025 C 
ATOM     12  C   UNL     1     -34.705  26.433   5.332  0.00  0.00    +0.007 C 
ATOM     13  C   UNL     1     -31.865  28.272   2.372  0.00  0.00    -0.014 C 
ATOM     14  C   UNL     1     -35.459  29.016   1.559  0.00  0.00    +0.003 C 
ATOM     15  C   UNL     1     -35.672  25.413   5.922  0.00  0.00    +0.023 C 
ATOM     16  C   UNL     1     -35.699  24.173   5.065  0.00  0.00    -0.035 C 
ATOM     17  C   UNL     1     -37.566  24.798   3.546  0.00  0.00    +0.011 C 
ATOM     18  C   UNL     1     -35.980  23.081   2.812  0.00  0.00    -0.017 C 
ATOM     19  C   UNL     1     -30.540  28.273   2.176  0.00  0.00    -0.006 C 
ATOM     20  C   UNL     1     -35.361  22.983   5.588  0.00  0.00    +0.034 C 
ATOM     21  C   UNL     1     -35.642  21.894   3.324  0.00  0.00    +0.038 C 
ATOM     22  C   UNL     1     -35.323  21.761   4.758  0.00  0.00    +0.195 C 
ENDROOT
BRANCH   8  23
ATOM     23  O   UNL     1     -32.554  28.898   0.131  0.00  0.00    -0.376 OA
ATOM     24  H   UNL     1     -32.607  29.791  -0.243  0.00  0.00    +0.211 HD
ENDBRANCH   8  23
BRANCH   9  25
ATOM     25  O   UNL     1     -36.612  26.242   1.240  0.00  0.00    -0.382 OA
ATOM     26  H   UNL     1     -37.011  25.683   0.555  0.00  0.00    +0.210 HD
ENDBRANCH   9  25
BRANCH   8  28
ATOM     27  O   UNL     1     -32.622  31.280   1.096  0.00  0.00    -0.289 OA
ATOM     28  C   UNL     1     -32.886  30.393   1.907  0.00  0.00    +0.222 C 
BRANCH  28  29
ATOM     29  C   UNL     1     -33.213  30.688   3.355  0.00  0.00    +0.275 C 
BRANCH  29  30
ATOM     30  O   UNL     1     -32.128  31.329   3.992  0.00  0.00    -0.440 OA
BRANCH  30  32
ATOM     31  O   UNL     1     -32.350  30.208   6.000  0.00  0.00    -0.250 OA
ATOM     32  C   UNL     1     -31.660  30.733   5.136  0.00  0.00    +0.318 C 
ATOM     33  C   UNL     1     -30.165  30.812   5.187  0.00  0.00    +0.121 C 
ENDBRANCH  30  32
ENDBRANCH  29  30
ENDBRANCH  28  29
ENDBRANCH   8  28
TORSDOF 6
ENDMDL
MODEL 9
REMARK VINA RESULT:      -5.9      1.469      2.307
REMARK  Name = 60196346
REMARK  6 active torsions:
REMARK  status: ('A' for Active; 'I' for Inactive)
REMARK    1  A    between atoms: C_8  and  O_23
REMARK    2  A    between atoms: C_8  and  C_28
REMARK    3  A    between atoms: C_9  and  O_25
REMARK    4  A    between atoms: C_28  and  C_29
REMARK    5  A    between atoms: C_29  and  O_30
REMARK    6  A    between atoms: O_30  and  C_32
REMARK                            x       y       z     vdW  Elec       q    Type
REMARK                         _______ _______ _______ _____ _____    ______ ____
ROOT
ATOM      1  F   UNL     1     -34.926  22.995   3.428  0.00  0.00    -0.237 F 
ATOM      2  O   UNL     1     -33.580  26.742   6.248  0.00  0.00    -0.287 OA
ATOM      3  C   UNL     1     -36.563  21.264   0.821  0.00  0.00    +0.035 C 
ATOM      4  C   UNL     1     -35.339  22.185   0.594  0.00  0.00    +0.010 C 
ATOM      5  C   UNL     1     -35.480  23.598   1.212  0.00  0.00    +0.034 C 
ATOM      6  C   UNL     1     -35.930  23.606   2.705  0.00  0.00    +0.164 C 
ATOM      7  C   UNL     1     -36.998  21.307   2.316  0.00  0.00    +0.035 C 
ATOM      8  C   UNL     1     -36.000  19.860   0.447  0.00  0.00    +0.158 C 
ATOM      9  C   UNL     1     -37.180  22.714   2.906  0.00  0.00    +0.141 C 
ATOM     10  C   UNL     1     -36.036  25.073   3.289  0.00  0.00    +0.064 C 
ATOM     11  C   UNL     1     -34.134  21.352   1.083  0.00  0.00    +0.025 C 
ATOM     12  C   UNL     1     -34.176  24.396   1.012  0.00  0.00    +0.007 C 
ATOM     13  C   UNL     1     -34.568  19.919   0.914  0.00  0.00    -0.014 C 
ATOM     14  C   UNL     1     -37.749  21.655  -0.083  0.00  0.00    +0.003 C 
ATOM     15  C   UNL     1     -34.276  25.815   1.560  0.00  0.00    +0.023 C 
ATOM     16  C   UNL     1     -34.707  25.781   3.003  0.00  0.00    -0.035 C 
ATOM     17  C   UNL     1     -37.168  25.927   2.673  0.00  0.00    +0.011 C 
ATOM     18  C   UNL     1     -36.319  25.020   4.784  0.00  0.00    -0.017 C 
ATOM     19  C   UNL     1     -33.786  18.873   1.213  0.00  0.00    -0.006 C 
ATOM     20  C   UNL     1     -33.922  26.311   3.955  0.00  0.00    +0.034 C 
ATOM     21  C   UNL     1     -35.542  25.543   5.737  0.00  0.00    +0.038 C 
ATOM     22  C   UNL     1     -34.291  26.241   5.385  0.00  0.00    +0.195 C 
ENDROOT
BRANCH   8  23
ATOM     23  O   UNL     1     -36.718  18.802   1.051  0.00  0.00    -0.376 OA
ATOM     24  H   UNL     1     -37.501  19.158   1.499  0.00  0.00    +0.211 HD
ENDBRANCH   8  23
BRANCH   9  25
ATOM     25  O   UNL     1     -38.348  23.314   2.371  0.00  0.00    -0.382 OA
ATOM     26  H   UNL     1     -39.123  23.019   2.874  0.00  0.00    +0.210 HD
ENDBRANCH   9  25
BRANCH   8  28
ATOM     27  O   UNL     1     -36.657  18.698  -1.535  0.00  0.00    -0.289 OA
ATOM     28  C   UNL     1     -35.929  19.549  -1.026  0.00  0.00    +0.222 C 
BRANCH  28  29
ATOM     29  C   UNL     1     -34.920  20.340  -1.831  0.00  0.00    +0.275 C 
BRANCH  29  30
ATOM     30  O   UNL     1     -34.310  19.523  -2.807  0.00  0.00    -0.440 OA
BRANCH  30  32
ATOM     31  O   UNL     1     -33.099  17.615  -2.330  0.00  0.00    -0.250 OA
ATOM     32  C   UNL     1     -33.194  18.832  -2.407  0.00  0.00    +0.318 C 
ATOM     33  C   UNL     1     -32.087  19.785  -2.071  0.00  0.00    +0.121 C 
ENDBRANCH  30  32
ENDBRANCH  29  30
ENDBRANCH  28  29
ENDBRANCH   8  28
TORSDOF 6
ENDMDL
