MODEL 1
REMARK VINA RESULT:      -6.3      0.000      0.000
REMARK  Name = 5487233
REMARK  2 active torsions:
REMARK  status: ('A' for Active; 'I' for Inactive)
REMARK    1  A    between atoms: C_3  and  S_21
REMARK    2  A    between atoms: C_9  and  C_17
REMARK                            x       y       z     vdW  Elec       q    Type
REMARK                         _______ _______ _______ _____ _____    ______ ____
ROOT
ATOM      1  O   UNL     1     -39.058  22.566   2.047  0.00  0.00    -0.274 OA
ATOM      2  N   UNL     1     -37.203  22.464   3.479  0.00  0.00    -0.283 N 
ATOM      3  C   UNL     1     -37.712  24.583   2.544  0.00  0.00    +0.128 C 
ATOM      4  C   UNL     1     -36.523  24.640   3.466  0.00  0.00    +0.008 C 
ATOM      5  C   UNL     1     -36.270  23.368   3.976  0.00  0.00    +0.047 C 
ATOM      6  C   UNL     1     -38.118  23.092   2.625  0.00  0.00    +0.238 C 
ATOM      7  C   UNL     1     -38.861  25.476   3.000  0.00  0.00    +0.025 C 
ATOM      8  C   UNL     1     -35.727  25.710   3.840  0.00  0.00    -0.001 C 
ATOM      9  C   UNL     1     -34.672  25.471   4.727  0.00  0.00    +0.016 C 
ATOM     10  C   UNL     1     -35.237  23.105   4.853  0.00  0.00    +0.014 C 
ATOM     11  C   UNL     1     -34.429  24.180   5.229  0.00  0.00    +0.003 C 
ATOM     12  H   UNL     1     -37.219  21.504   3.701  0.00  0.00    +0.155 HD
ENDROOT
BRANCH   9  17
ATOM     13  S   UNL     1     -31.776  28.148   4.297  0.00  0.00    -0.049 S 
ATOM     14  O   UNL     1     -31.024  29.299   6.497  0.00  0.00    -0.261 OA
ATOM     15  N   UNL     1     -33.375  26.625   6.376  0.00  0.00    -0.182 NA
ATOM     16  N   UNL     1     -32.562  27.624   6.793  0.00  0.00    -0.198 N 
ATOM     17  C   UNL     1     -33.795  26.600   5.149  0.00  0.00    +0.088 C 
ATOM     18  C   UNL     1     -33.500  27.682   4.143  0.00  0.00    +0.114 C 
ATOM     19  C   UNL     1     -31.756  28.437   6.023  0.00  0.00    +0.292 C 
ATOM     20  H   UNL     1     -32.545  27.792   7.764  0.00  0.00    +0.178 HD
ENDBRANCH   9  17
BRANCH   3  21
ATOM     21  S   UNL     1     -37.252  24.942   0.816  0.00  0.00    -0.128 S 
ATOM     22  C   UNL     1     -37.789  26.666   0.762  0.00  0.00    +0.070 C 
ENDBRANCH   3  21
TORSDOF 2
ENDMDL
MODEL 2
REMARK VINA RESULT:      -6.2      2.803      6.861
REMARK  Name = 5487233
REMARK  2 active torsions:
REMARK  status: ('A' for Active; 'I' for Inactive)
REMARK    1  A    between atoms: C_3  and  S_21
REMARK    2  A    between atoms: C_9  and  C_17
REMARK                            x       y       z     vdW  Elec       q    Type
REMARK                         _______ _______ _______ _____ _____    ______ ____
ROOT
ATOM      1  O   UNL     1     -33.311  27.700   4.974  0.00  0.00    -0.274 OA
ATOM      2  N   UNL     1     -34.187  25.638   5.669  0.00  0.00    -0.283 N 
ATOM      3  C   UNL     1     -34.040  26.000   3.330  0.00  0.00    +0.128 C 
ATOM      4  C   UNL     1     -34.589  24.637   3.661  0.00  0.00    +0.008 C 
ATOM      5  C   UNL     1     -34.657  24.488   5.045  0.00  0.00    +0.047 C 
ATOM      6  C   UNL     1     -33.780  26.597   4.733  0.00  0.00    +0.238 C 
ATOM      7  C   UNL     1     -32.746  25.940   2.526  0.00  0.00    +0.025 C 
ATOM      8  C   UNL     1     -34.990  23.604   2.830  0.00  0.00    -0.001 C 
ATOM      9  C   UNL     1     -35.467  22.428   3.419  0.00  0.00    +0.016 C 
ATOM     10  C   UNL     1     -35.123  23.338   5.652  0.00  0.00    +0.014 C 
ATOM     11  C   UNL     1     -35.533  22.297   4.817  0.00  0.00    +0.003 C 
ATOM     12  H   UNL     1     -34.144  25.762   6.646  0.00  0.00    +0.155 HD
ENDROOT
BRANCH   9  17
ATOM     13  S   UNL     1     -35.094  19.735   0.530  0.00  0.00    -0.049 S 
ATOM     14  O   UNL     1     -37.312  18.594  -0.185  0.00  0.00    -0.261 OA
ATOM     15  N   UNL     1     -37.141  21.278   2.151  0.00  0.00    -0.182 NA
ATOM     16  N   UNL     1     -37.576  20.278   1.350  0.00  0.00    -0.198 N 
ATOM     17  C   UNL     1     -35.908  21.298   2.554  0.00  0.00    +0.088 C 
ATOM     18  C   UNL     1     -34.913  20.209   2.249  0.00  0.00    +0.114 C 
ATOM     19  C   UNL     1     -36.822  19.457   0.536  0.00  0.00    +0.292 C 
ATOM     20  H   UNL     1     -38.548  20.115   1.347  0.00  0.00    +0.178 HD
ENDBRANCH   9  17
BRANCH   3  21
ATOM     21  S   UNL     1     -35.278  27.049   2.499  0.00  0.00    -0.128 S 
ATOM     22  C   UNL     1     -34.145  28.032   1.492  0.00  0.00    +0.070 C 
ENDBRANCH   3  21
TORSDOF 2
ENDMDL
MODEL 3
REMARK VINA RESULT:      -6.1      1.781      1.960
REMARK  Name = 5487233
REMARK  2 active torsions:
REMARK  status: ('A' for Active; 'I' for Inactive)
REMARK    1  A    between atoms: C_3  and  S_21
REMARK    2  A    between atoms: C_9  and  C_17
REMARK                            x       y       z     vdW  Elec       q    Type
REMARK                         _______ _______ _______ _____ _____    ______ ____
ROOT
ATOM      1  O   UNL     1     -37.035  20.837   1.632  0.00  0.00    -0.274 OA
ATOM      2  N   UNL     1     -36.335  21.672   3.709  0.00  0.00    -0.283 N 
ATOM      3  C   UNL     1     -35.839  22.997   1.805  0.00  0.00    +0.128 C 
ATOM      4  C   UNL     1     -35.369  23.640   3.083  0.00  0.00    +0.008 C 
ATOM      5  C   UNL     1     -35.682  22.813   4.161  0.00  0.00    +0.047 C 
ATOM      6  C   UNL     1     -36.491  21.690   2.317  0.00  0.00    +0.238 C 
ATOM      7  C   UNL     1     -36.858  23.845   1.053  0.00  0.00    +0.025 C 
ATOM      8  C   UNL     1     -34.728  24.849   3.298  0.00  0.00    -0.001 C 
ATOM      9  C   UNL     1     -34.404  25.202   4.612  0.00  0.00    +0.016 C 
ATOM     10  C   UNL     1     -35.374  23.138   5.467  0.00  0.00    +0.014 C 
ATOM     11  C   UNL     1     -34.723  24.354   5.687  0.00  0.00    +0.003 C 
ATOM     12  H   UNL     1     -36.649  20.943   4.293  0.00  0.00    +0.155 HD
ENDROOT
BRANCH   9  17
ATOM     13  S   UNL     1     -32.003  28.249   3.782  0.00  0.00    -0.049 S 
ATOM     14  O   UNL     1     -31.387  29.733   5.819  0.00  0.00    -0.261 OA
ATOM     15  N   UNL     1     -33.268  26.719   6.076  0.00  0.00    -0.182 NA
ATOM     16  N   UNL     1     -32.619  27.874   6.352  0.00  0.00    -0.198 N 
ATOM     17  C   UNL     1     -33.714  26.495   4.878  0.00  0.00    +0.088 C 
ATOM     18  C   UNL     1     -33.629  27.497   3.756  0.00  0.00    +0.114 C 
ATOM     19  C   UNL     1     -31.980  28.719   5.468  0.00  0.00    +0.292 C 
ATOM     20  H   UNL     1     -32.602  28.145   7.299  0.00  0.00    +0.178 HD
ENDBRANCH   9  17
BRANCH   3  21
ATOM     21  S   UNL     1     -34.445  22.536   0.723  0.00  0.00    -0.128 S 
ATOM     22  C   UNL     1     -35.284  22.722  -0.866  0.00  0.00    +0.070 C 
ENDBRANCH   3  21
TORSDOF 2
ENDMDL
MODEL 4
REMARK VINA RESULT:      -5.9      5.357      7.888
REMARK  Name = 5487233
REMARK  2 active torsions:
REMARK  status: ('A' for Active; 'I' for Inactive)
REMARK    1  A    between atoms: C_3  and  S_21
REMARK    2  A    between atoms: C_9  and  C_17
REMARK                            x       y       z     vdW  Elec       q    Type
REMARK                         _______ _______ _______ _____ _____    ______ ____
ROOT
ATOM      1  O   UNL     1     -37.863  23.969   3.771  0.00  0.00    -0.274 OA
ATOM      2  N   UNL     1     -37.959  22.197   2.238  0.00  0.00    -0.283 N 
ATOM      3  C   UNL     1     -35.862  22.603   3.268  0.00  0.00    +0.128 C 
ATOM      4  C   UNL     1     -35.814  21.429   2.326  0.00  0.00    +0.008 C 
ATOM      5  C   UNL     1     -37.070  21.246   1.749  0.00  0.00    +0.047 C 
ATOM      6  C   UNL     1     -37.340  23.047   3.162  0.00  0.00    +0.238 C 
ATOM      7  C   UNL     1     -35.518  22.226   4.705  0.00  0.00    +0.025 C 
ATOM      8  C   UNL     1     -34.770  20.580   2.000  0.00  0.00    -0.001 C 
ATOM      9  C   UNL     1     -35.012  19.555   1.080  0.00  0.00    +0.016 C 
ATOM     10  C   UNL     1     -37.336  20.243   0.839  0.00  0.00    +0.014 C 
ATOM     11  C   UNL     1     -36.284  19.389   0.504  0.00  0.00    +0.003 C 
ATOM     12  H   UNL     1     -38.904  22.264   1.968  0.00  0.00    +0.155 HD
ENDROOT
BRANCH   9  17
ATOM     13  S   UNL     1     -33.435  16.278  -0.505  0.00  0.00    -0.049 S 
ATOM     14  O   UNL     1     -30.977  15.812   0.182  0.00  0.00    -0.261 OA
ATOM     15  N   UNL     1     -32.939  18.453   1.550  0.00  0.00    -0.182 NA
ATOM     16  N   UNL     1     -31.928  17.602   1.255  0.00  0.00    -0.198 N 
ATOM     17  C   UNL     1     -33.909  18.625   0.706  0.00  0.00    +0.088 C 
ATOM     18  C   UNL     1     -33.952  17.987  -0.658  0.00  0.00    +0.114 C 
ATOM     19  C   UNL     1     -31.939  16.554   0.359  0.00  0.00    +0.292 C 
ATOM     20  H   UNL     1     -31.082  17.751   1.738  0.00  0.00    +0.178 HD
ENDBRANCH   9  17
BRANCH   3  21
ATOM     21  S   UNL     1     -34.822  23.984   2.688  0.00  0.00    -0.128 S 
ATOM     22  C   UNL     1     -34.257  24.572   4.299  0.00  0.00    +0.070 C 
ENDBRANCH   3  21
TORSDOF 2
ENDMDL
MODEL 5
REMARK VINA RESULT:      -5.8      1.654      6.652
REMARK  Name = 5487233
REMARK  2 active torsions:
REMARK  status: ('A' for Active; 'I' for Inactive)
REMARK    1  A    between atoms: C_3  and  S_21
REMARK    2  A    between atoms: C_9  and  C_17
REMARK                            x       y       z     vdW  Elec       q    Type
REMARK                         _______ _______ _______ _____ _____    ______ ____
ROOT
ATOM      1  O   UNL     1     -31.660  28.537   4.870  0.00  0.00    -0.274 OA
ATOM      2  N   UNL     1     -33.248  27.070   5.779  0.00  0.00    -0.283 N 
ATOM      3  C   UNL     1     -33.315  27.391   3.431  0.00  0.00    +0.128 C 
ATOM      4  C   UNL     1     -34.359  26.412   3.901  0.00  0.00    +0.008 C 
ATOM      5  C   UNL     1     -34.273  26.272   5.285  0.00  0.00    +0.047 C 
ATOM      6  C   UNL     1     -32.604  27.769   4.752  0.00  0.00    +0.238 C 
ATOM      7  C   UNL     1     -32.325  26.778   2.446  0.00  0.00    +0.025 C 
ATOM      8  C   UNL     1     -35.301  25.692   3.186  0.00  0.00    -0.001 C 
ATOM      9  C   UNL     1     -36.158  24.840   3.892  0.00  0.00    +0.016 C 
ATOM     10  C   UNL     1     -35.106  25.438   6.005  0.00  0.00    +0.014 C 
ATOM     11  C   UNL     1     -36.061  24.715   5.289  0.00  0.00    +0.003 C 
ATOM     12  H   UNL     1     -33.005  27.136   6.732  0.00  0.00    +0.155 HD
ENDROOT
BRANCH   9  17
ATOM     13  S   UNL     1     -39.769  24.089   2.432  0.00  0.00    -0.049 S 
ATOM     14  O   UNL     1     -40.132  21.648   1.632  0.00  0.00    -0.261 OA
ATOM     15  N   UNL     1     -37.179  22.761   3.283  0.00  0.00    -0.182 NA
ATOM     16  N   UNL     1     -38.106  22.012   2.643  0.00  0.00    -0.198 N 
ATOM     17  C   UNL     1     -37.185  24.052   3.154  0.00  0.00    +0.088 C 
ATOM     18  C   UNL     1     -38.132  24.795   2.248  0.00  0.00    +0.114 C 
ATOM     19  C   UNL     1     -39.340  22.412   2.173  0.00  0.00    +0.292 C 
ATOM     20  H   UNL     1     -37.872  21.066   2.494  0.00  0.00    +0.178 HD
ENDBRANCH   9  17
BRANCH   3  21
ATOM     21  S   UNL     1     -34.063  28.907   2.747  0.00  0.00    -0.128 S 
ATOM     22  C   UNL     1     -33.948  28.480   0.995  0.00  0.00    +0.070 C 
ENDBRANCH   3  21
TORSDOF 2
ENDMDL
MODEL 6
REMARK VINA RESULT:      -5.8      3.859      7.251
REMARK  Name = 5487233
REMARK  2 active torsions:
REMARK  status: ('A' for Active; 'I' for Inactive)
REMARK    1  A    between atoms: C_3  and  S_21
REMARK    2  A    between atoms: C_9  and  C_17
REMARK                            x       y       z     vdW  Elec       q    Type
REMARK                         _______ _______ _______ _____ _____    ______ ____
ROOT
ATOM      1  O   UNL     1     -36.290  26.249   5.592  0.00  0.00    -0.274 OA
ATOM      2  N   UNL     1     -37.533  24.857   4.170  0.00  0.00    -0.283 N 
ATOM      3  C   UNL     1     -35.261  24.272   4.516  0.00  0.00    +0.128 C 
ATOM      4  C   UNL     1     -35.968  23.297   3.611  0.00  0.00    +0.008 C 
ATOM      5  C   UNL     1     -37.292  23.698   3.441  0.00  0.00    +0.047 C 
ATOM      6  C   UNL     1     -36.388  25.275   4.859  0.00  0.00    +0.238 C 
ATOM      7  C   UNL     1     -34.720  23.620   5.784  0.00  0.00    +0.025 C 
ATOM      8  C   UNL     1     -35.504  22.150   2.990  0.00  0.00    -0.001 C 
ATOM      9  C   UNL     1     -36.394  21.423   2.192  0.00  0.00    +0.016 C 
ATOM     10  C   UNL     1     -38.191  23.000   2.660  0.00  0.00    +0.014 C 
ATOM     11  C   UNL     1     -37.726  21.845   2.028  0.00  0.00    +0.003 C 
ATOM     12  H   UNL     1     -38.400  25.326   4.199  0.00  0.00    +0.155 HD
ENDROOT
BRANCH   9  17
ATOM     13  S   UNL     1     -33.883  19.194   0.080  0.00  0.00    -0.049 S 
ATOM     14  O   UNL     1     -34.896  16.991  -0.842  0.00  0.00    -0.261 OA
ATOM     15  N   UNL     1     -36.800  19.474   0.862  0.00  0.00    -0.182 NA
ATOM     16  N   UNL     1     -36.412  18.351   0.213  0.00  0.00    -0.198 N 
ATOM     17  C   UNL     1     -35.928  20.184   1.508  0.00  0.00    +0.088 C 
ATOM     18  C   UNL     1     -34.481  19.794   1.660  0.00  0.00    +0.114 C 
ATOM     19  C   UNL     1     -35.146  18.024  -0.229  0.00  0.00    +0.292 C 
ATOM     20  H   UNL     1     -37.118  17.687   0.035  0.00  0.00    +0.178 HD
ENDBRANCH   9  17
BRANCH   3  21
ATOM     21  S   UNL     1     -33.949  25.186   3.640  0.00  0.00    -0.128 S 
ATOM     22  C   UNL     1     -34.946  25.809   2.268  0.00  0.00    +0.070 C 
ENDBRANCH   3  21
TORSDOF 2
ENDMDL
MODEL 7
REMARK VINA RESULT:      -5.7      2.133      7.004
REMARK  Name = 5487233
REMARK  2 active torsions:
REMARK  status: ('A' for Active; 'I' for Inactive)
REMARK    1  A    between atoms: C_3  and  S_21
REMARK    2  A    between atoms: C_9  and  C_17
REMARK                            x       y       z     vdW  Elec       q    Type
REMARK                         _______ _______ _______ _____ _____    ______ ____
ROOT
ATOM      1  O   UNL     1     -29.800  30.903   5.062  0.00  0.00    -0.274 OA
ATOM      2  N   UNL     1     -30.896  29.283   6.357  0.00  0.00    -0.283 N 
ATOM      3  C   UNL     1     -31.574  29.475   4.093  0.00  0.00    +0.128 C 
ATOM      4  C   UNL     1     -32.323  28.389   4.820  0.00  0.00    +0.008 C 
ATOM      5  C   UNL     1     -31.886  28.331   6.143  0.00  0.00    +0.047 C 
ATOM      6  C   UNL     1     -30.626  30.010   5.192  0.00  0.00    +0.238 C 
ATOM      7  C   UNL     1     -30.775  28.952   2.904  0.00  0.00    +0.025 C 
ATOM      8  C   UNL     1     -33.298  27.515   4.371  0.00  0.00    -0.001 C 
ATOM      9  C   UNL     1     -33.828  26.592   5.279  0.00  0.00    +0.016 C 
ATOM     10  C   UNL     1     -32.392  27.429   7.059  0.00  0.00    +0.014 C 
ATOM     11  C   UNL     1     -33.379  26.550   6.611  0.00  0.00    +0.003 C 
ATOM     12  H   UNL     1     -30.442  29.428   7.220  0.00  0.00    +0.155 HD
ENDROOT
BRANCH   9  17
ATOM     13  S   UNL     1     -35.520  23.982   2.816  0.00  0.00    -0.049 S 
ATOM     14  O   UNL     1     -38.011  23.464   3.325  0.00  0.00    -0.261 OA
ATOM     15  N   UNL     1     -36.122  25.944   5.049  0.00  0.00    -0.182 NA
ATOM     16  N   UNL     1     -37.108  25.112   4.640  0.00  0.00    -0.198 N 
ATOM     17  C   UNL     1     -34.881  25.638   4.829  0.00  0.00    +0.088 C 
ATOM     18  C   UNL     1     -34.440  24.341   4.200  0.00  0.00    +0.114 C 
ATOM     19  C   UNL     1     -37.049  24.152   3.650  0.00  0.00    +0.292 C 
ATOM     20  H   UNL     1     -37.972  25.202   5.105  0.00  0.00    +0.178 HD
ENDBRANCH   9  17
BRANCH   3  21
ATOM     21  S   UNL     1     -32.674  30.841   3.592  0.00  0.00    -0.128 S 
ATOM     22  C   UNL     1     -32.909  30.359   1.867  0.00  0.00    +0.070 C 
ENDBRANCH   3  21
TORSDOF 2
ENDMDL
MODEL 8
REMARK VINA RESULT:      -5.7      3.806      6.933
REMARK  Name = 5487233
REMARK  2 active torsions:
REMARK  status: ('A' for Active; 'I' for Inactive)
REMARK    1  A    between atoms: C_3  and  S_21
REMARK    2  A    between atoms: C_9  and  C_17
REMARK                            x       y       z     vdW  Elec       q    Type
REMARK                         _______ _______ _______ _____ _____    ______ ____
ROOT
ATOM      1  O   UNL     1     -36.095  26.573   5.414  0.00  0.00    -0.274 OA
ATOM      2  N   UNL     1     -35.686  24.274   5.640  0.00  0.00    -0.283 N 
ATOM      3  C   UNL     1     -36.015  25.086   3.436  0.00  0.00    +0.128 C 
ATOM      4  C   UNL     1     -35.734  23.607   3.461  0.00  0.00    +0.008 C 
ATOM      5  C   UNL     1     -35.558  23.190   4.779  0.00  0.00    +0.047 C 
ATOM      6  C   UNL     1     -35.947  25.457   4.937  0.00  0.00    +0.238 C 
ATOM      7  C   UNL     1     -34.980  25.875   2.643  0.00  0.00    +0.025 C 
ATOM      8  C   UNL     1     -35.631  22.695   2.424  0.00  0.00    -0.001 C 
ATOM      9  C   UNL     1     -35.356  21.360   2.741  0.00  0.00    +0.016 C 
ATOM     10  C   UNL     1     -35.286  21.879   5.119  0.00  0.00    +0.014 C 
ATOM     11  C   UNL     1     -35.186  20.956   4.077  0.00  0.00    +0.003 C 
ATOM     12  H   UNL     1     -35.604  24.218   6.621  0.00  0.00    +0.155 HD
ENDROOT
BRANCH   9  17
ATOM     13  S   UNL     1     -36.716  18.817   0.017  0.00  0.00    -0.049 S 
ATOM     14  O   UNL     1     -34.934  17.190  -0.936  0.00  0.00    -0.261 OA
ATOM     15  N   UNL     1     -34.299  19.464   1.731  0.00  0.00    -0.182 NA
ATOM     16  N   UNL     1     -34.172  18.522   0.768  0.00  0.00    -0.198 N 
ATOM     17  C   UNL     1     -35.240  20.353   1.649  0.00  0.00    +0.088 C 
ATOM     18  C   UNL     1     -36.183  20.464   0.479  0.00  0.00    +0.114 C 
ATOM     19  C   UNL     1     -35.135  18.079  -0.115  0.00  0.00    +0.292 C 
ATOM     20  H   UNL     1     -33.284  18.101   0.688  0.00  0.00    +0.178 HD
ENDBRANCH   9  17
BRANCH   3  21
ATOM     21  S   UNL     1     -37.704  25.449   2.850  0.00  0.00    -0.128 S 
ATOM     22  C   UNL     1     -37.307  26.854   1.786  0.00  0.00    +0.070 C 
ENDBRANCH   3  21
TORSDOF 2
ENDMDL
MODEL 9
REMARK VINA RESULT:      -5.5      4.633      6.677
REMARK  Name = 5487233
REMARK  2 active torsions:
REMARK  status: ('A' for Active; 'I' for Inactive)
REMARK    1  A    between atoms: C_3  and  S_21
REMARK    2  A    between atoms: C_9  and  C_17
REMARK                            x       y       z     vdW  Elec       q    Type
REMARK                         _______ _______ _______ _____ _____    ______ ____
ROOT
ATOM      1  O   UNL     1     -34.667  20.174   2.730  0.00  0.00    -0.274 OA
ATOM      2  N   UNL     1     -36.938  20.323   2.165  0.00  0.00    -0.283 N 
ATOM      3  C   UNL     1     -35.922  22.287   3.023  0.00  0.00    +0.128 C 
ATOM      4  C   UNL     1     -37.370  22.504   2.669  0.00  0.00    +0.008 C 
ATOM      5  C   UNL     1     -37.911  21.316   2.179  0.00  0.00    +0.047 C 
ATOM      6  C   UNL     1     -35.711  20.803   2.636  0.00  0.00    +0.238 C 
ATOM      7  C   UNL     1     -34.977  23.185   2.234  0.00  0.00    +0.025 C 
ATOM      8  C   UNL     1     -38.155  23.641   2.756  0.00  0.00    -0.001 C 
ATOM      9  C   UNL     1     -39.491  23.556   2.350  0.00  0.00    +0.016 C 
ATOM     10  C   UNL     1     -39.226  21.205   1.771  0.00  0.00    +0.014 C 
ATOM     11  C   UNL     1     -40.022  22.348   1.863  0.00  0.00    +0.003 C 
ATOM     12  H   UNL     1     -37.093  19.398   1.861  0.00  0.00    +0.155 HD
ENDROOT
BRANCH   9  17
ATOM     13  S   UNL     1     -41.272  26.823   0.975  0.00  0.00    -0.049 S 
ATOM     14  O   UNL     1     -42.288  28.358   2.804  0.00  0.00    -0.261 OA
ATOM     15  N   UNL     1     -40.337  25.465   3.521  0.00  0.00    -0.182 NA
ATOM     16  N   UNL     1     -41.103  26.576   3.628  0.00  0.00    -0.198 N 
ATOM     17  C   UNL     1     -40.364  24.760   2.432  0.00  0.00    +0.088 C 
ATOM     18  C   UNL     1     -41.276  25.055   1.270  0.00  0.00    +0.114 C 
ATOM     19  C   UNL     1     -41.630  27.341   2.608  0.00  0.00    +0.292 C 
ATOM     20  H   UNL     1     -41.308  26.875   4.544  0.00  0.00    +0.178 HD
ENDBRANCH   9  17
BRANCH   3  21
ATOM     21  S   UNL     1     -35.629  22.442   4.816  0.00  0.00    -0.128 S 
ATOM     22  C   UNL     1     -34.701  23.992   4.788  0.00  0.00    +0.070 C 
ENDBRANCH   3  21
TORSDOF 2
ENDMDL
