MODEL 1
REMARK VINA RESULT:      -5.6      0.000      0.000
REMARK  Name = 195886
REMARK  11 active torsions:
REMARK  status: ('A' for Active; 'I' for Inactive)
REMARK    1  A    between atoms: C_2  and  O_7
REMARK    2  A    between atoms: C_3  and  O_9
REMARK    3  A    between atoms: C_4  and  O_11
REMARK    4  A    between atoms: C_5  and  C_21
REMARK    5  A    between atoms: C_6  and  O_13
REMARK    6  A    between atoms: O_13  and  C_14
REMARK    7  A    between atoms: C_14  and  O_15
REMARK    8  A    between atoms: C_14  and  C_18
REMARK    9  A    between atoms: O_15  and  C_16
REMARK   10  A    between atoms: C_18  and  C_19
REMARK   11  A    between atoms: C_21  and  O_22
REMARK                            x       y       z     vdW  Elec       q    Type
REMARK                         _______ _______ _______ _____ _____    ______ ____
ROOT
ATOM      1  O   UNL     1     -36.975  22.710   2.524  0.00  0.00    -0.326 OA
ATOM      2  C   UNL     1     -39.804  23.204   2.467  0.00  0.00    +0.172 C 
ATOM      3  C   UNL     1     -39.148  22.096   1.644  0.00  0.00    +0.169 C 
ATOM      4  C   UNL     1     -38.793  24.290   2.838  0.00  0.00    +0.196 C 
ATOM      5  C   UNL     1     -37.861  21.610   2.315  0.00  0.00    +0.176 C 
ATOM      6  C   UNL     1     -37.514  23.684   3.416  0.00  0.00    +0.267 C 
ENDROOT
BRANCH   2   7
ATOM      7  O   UNL     1     -40.850  23.778   1.681  0.00  0.00    -0.379 OA
ATOM      8  H   UNL     1     -41.642  23.893   2.231  0.00  0.00    +0.211 HD
ENDBRANCH   2   7
BRANCH   3   9
ATOM      9  O   UNL     1     -40.055  21.004   1.517  0.00  0.00    -0.379 OA
ATOM     10  H   UNL     1     -40.680  21.185   0.798  0.00  0.00    +0.211 HD
ENDBRANCH   3   9
BRANCH   4  11
ATOM     11  O   UNL     1     -39.364  25.152   3.822  0.00  0.00    -0.378 OA
ATOM     12  H   UNL     1     -39.138  24.827   4.707  0.00  0.00    +0.211 HD
ENDBRANCH   4  11
BRANCH   6  13
ATOM     13  O   UNL     1     -36.573  24.741   3.602  0.00  0.00    -0.303 OA
BRANCH  13  14
ATOM     14  C   UNL     1     -35.678  24.482   4.691  0.00  0.00    +0.241 C 
BRANCH  14  15
ATOM     15  O   UNL     1     -36.206  23.502   5.590  0.00  0.00    -0.330 OA
BRANCH  15  16
ATOM     16  C   UNL     1     -35.206  22.676   6.172  0.00  0.00    +0.145 C 
ATOM     17  C   UNL     1     -35.115  21.385   5.388  0.00  0.00    +0.035 C 
ENDBRANCH  15  16
ENDBRANCH  14  15
BRANCH  14  18
ATOM     18  C   UNL     1     -35.432  25.813   5.420  0.00  0.00    +0.087 C 
BRANCH  18  19
ATOM     19  C   UNL     1     -33.980  26.205   5.449  0.00  0.00    -0.021 C 
ATOM     20  C   UNL     1     -33.344  26.638   6.543  0.00  0.00    -0.005 C 
ENDBRANCH  18  19
ENDBRANCH  14  18
ENDBRANCH  13  14
ENDBRANCH   6  13
BRANCH   5  21
ATOM     21  C   UNL     1     -37.128  20.586   1.454  0.00  0.00    +0.169 C 
BRANCH  21  22
ATOM     22  O   UNL     1     -36.741  19.500   2.277  0.00  0.00    -0.379 OA
ATOM     23  H   UNL     1     -37.484  18.882   2.367  0.00  0.00    +0.211 HD
ENDBRANCH  21  22
ENDBRANCH   5  21
TORSDOF 11
ENDMDL
MODEL 2
REMARK VINA RESULT:      -5.6      0.746      2.384
REMARK  Name = 195886
REMARK  11 active torsions:
REMARK  status: ('A' for Active; 'I' for Inactive)
REMARK    1  A    between atoms: C_2  and  O_7
REMARK    2  A    between atoms: C_3  and  O_9
REMARK    3  A    between atoms: C_4  and  O_11
REMARK    4  A    between atoms: C_5  and  C_21
REMARK    5  A    between atoms: C_6  and  O_13
REMARK    6  A    between atoms: O_13  and  C_14
REMARK    7  A    between atoms: C_14  and  O_15
REMARK    8  A    between atoms: C_14  and  C_18
REMARK    9  A    between atoms: O_15  and  C_16
REMARK   10  A    between atoms: C_18  and  C_19
REMARK   11  A    between atoms: C_21  and  O_22
REMARK                            x       y       z     vdW  Elec       q    Type
REMARK                         _______ _______ _______ _____ _____    ______ ____
ROOT
ATOM      1  O   UNL     1     -36.649  22.721   2.476  0.00  0.00    -0.326 OA
ATOM      2  C   UNL     1     -39.513  22.929   2.399  0.00  0.00    +0.172 C 
ATOM      3  C   UNL     1     -38.739  21.937   1.531  0.00  0.00    +0.169 C 
ATOM      4  C   UNL     1     -38.622  24.090   2.842  0.00  0.00    +0.196 C 
ATOM      5  C   UNL     1     -37.416  21.549   2.196  0.00  0.00    +0.176 C 
ATOM      6  C   UNL     1     -37.294  23.586   3.407  0.00  0.00    +0.267 C 
ENDROOT
BRANCH   2   7
ATOM      7  O   UNL     1     -40.604  23.434   1.628  0.00  0.00    -0.379 OA
ATOM      8  H   UNL     1     -40.328  23.527   0.701  0.00  0.00    +0.211 HD
ENDBRANCH   2   7
BRANCH   3   9
ATOM      9  O   UNL     1     -39.528  20.767   1.333  0.00  0.00    -0.379 OA
ATOM     10  H   UNL     1     -39.464  20.486   0.407  0.00  0.00    +0.211 HD
ENDBRANCH   3   9
BRANCH   4  11
ATOM     11  O   UNL     1     -39.288  24.836   3.860  0.00  0.00    -0.378 OA
ATOM     12  H   UNL     1     -38.709  25.551   4.166  0.00  0.00    +0.211 HD
ENDBRANCH   4  11
BRANCH   6  13
ATOM     13  O   UNL     1     -36.467  24.722   3.662  0.00  0.00    -0.303 OA
BRANCH  13  14
ATOM     14  C   UNL     1     -35.996  24.755   5.015  0.00  0.00    +0.241 C 
BRANCH  14  15
ATOM     15  O   UNL     1     -35.513  26.052   5.377  0.00  0.00    -0.330 OA
BRANCH  15  16
ATOM     16  C   UNL     1     -34.135  26.241   5.085  0.00  0.00    +0.145 C 
ATOM     17  C   UNL     1     -33.416  26.665   6.347  0.00  0.00    +0.035 C 
ENDBRANCH  15  16
ENDBRANCH  14  15
BRANCH  14  18
ATOM     18  C   UNL     1     -34.883  23.703   5.148  0.00  0.00    +0.087 C 
BRANCH  18  19
ATOM     19  C   UNL     1     -35.199  22.642   6.167  0.00  0.00    -0.021 C 
ATOM     20  C   UNL     1     -35.203  21.331   5.906  0.00  0.00    -0.005 C 
ENDBRANCH  18  19
ENDBRANCH  14  18
ENDBRANCH  13  14
ENDBRANCH   6  13
BRANCH   5  21
ATOM     21  C   UNL     1     -36.573  20.651   1.295  0.00  0.00    +0.169 C 
BRANCH  21  22
ATOM     22  O   UNL     1     -36.885  19.301   1.587  0.00  0.00    -0.379 OA
ATOM     23  H   UNL     1     -36.613  18.739   0.844  0.00  0.00    +0.211 HD
ENDBRANCH  21  22
ENDBRANCH   5  21
TORSDOF 11
ENDMDL
MODEL 3
REMARK VINA RESULT:      -5.2      1.513      2.978
REMARK  Name = 195886
REMARK  11 active torsions:
REMARK  status: ('A' for Active; 'I' for Inactive)
REMARK    1  A    between atoms: C_2  and  O_7
REMARK    2  A    between atoms: C_3  and  O_9
REMARK    3  A    between atoms: C_4  and  O_11
REMARK    4  A    between atoms: C_5  and  C_21
REMARK    5  A    between atoms: C_6  and  O_13
REMARK    6  A    between atoms: O_13  and  C_14
REMARK    7  A    between atoms: C_14  and  O_15
REMARK    8  A    between atoms: C_14  and  C_18
REMARK    9  A    between atoms: O_15  and  C_16
REMARK   10  A    between atoms: C_18  and  C_19
REMARK   11  A    between atoms: C_21  and  O_22
REMARK                            x       y       z     vdW  Elec       q    Type
REMARK                         _______ _______ _______ _____ _____    ______ ____
ROOT
ATOM      1  O   UNL     1     -37.803  23.118   2.598  0.00  0.00    -0.326 OA
ATOM      2  C   UNL     1     -39.657  25.245   2.061  0.00  0.00    +0.172 C 
ATOM      3  C   UNL     1     -39.788  23.862   1.423  0.00  0.00    +0.169 C 
ATOM      4  C   UNL     1     -38.223  25.509   2.520  0.00  0.00    +0.196 C 
ATOM      5  C   UNL     1     -39.165  22.789   2.319  0.00  0.00    +0.176 C 
ATOM      6  C   UNL     1     -37.674  24.334   3.330  0.00  0.00    +0.267 C 
ENDROOT
BRANCH   2   7
ATOM      7  O   UNL     1     -40.030  26.219   1.084  0.00  0.00    -0.379 OA
ATOM      8  H   UNL     1     -39.238  26.691   0.779  0.00  0.00    +0.211 HD
ENDBRANCH   2   7
BRANCH   3   9
ATOM      9  O   UNL     1     -41.167  23.565   1.221  0.00  0.00    -0.379 OA
ATOM     10  H   UNL     1     -41.411  22.787   1.746  0.00  0.00    +0.211 HD
ENDBRANCH   3   9
BRANCH   4  11
ATOM     11  O   UNL     1     -38.196  26.673   3.345  0.00  0.00    -0.378 OA
ATOM     12  H   UNL     1     -39.071  26.808   3.741  0.00  0.00    +0.211 HD
ENDBRANCH   4  11
BRANCH   6  13
ATOM     13  O   UNL     1     -36.295  24.592   3.597  0.00  0.00    -0.303 OA
BRANCH  13  14
ATOM     14  C   UNL     1     -36.069  24.955   4.965  0.00  0.00    +0.241 C 
BRANCH  14  15
ATOM     15  O   UNL     1     -35.619  26.308   5.086  0.00  0.00    -0.330 OA
BRANCH  15  16
ATOM     16  C   UNL     1     -34.786  26.722   4.010  0.00  0.00    +0.145 C 
ATOM     17  C   UNL     1     -33.416  27.067   4.551  0.00  0.00    +0.035 C 
ENDBRANCH  15  16
ENDBRANCH  14  15
BRANCH  14  18
ATOM     18  C   UNL     1     -35.028  23.981   5.541  0.00  0.00    +0.087 C 
BRANCH  18  19
ATOM     19  C   UNL     1     -35.633  22.682   5.998  0.00  0.00    -0.021 C 
ATOM     20  C   UNL     1     -35.012  21.500   5.923  0.00  0.00    -0.005 C 
ENDBRANCH  18  19
ENDBRANCH  14  18
ENDBRANCH  13  14
ENDBRANCH   6  13
BRANCH   5  21
ATOM     21  C   UNL     1     -39.180  21.418   1.651  0.00  0.00    +0.169 C 
BRANCH  21  22
ATOM     22  O   UNL     1     -40.466  20.849   1.819  0.00  0.00    -0.379 OA
ATOM     23  H   UNL     1     -40.432  20.173   2.515  0.00  0.00    +0.211 HD
ENDBRANCH  21  22
ENDBRANCH   5  21
TORSDOF 11
ENDMDL
MODEL 4
REMARK VINA RESULT:      -5.2      1.617      2.138
REMARK  Name = 195886
REMARK  11 active torsions:
REMARK  status: ('A' for Active; 'I' for Inactive)
REMARK    1  A    between atoms: C_2  and  O_7
REMARK    2  A    between atoms: C_3  and  O_9
REMARK    3  A    between atoms: C_4  and  O_11
REMARK    4  A    between atoms: C_5  and  C_21
REMARK    5  A    between atoms: C_6  and  O_13
REMARK    6  A    between atoms: O_13  and  C_14
REMARK    7  A    between atoms: C_14  and  O_15
REMARK    8  A    between atoms: C_14  and  C_18
REMARK    9  A    between atoms: O_15  and  C_16
REMARK   10  A    between atoms: C_18  and  C_19
REMARK   11  A    between atoms: C_21  and  O_22
REMARK                            x       y       z     vdW  Elec       q    Type
REMARK                         _______ _______ _______ _____ _____    ______ ____
ROOT
ATOM      1  O   UNL     1     -38.689  23.403   2.584  0.00  0.00    -0.326 OA
ATOM      2  C   UNL     1     -40.755  25.250   1.828  0.00  0.00    +0.172 C 
ATOM      3  C   UNL     1     -40.480  23.963   1.050  0.00  0.00    +0.169 C 
ATOM      4  C   UNL     1     -39.530  25.681   2.635  0.00  0.00    +0.196 C 
ATOM      5  C   UNL     1     -39.871  22.896   1.962  0.00  0.00    +0.176 C 
ATOM      6  C   UNL     1     -38.954  24.514   3.437  0.00  0.00    +0.267 C 
ENDROOT
BRANCH   2   7
ATOM      7  O   UNL     1     -41.088  26.272   0.888  0.00  0.00    -0.379 OA
ATOM      8  H   UNL     1     -40.965  27.142   1.300  0.00  0.00    +0.211 HD
ENDBRANCH   2   7
BRANCH   3   9
ATOM      9  O   UNL     1     -41.701  23.474   0.502  0.00  0.00    -0.379 OA
ATOM     10  H   UNL     1     -41.878  22.586   0.849  0.00  0.00    +0.211 HD
ENDBRANCH   3   9
BRANCH   4  11
ATOM     11  O   UNL     1     -39.904  26.711   3.549  0.00  0.00    -0.378 OA
ATOM     12  H   UNL     1     -39.342  27.489   3.406  0.00  0.00    +0.211 HD
ENDBRANCH   4  11
BRANCH   6  13
ATOM     13  O   UNL     1     -37.740  24.955   4.045  0.00  0.00    -0.303 OA
BRANCH  13  14
ATOM     14  C   UNL     1     -36.662  24.036   3.829  0.00  0.00    +0.241 C 
BRANCH  14  15
ATOM     15  O   UNL     1     -36.574  23.066   4.877  0.00  0.00    -0.330 OA
BRANCH  15  16
ATOM     16  C   UNL     1     -35.412  22.252   4.794  0.00  0.00    +0.145 C 
ATOM     17  C   UNL     1     -34.948  21.911   6.194  0.00  0.00    +0.035 C 
ENDBRANCH  15  16
ENDBRANCH  14  15
BRANCH  14  18
ATOM     18  C   UNL     1     -35.364  24.853   3.732  0.00  0.00    +0.087 C 
BRANCH  18  19
ATOM     19  C   UNL     1     -35.282  25.946   4.763  0.00  0.00    -0.021 C 
ATOM     20  C   UNL     1     -34.475  25.910   5.829  0.00  0.00    -0.005 C 
ENDBRANCH  18  19
ENDBRANCH  14  18
ENDBRANCH  13  14
ENDBRANCH   6  13
BRANCH   5  21
ATOM     21  C   UNL     1     -39.480  21.643   1.184  0.00  0.00    +0.169 C 
BRANCH  21  22
ATOM     22  O   UNL     1     -40.654  20.902   0.904  0.00  0.00    -0.379 OA
ATOM     23  H   UNL     1     -40.914  21.045  -0.020  0.00  0.00    +0.211 HD
ENDBRANCH  21  22
ENDBRANCH   5  21
TORSDOF 11
ENDMDL
MODEL 5
REMARK VINA RESULT:      -5.2      2.002      5.479
REMARK  Name = 195886
REMARK  11 active torsions:
REMARK  status: ('A' for Active; 'I' for Inactive)
REMARK    1  A    between atoms: C_2  and  O_7
REMARK    2  A    between atoms: C_3  and  O_9
REMARK    3  A    between atoms: C_4  and  O_11
REMARK    4  A    between atoms: C_5  and  C_21
REMARK    5  A    between atoms: C_6  and  O_13
REMARK    6  A    between atoms: O_13  and  C_14
REMARK    7  A    between atoms: C_14  and  O_15
REMARK    8  A    between atoms: C_14  and  C_18
REMARK    9  A    between atoms: O_15  and  C_16
REMARK   10  A    between atoms: C_18  and  C_19
REMARK   11  A    between atoms: C_21  and  O_22
REMARK                            x       y       z     vdW  Elec       q    Type
REMARK                         _______ _______ _______ _____ _____    ______ ____
ROOT
ATOM      1  O   UNL     1     -36.948  23.675   4.551  0.00  0.00    -0.326 OA
ATOM      2  C   UNL     1     -35.506  26.056   3.841  0.00  0.00    +0.172 C 
ATOM      3  C   UNL     1     -34.925  24.991   4.771  0.00  0.00    +0.169 C 
ATOM      4  C   UNL     1     -37.034  25.985   3.806  0.00  0.00    +0.196 C 
ATOM      5  C   UNL     1     -35.523  23.617   4.465  0.00  0.00    +0.176 C 
ATOM      6  C   UNL     1     -37.518  24.553   3.582  0.00  0.00    +0.267 C 
ENDROOT
BRANCH   2   7
ATOM      7  O   UNL     1     -35.102  27.337   4.328  0.00  0.00    -0.379 OA
ATOM      8  H   UNL     1     -34.164  27.307   4.577  0.00  0.00    +0.211 HD
ENDBRANCH   2   7
BRANCH   3   9
ATOM      9  O   UNL     1     -33.511  24.939   4.601  0.00  0.00    -0.379 OA
ATOM     10  H   UNL     1     -33.093  24.697   5.442  0.00  0.00    +0.211 HD
ENDBRANCH   3   9
BRANCH   4  11
ATOM     11  O   UNL     1     -37.520  26.795   2.736  0.00  0.00    -0.378 OA
ATOM     12  H   UNL     1     -36.785  27.294   2.349  0.00  0.00    +0.211 HD
ENDBRANCH   4  11
BRANCH   6  13
ATOM     13  O   UNL     1     -38.940  24.546   3.704  0.00  0.00    -0.303 OA
BRANCH  13  14
ATOM     14  C   UNL     1     -39.579  23.985   2.551  0.00  0.00    +0.241 C 
BRANCH  14  15
ATOM     15  O   UNL     1     -38.635  23.674   1.521  0.00  0.00    -0.330 OA
BRANCH  15  16
ATOM     16  C   UNL     1     -38.923  22.457   0.845  0.00  0.00    +0.145 C 
ATOM     17  C   UNL     1     -39.546  21.484   1.823  0.00  0.00    +0.035 C 
ENDBRANCH  15  16
ENDBRANCH  14  15
BRANCH  14  18
ATOM     18  C   UNL     1     -40.615  25.003   2.049  0.00  0.00    +0.087 C 
BRANCH  18  19
ATOM     19  C   UNL     1     -40.948  26.054   3.074  0.00  0.00    -0.021 C 
ATOM     20  C   UNL     1     -42.092  26.746   3.091  0.00  0.00    -0.005 C 
ENDBRANCH  18  19
ENDBRANCH  14  18
ENDBRANCH  13  14
ENDBRANCH   6  13
BRANCH   5  21
ATOM     21  C   UNL     1     -35.045  22.560   5.455  0.00  0.00    +0.169 C 
BRANCH  21  22
ATOM     22  O   UNL     1     -36.158  22.112   6.208  0.00  0.00    -0.379 OA
ATOM     23  H   UNL     1     -36.872  21.851   5.605  0.00  0.00    +0.211 HD
ENDBRANCH  21  22
ENDBRANCH   5  21
TORSDOF 11
ENDMDL
MODEL 6
REMARK VINA RESULT:      -5.2      2.554      4.547
REMARK  Name = 195886
REMARK  11 active torsions:
REMARK  status: ('A' for Active; 'I' for Inactive)
REMARK    1  A    between atoms: C_2  and  O_7
REMARK    2  A    between atoms: C_3  and  O_9
REMARK    3  A    between atoms: C_4  and  O_11
REMARK    4  A    between atoms: C_5  and  C_21
REMARK    5  A    between atoms: C_6  and  O_13
REMARK    6  A    between atoms: O_13  and  C_14
REMARK    7  A    between atoms: C_14  and  O_15
REMARK    8  A    between atoms: C_14  and  C_18
REMARK    9  A    between atoms: O_15  and  C_16
REMARK   10  A    between atoms: C_18  and  C_19
REMARK   11  A    between atoms: C_21  and  O_22
REMARK                            x       y       z     vdW  Elec       q    Type
REMARK                         _______ _______ _______ _____ _____    ______ ____
ROOT
ATOM      1  O   UNL     1     -35.024  25.078   5.107  0.00  0.00    -0.326 OA
ATOM      2  C   UNL     1     -36.847  24.667   2.927  0.00  0.00    +0.172 C 
ATOM      3  C   UNL     1     -36.204  23.508   3.688  0.00  0.00    +0.169 C 
ATOM      4  C   UNL     1     -36.027  25.949   3.074  0.00  0.00    +0.196 C 
ATOM      5  C   UNL     1     -35.862  23.922   5.121  0.00  0.00    +0.176 C 
ATOM      6  C   UNL     1     -35.668  26.214   4.536  0.00  0.00    +0.267 C 
ENDROOT
BRANCH   2   7
ATOM      7  O   UNL     1     -36.918  24.304   1.547  0.00  0.00    -0.379 OA
ATOM      8  H   UNL     1     -36.326  23.554   1.379  0.00  0.00    +0.211 HD
ENDBRANCH   2   7
BRANCH   3   9
ATOM      9  O   UNL     1     -37.107  22.405   3.718  0.00  0.00    -0.379 OA
ATOM     10  H   UNL     1     -37.172  22.065   4.624  0.00  0.00    +0.211 HD
ENDBRANCH   3   9
BRANCH   4  11
ATOM     11  O   UNL     1     -36.787  27.056   2.591  0.00  0.00    -0.378 OA
ATOM     12  H   UNL     1     -37.499  26.733   2.018  0.00  0.00    +0.211 HD
ENDBRANCH   4  11
BRANCH   6  13
ATOM     13  O   UNL     1     -34.789  27.338   4.576  0.00  0.00    -0.303 OA
BRANCH  13  14
ATOM     14  C   UNL     1     -33.437  26.956   4.857  0.00  0.00    +0.241 C 
BRANCH  14  15
ATOM     15  O   UNL     1     -32.986  27.486   6.108  0.00  0.00    -0.330 OA
BRANCH  15  16
ATOM     16  C   UNL     1     -31.697  28.081   6.035  0.00  0.00    +0.145 C 
ATOM     17  C   UNL     1     -31.737  29.429   6.723  0.00  0.00    +0.035 C 
ENDBRANCH  15  16
ENDBRANCH  14  15
BRANCH  14  18
ATOM     18  C   UNL     1     -32.558  27.463   3.703  0.00  0.00    +0.087 C 
BRANCH  18  19
ATOM     19  C   UNL     1     -33.247  28.495   2.852  0.00  0.00    -0.021 C 
ATOM     20  C   UNL     1     -33.030  29.811   2.949  0.00  0.00    -0.005 C 
ENDBRANCH  18  19
ENDBRANCH  14  18
ENDBRANCH  13  14
ENDBRANCH   6  13
BRANCH   5  21
ATOM     21  C   UNL     1     -35.114  22.819   5.864  0.00  0.00    +0.169 C 
BRANCH  21  22
ATOM     22  O   UNL     1     -36.061  21.898   6.376  0.00  0.00    -0.379 OA
ATOM     23  H   UNL     1     -36.741  22.378   6.874  0.00  0.00    +0.211 HD
ENDBRANCH  21  22
ENDBRANCH   5  21
TORSDOF 11
ENDMDL
MODEL 7
REMARK VINA RESULT:      -5.1      1.573      3.826
REMARK  Name = 195886
REMARK  11 active torsions:
REMARK  status: ('A' for Active; 'I' for Inactive)
REMARK    1  A    between atoms: C_2  and  O_7
REMARK    2  A    between atoms: C_3  and  O_9
REMARK    3  A    between atoms: C_4  and  O_11
REMARK    4  A    between atoms: C_5  and  C_21
REMARK    5  A    between atoms: C_6  and  O_13
REMARK    6  A    between atoms: O_13  and  C_14
REMARK    7  A    between atoms: C_14  and  O_15
REMARK    8  A    between atoms: C_14  and  C_18
REMARK    9  A    between atoms: O_15  and  C_16
REMARK   10  A    between atoms: C_18  and  C_19
REMARK   11  A    between atoms: C_21  and  O_22
REMARK                            x       y       z     vdW  Elec       q    Type
REMARK                         _______ _______ _______ _____ _____    ______ ____
ROOT
ATOM      1  O   UNL     1     -37.749  24.212   2.731  0.00  0.00    -0.326 OA
ATOM      2  C   UNL     1     -39.331  22.000   1.809  0.00  0.00    +0.172 C 
ATOM      3  C   UNL     1     -39.936  23.369   2.117  0.00  0.00    +0.169 C 
ATOM      4  C   UNL     1     -38.003  21.804   2.541  0.00  0.00    +0.196 C 
ATOM      5  C   UNL     1     -38.898  24.477   1.927  0.00  0.00    +0.176 C 
ATOM      6  C   UNL     1     -37.082  23.010   2.353  0.00  0.00    +0.267 C 
ENDROOT
BRANCH   2   7
ATOM      7  O   UNL     1     -40.259  21.000   2.234  0.00  0.00    -0.379 OA
ATOM      8  H   UNL     1     -40.141  20.832   3.183  0.00  0.00    +0.211 HD
ENDBRANCH   2   7
BRANCH   3   9
ATOM      9  O   UNL     1     -41.041  23.603   1.248  0.00  0.00    -0.379 OA
ATOM     10  H   UNL     1     -41.706  24.138   1.707  0.00  0.00    +0.211 HD
ENDBRANCH   3   9
BRANCH   4  11
ATOM     11  O   UNL     1     -37.342  20.650   2.022  0.00  0.00    -0.378 OA
ATOM     12  H   UNL     1     -38.002  19.994   1.751  0.00  0.00    +0.211 HD
ENDBRANCH   4  11
BRANCH   6  13
ATOM     13  O   UNL     1     -35.932  22.816   3.176  0.00  0.00    -0.303 OA
BRANCH  13  14
ATOM     14  C   UNL     1     -35.344  24.058   3.584  0.00  0.00    +0.241 C 
BRANCH  14  15
ATOM     15  O   UNL     1     -34.334  24.492   2.669  0.00  0.00    -0.330 OA
BRANCH  15  16
ATOM     16  C   UNL     1     -33.877  25.814   2.923  0.00  0.00    +0.145 C 
ATOM     17  C   UNL     1     -35.006  26.786   2.656  0.00  0.00    +0.035 C 
ENDBRANCH  15  16
ENDBRANCH  14  15
BRANCH  14  18
ATOM     18  C   UNL     1     -34.757  23.857   4.990  0.00  0.00    +0.087 C 
BRANCH  18  19
ATOM     19  C   UNL     1     -35.545  22.881   5.820  0.00  0.00    -0.021 C 
ATOM     20  C   UNL     1     -35.067  21.708   6.251  0.00  0.00    -0.005 C 
ENDBRANCH  18  19
ENDBRANCH  14  18
ENDBRANCH  13  14
ENDBRANCH   6  13
BRANCH   5  21
ATOM     21  C   UNL     1     -39.445  25.840   2.341  0.00  0.00    +0.169 C 
BRANCH  21  22
ATOM     22  O   UNL     1     -38.607  26.374   3.350  0.00  0.00    -0.379 OA
ATOM     23  H   UNL     1     -37.947  25.711   3.607  0.00  0.00    +0.211 HD
ENDBRANCH  21  22
ENDBRANCH   5  21
TORSDOF 11
ENDMDL
MODEL 8
REMARK VINA RESULT:      -5.1      2.855      4.830
REMARK  Name = 195886
REMARK  11 active torsions:
REMARK  status: ('A' for Active; 'I' for Inactive)
REMARK    1  A    between atoms: C_2  and  O_7
REMARK    2  A    between atoms: C_3  and  O_9
REMARK    3  A    between atoms: C_4  and  O_11
REMARK    4  A    between atoms: C_5  and  C_21
REMARK    5  A    between atoms: C_6  and  O_13
REMARK    6  A    between atoms: O_13  and  C_14
REMARK    7  A    between atoms: C_14  and  O_15
REMARK    8  A    between atoms: C_14  and  C_18
REMARK    9  A    between atoms: O_15  and  C_16
REMARK   10  A    between atoms: C_18  and  C_19
REMARK   11  A    between atoms: C_21  and  O_22
REMARK                            x       y       z     vdW  Elec       q    Type
REMARK                         _______ _______ _______ _____ _____    ______ ____
ROOT
ATOM      1  O   UNL     1     -34.319  24.048   5.173  0.00  0.00    -0.326 OA
ATOM      2  C   UNL     1     -35.624  23.726   2.635  0.00  0.00    +0.172 C 
ATOM      3  C   UNL     1     -35.659  22.648   3.718  0.00  0.00    +0.169 C 
ATOM      4  C   UNL     1     -34.432  24.665   2.828  0.00  0.00    +0.196 C 
ATOM      5  C   UNL     1     -35.515  23.270   5.109  0.00  0.00    +0.176 C 
ATOM      6  C   UNL     1     -34.337  25.153   4.273  0.00  0.00    +0.267 C 
ENDROOT
BRANCH   2   7
ATOM      7  O   UNL     1     -35.517  23.077   1.367  0.00  0.00    -0.379 OA
ATOM      8  H   UNL     1     -36.395  22.778   1.082  0.00  0.00    +0.211 HD
ENDBRANCH   2   7
BRANCH   3   9
ATOM      9  O   UNL     1     -36.895  21.944   3.642  0.00  0.00    -0.379 OA
ATOM     10  H   UNL     1     -37.533  22.343   4.254  0.00  0.00    +0.211 HD
ENDBRANCH   3   9
BRANCH   4  11
ATOM     11  O   UNL     1     -34.584  25.803   1.980  0.00  0.00    -0.378 OA
ATOM     12  H   UNL     1     -35.244  25.610   1.296  0.00  0.00    +0.211 HD
ENDBRANCH   4  11
BRANCH   6  13
ATOM     13  O   UNL     1     -33.128  25.902   4.405  0.00  0.00    -0.303 OA
BRANCH  13  14
ATOM     14  C   UNL     1     -33.361  27.215   4.931  0.00  0.00    +0.241 C 
BRANCH  14  15
ATOM     15  O   UNL     1     -34.100  28.029   4.016  0.00  0.00    -0.330 OA
BRANCH  15  16
ATOM     16  C   UNL     1     -33.274  28.858   3.207  0.00  0.00    +0.145 C 
ATOM     17  C   UNL     1     -33.843  30.260   3.195  0.00  0.00    +0.035 C 
ENDBRANCH  15  16
ENDBRANCH  14  15
BRANCH  14  18
ATOM     18  C   UNL     1     -31.993  27.844   5.238  0.00  0.00    +0.087 C 
BRANCH  18  19
ATOM     19  C   UNL     1     -31.949  28.526   6.578  0.00  0.00    -0.021 C 
ATOM     20  C   UNL     1     -31.549  29.789   6.762  0.00  0.00    -0.005 C 
ENDBRANCH  18  19
ENDBRANCH  14  18
ENDBRANCH  13  14
ENDBRANCH   6  13
BRANCH   5  21
ATOM     21  C   UNL     1     -35.430  22.205   6.198  0.00  0.00    +0.169 C 
BRANCH  21  22
ATOM     22  O   UNL     1     -35.204  20.949   5.583  0.00  0.00    -0.379 OA
ATOM     23  H   UNL     1     -34.511  20.472   6.067  0.00  0.00    +0.211 HD
ENDBRANCH  21  22
ENDBRANCH   5  21
TORSDOF 11
ENDMDL
MODEL 9
REMARK VINA RESULT:      -5.0      1.748      5.344
REMARK  Name = 195886
REMARK  11 active torsions:
REMARK  status: ('A' for Active; 'I' for Inactive)
REMARK    1  A    between atoms: C_2  and  O_7
REMARK    2  A    between atoms: C_3  and  O_9
REMARK    3  A    between atoms: C_4  and  O_11
REMARK    4  A    between atoms: C_5  and  C_21
REMARK    5  A    between atoms: C_6  and  O_13
REMARK    6  A    between atoms: O_13  and  C_14
REMARK    7  A    between atoms: C_14  and  O_15
REMARK    8  A    between atoms: C_14  and  C_18
REMARK    9  A    between atoms: O_15  and  C_16
REMARK   10  A    between atoms: C_18  and  C_19
REMARK   11  A    between atoms: C_21  and  O_22
REMARK                            x       y       z     vdW  Elec       q    Type
REMARK                         _______ _______ _______ _____ _____    ______ ____
ROOT
ATOM      1  O   UNL     1     -36.683  22.901   4.546  0.00  0.00    -0.326 OA
ATOM      2  C   UNL     1     -35.704  25.581   4.215  0.00  0.00    +0.172 C 
ATOM      3  C   UNL     1     -35.199  24.654   5.321  0.00  0.00    +0.169 C 
ATOM      4  C   UNL     1     -37.084  25.148   3.717  0.00  0.00    +0.196 C 
ATOM      5  C   UNL     1     -35.330  23.188   4.902  0.00  0.00    +0.176 C 
ATOM      6  C   UNL     1     -37.121  23.650   3.415  0.00  0.00    +0.267 C 
ENDROOT
BRANCH   2   7
ATOM      7  O   UNL     1     -35.785  26.903   4.750  0.00  0.00    -0.379 OA
ATOM      8  H   UNL     1     -36.615  27.318   4.462  0.00  0.00    +0.211 HD
ENDBRANCH   2   7
BRANCH   3   9
ATOM      9  O   UNL     1     -33.832  24.947   5.593  0.00  0.00    -0.379 OA
ATOM     10  H   UNL     1     -33.414  24.179   6.013  0.00  0.00    +0.211 HD
ENDBRANCH   3   9
BRANCH   4  11
ATOM     11  O   UNL     1     -37.397  25.855   2.518  0.00  0.00    -0.378 OA
ATOM     12  H   UNL     1     -37.641  26.768   2.735  0.00  0.00    +0.211 HD
ENDBRANCH   4  11
BRANCH   6  13
ATOM     13  O   UNL     1     -38.467  23.300   3.097  0.00  0.00    -0.303 OA
BRANCH  13  14
ATOM     14  C   UNL     1     -38.539  22.161   2.229  0.00  0.00    +0.241 C 
BRANCH  14  15
ATOM     15  O   UNL     1     -37.318  21.967   1.508  0.00  0.00    -0.330 OA
BRANCH  15  16
ATOM     16  C   UNL     1     -36.914  20.606   1.443  0.00  0.00    +0.145 C 
ATOM     17  C   UNL     1     -35.601  20.446   2.178  0.00  0.00    +0.035 C 
ENDBRANCH  15  16
ENDBRANCH  14  15
BRANCH  14  18
ATOM     18  C   UNL     1     -39.713  22.383   1.263  0.00  0.00    +0.087 C 
BRANCH  18  19
ATOM     19  C   UNL     1     -39.969  23.838   0.976  0.00  0.00    -0.021 C 
ATOM     20  C   UNL     1     -41.162  24.427   1.104  0.00  0.00    -0.005 C 
ENDBRANCH  18  19
ENDBRANCH  14  18
ENDBRANCH  13  14
ENDBRANCH   6  13
BRANCH   5  21
ATOM     21  C   UNL     1     -34.941  22.241   6.033  0.00  0.00    +0.169 C 
BRANCH  21  22
ATOM     22  O   UNL     1     -35.347  20.930   5.683  0.00  0.00    -0.379 OA
ATOM     23  H   UNL     1     -34.997  20.707   4.806  0.00  0.00    +0.211 HD
ENDBRANCH  21  22
ENDBRANCH   5  21
TORSDOF 11
ENDMDL
