MODEL 1
REMARK VINA RESULT:      -5.8      0.000      0.000
REMARK  Name = 5280528
REMARK  11 active torsions:
REMARK  status: ('A' for Active; 'I' for Inactive)
REMARK    1  A    between atoms: P_1  and  O_3
REMARK    2  A    between atoms: P_1  and  O_5
REMARK    3  A    between atoms: P_1  and  O_16
REMARK    4  A    between atoms: O_5  and  C_6
REMARK    5  A    between atoms: C_6  and  C_8
REMARK    6  A    between atoms: C_7  and  C_10
REMARK    7  A    between atoms: C_10  and  C_11
REMARK    8  A    between atoms: C_11  and  C_12
REMARK    9  A    between atoms: O_16  and  P_17
REMARK   10  A    between atoms: P_17  and  O_19
REMARK   11  A    between atoms: P_17  and  O_21
REMARK                            x       y       z     vdW  Elec       q    Type
REMARK                         _______ _______ _______ _____ _____    ______ ____
ROOT
ATOM      1  P   UNL     1     -33.663  26.875   4.205  0.00  0.00    +0.484 P 
ATOM      2  O   UNL     1     -33.561  25.884   3.083  0.00  0.00    -0.227 OA
ENDROOT
BRANCH   1   3
ATOM      3  O   UNL     1     -34.150  28.350   3.751  0.00  0.00    -0.302 OA
ATOM      4  H   UNL     1     -33.976  28.982   4.466  0.00  0.00    +0.222 HD
ENDBRANCH   1   3
BRANCH   1   5
ATOM      5  O   UNL     1     -34.688  26.455   5.383  0.00  0.00    -0.268 OA
BRANCH   5   6
ATOM      6  C   UNL     1     -35.740  25.538   5.113  0.00  0.00    +0.179 C 
BRANCH   6   8
ATOM      7  C   UNL     1     -35.590  22.987   5.113  0.00  0.00    -0.045 C 
ATOM      8  C   UNL     1     -35.352  24.199   5.653  0.00  0.00    -0.002 C 
ATOM      9  C   UNL     1     -35.126  21.741   5.823  0.00  0.00    +0.026 C 
BRANCH   7  10
ATOM     10  C   UNL     1     -36.279  22.752   3.784  0.00  0.00    +0.026 C 
BRANCH  10  11
ATOM     11  C   UNL     1     -35.825  21.471   3.072  0.00  0.00    +0.030 C 
BRANCH  11  12
ATOM     12  C   UNL     1     -35.016  21.751   1.837  0.00  0.00    -0.034 C 
ATOM     13  C   UNL     1     -34.219  20.906   1.155  0.00  0.00    -0.048 C 
ATOM     14  C   UNL     1     -33.476  21.379  -0.065  0.00  0.00    +0.026 C 
ATOM     15  C   UNL     1     -33.992  19.460   1.497  0.00  0.00    +0.026 C 
ENDBRANCH  11  12
ENDBRANCH  10  11
ENDBRANCH   7  10
ENDBRANCH   6   8
ENDBRANCH   5   6
ENDBRANCH   1   5
BRANCH   1  16
ATOM     16  O   UNL     1     -32.265  27.163   4.964  0.00  0.00    -0.186 OA
BRANCH  16  17
ATOM     17  P   UNL     1     -31.924  28.089   6.244  0.00  0.00    +0.481 P 
ATOM     18  O   UNL     1     -32.262  29.541   6.073  0.00  0.00    -0.227 OA
BRANCH  17  19
ATOM     19  O   UNL     1     -32.685  27.341   7.459  0.00  0.00    -0.302 OA
ATOM     20  H   UNL     1     -32.700  26.386   7.290  0.00  0.00    +0.222 HD
ENDBRANCH  17  19
BRANCH  17  21
ATOM     21  O   UNL     1     -30.364  27.772   6.521  0.00  0.00    -0.302 OA
ATOM     22  H   UNL     1     -30.202  27.759   7.476  0.00  0.00    +0.222 HD
ENDBRANCH  17  21
ENDBRANCH  16  17
ENDBRANCH   1  16
TORSDOF 11
ENDMDL
MODEL 2
REMARK VINA RESULT:      -5.6      1.550      2.673
REMARK  Name = 5280528
REMARK  11 active torsions:
REMARK  status: ('A' for Active; 'I' for Inactive)
REMARK    1  A    between atoms: P_1  and  O_3
REMARK    2  A    between atoms: P_1  and  O_5
REMARK    3  A    between atoms: P_1  and  O_16
REMARK    4  A    between atoms: O_5  and  C_6
REMARK    5  A    between atoms: C_6  and  C_8
REMARK    6  A    between atoms: C_7  and  C_10
REMARK    7  A    between atoms: C_10  and  C_11
REMARK    8  A    between atoms: C_11  and  C_12
REMARK    9  A    between atoms: O_16  and  P_17
REMARK   10  A    between atoms: P_17  and  O_19
REMARK   11  A    between atoms: P_17  and  O_21
REMARK                            x       y       z     vdW  Elec       q    Type
REMARK                         _______ _______ _______ _____ _____    ______ ____
ROOT
ATOM      1  P   UNL     1     -33.584  27.091   4.139  0.00  0.00    +0.484 P 
ATOM      2  O   UNL     1     -33.483  26.150   2.975  0.00  0.00    -0.227 OA
ENDROOT
BRANCH   1   3
ATOM      3  O   UNL     1     -34.013  28.600   3.743  0.00  0.00    -0.302 OA
ATOM      4  H   UNL     1     -34.601  28.577   2.971  0.00  0.00    +0.222 HD
ENDBRANCH   1   3
BRANCH   1   5
ATOM      5  O   UNL     1     -34.652  26.651   5.271  0.00  0.00    -0.268 OA
BRANCH   5   6
ATOM      6  C   UNL     1     -35.785  25.874   4.911  0.00  0.00    +0.179 C 
BRANCH   6   8
ATOM      7  C   UNL     1     -35.405  23.350   5.032  0.00  0.00    -0.045 C 
ATOM      8  C   UNL     1     -35.685  24.544   5.589  0.00  0.00    -0.002 C 
ATOM      9  C   UNL     1     -35.362  22.110   5.889  0.00  0.00    +0.026 C 
BRANCH   7  10
ATOM     10  C   UNL     1     -35.081  23.132   3.568  0.00  0.00    +0.026 C 
BRANCH  10  11
ATOM     11  C   UNL     1     -36.164  22.356   2.806  0.00  0.00    +0.030 C 
BRANCH  11  12
ATOM     12  C   UNL     1     -37.543  22.905   3.042  0.00  0.00    -0.034 C 
ATOM     13  C   UNL     1     -38.093  24.023   2.528  0.00  0.00    -0.048 C 
ATOM     14  C   UNL     1     -39.499  24.415   2.894  0.00  0.00    +0.026 C 
ATOM     15  C   UNL     1     -37.418  24.960   1.568  0.00  0.00    +0.026 C 
ENDBRANCH  11  12
ENDBRANCH  10  11
ENDBRANCH   7  10
ENDBRANCH   6   8
ENDBRANCH   5   6
ENDBRANCH   1   5
BRANCH   1  16
ATOM     16  O   UNL     1     -32.198  27.300   4.945  0.00  0.00    -0.186 OA
BRANCH  16  17
ATOM     17  P   UNL     1     -31.865  28.141   6.284  0.00  0.00    +0.481 P 
ATOM     18  O   UNL     1     -32.177  29.606   6.196  0.00  0.00    -0.227 OA
BRANCH  17  19
ATOM     19  O   UNL     1     -32.659  27.334   7.438  0.00  0.00    -0.302 OA
ATOM     20  H   UNL     1     -32.739  27.894   8.227  0.00  0.00    +0.222 HD
ENDBRANCH  17  19
BRANCH  17  21
ATOM     21  O   UNL     1     -30.316  27.781   6.568  0.00  0.00    -0.302 OA
ATOM     22  H   UNL     1     -29.898  28.510   7.052  0.00  0.00    +0.222 HD
ENDBRANCH  17  21
ENDBRANCH  16  17
ENDBRANCH   1  16
TORSDOF 11
ENDMDL
MODEL 3
REMARK VINA RESULT:      -5.6      5.718      7.617
REMARK  Name = 5280528
REMARK  11 active torsions:
REMARK  status: ('A' for Active; 'I' for Inactive)
REMARK    1  A    between atoms: P_1  and  O_3
REMARK    2  A    between atoms: P_1  and  O_5
REMARK    3  A    between atoms: P_1  and  O_16
REMARK    4  A    between atoms: O_5  and  C_6
REMARK    5  A    between atoms: C_6  and  C_8
REMARK    6  A    between atoms: C_7  and  C_10
REMARK    7  A    between atoms: C_10  and  C_11
REMARK    8  A    between atoms: C_11  and  C_12
REMARK    9  A    between atoms: O_16  and  P_17
REMARK   10  A    between atoms: P_17  and  O_19
REMARK   11  A    between atoms: P_17  and  O_21
REMARK                            x       y       z     vdW  Elec       q    Type
REMARK                         _______ _______ _______ _____ _____    ______ ____
ROOT
ATOM      1  P   UNL     1     -36.531  20.533   1.304  0.00  0.00    +0.484 P 
ATOM      2  O   UNL     1     -36.311  19.764   0.035  0.00  0.00    -0.227 OA
ENDROOT
BRANCH   1   3
ATOM      3  O   UNL     1     -36.933  19.619   2.578  0.00  0.00    -0.302 OA
ATOM      4  H   UNL     1     -37.851  19.320   2.484  0.00  0.00    +0.222 HD
ENDBRANCH   1   3
BRANCH   1   5
ATOM      5  O   UNL     1     -35.253  21.387   1.806  0.00  0.00    -0.268 OA
BRANCH   5   6
ATOM      6  C   UNL     1     -35.447  22.562   2.581  0.00  0.00    +0.179 C 
BRANCH   6   8
ATOM      7  C   UNL     1     -35.134  22.834   5.103  0.00  0.00    -0.045 C 
ATOM      8  C   UNL     1     -35.578  22.169   4.018  0.00  0.00    -0.002 C 
ATOM      9  C   UNL     1     -35.355  22.261   6.480  0.00  0.00    +0.026 C 
BRANCH   7  10
ATOM     10  C   UNL     1     -34.434  24.177   5.069  0.00  0.00    +0.026 C 
BRANCH  10  11
ATOM     11  C   UNL     1     -35.321  25.347   5.513  0.00  0.00    +0.030 C 
BRANCH  11  12
ATOM     12  C   UNL     1     -36.639  25.380   4.790  0.00  0.00    -0.034 C 
ATOM     13  C   UNL     1     -36.895  25.836   3.548  0.00  0.00    -0.048 C 
ATOM     14  C   UNL     1     -38.295  25.794   2.997  0.00  0.00    +0.026 C 
ATOM     15  C   UNL     1     -35.873  26.400   2.602  0.00  0.00    +0.026 C 
ENDBRANCH  11  12
ENDBRANCH  10  11
ENDBRANCH   7  10
ENDBRANCH   6   8
ENDBRANCH   5   6
ENDBRANCH   1   5
BRANCH   1  16
ATOM     16  O   UNL     1     -37.735  21.610   1.227  0.00  0.00    -0.186 OA
BRANCH  16  17
ATOM     17  P   UNL     1     -39.317  21.415   0.956  0.00  0.00    +0.481 P 
ATOM     18  O   UNL     1     -39.997  22.603   0.343  0.00  0.00    -0.227 OA
BRANCH  17  19
ATOM     19  O   UNL     1     -39.381  20.056   0.083  0.00  0.00    -0.302 OA
ATOM     20  H   UNL     1     -38.690  20.076  -0.597  0.00  0.00    +0.222 HD
ENDBRANCH  17  19
BRANCH  17  21
ATOM     21  O   UNL     1     -39.884  20.965   2.400  0.00  0.00    -0.302 OA
ATOM     22  H   UNL     1     -40.725  21.413   2.572  0.00  0.00    +0.222 HD
ENDBRANCH  17  21
ENDBRANCH  16  17
ENDBRANCH   1  16
TORSDOF 11
ENDMDL
MODEL 4
REMARK VINA RESULT:      -5.5      1.137      1.959
REMARK  Name = 5280528
REMARK  11 active torsions:
REMARK  status: ('A' for Active; 'I' for Inactive)
REMARK    1  A    between atoms: P_1  and  O_3
REMARK    2  A    between atoms: P_1  and  O_5
REMARK    3  A    between atoms: P_1  and  O_16
REMARK    4  A    between atoms: O_5  and  C_6
REMARK    5  A    between atoms: C_6  and  C_8
REMARK    6  A    between atoms: C_7  and  C_10
REMARK    7  A    between atoms: C_10  and  C_11
REMARK    8  A    between atoms: C_11  and  C_12
REMARK    9  A    between atoms: O_16  and  P_17
REMARK   10  A    between atoms: P_17  and  O_19
REMARK   11  A    between atoms: P_17  and  O_21
REMARK                            x       y       z     vdW  Elec       q    Type
REMARK                         _______ _______ _______ _____ _____    ______ ____
ROOT
ATOM      1  P   UNL     1     -34.061  26.234   4.890  0.00  0.00    +0.484 P 
ATOM      2  O   UNL     1     -33.203  25.589   3.842  0.00  0.00    -0.227 OA
ENDROOT
BRANCH   1   3
ATOM      3  O   UNL     1     -35.131  27.302   4.313  0.00  0.00    -0.302 OA
ATOM      4  H   UNL     1     -34.967  27.445   3.368  0.00  0.00    +0.222 HD
ENDBRANCH   1   3
BRANCH   1   5
ATOM      5  O   UNL     1     -34.949  25.202   5.763  0.00  0.00    -0.268 OA
BRANCH   5   6
ATOM      6  C   UNL     1     -35.035  23.838   5.374  0.00  0.00    +0.179 C 
BRANCH   6   8
ATOM      7  C   UNL     1     -36.381  22.679   3.537  0.00  0.00    -0.045 C 
ATOM      8  C   UNL     1     -36.158  23.691   4.398  0.00  0.00    -0.002 C 
ATOM      9  C   UNL     1     -37.573  22.721   2.615  0.00  0.00    +0.026 C 
BRANCH   7  10
ATOM     10  C   UNL     1     -35.527  21.432   3.427  0.00  0.00    +0.026 C 
BRANCH  10  11
ATOM     11  C   UNL     1     -35.109  21.095   1.990  0.00  0.00    +0.030 C 
BRANCH  11  12
ATOM     12  C   UNL     1     -34.402  19.772   1.889  0.00  0.00    -0.034 C 
ATOM     13  C   UNL     1     -33.332  19.457   1.134  0.00  0.00    -0.048 C 
ATOM     14  C   UNL     1     -32.766  18.062   1.161  0.00  0.00    +0.026 C 
ATOM     15  C   UNL     1     -32.596  20.406   0.230  0.00  0.00    +0.026 C 
ENDBRANCH  11  12
ENDBRANCH  10  11
ENDBRANCH   7  10
ENDBRANCH   6   8
ENDBRANCH   5   6
ENDBRANCH   1   5
BRANCH   1  16
ATOM     16  O   UNL     1     -33.237  27.090   5.986  0.00  0.00    -0.186 OA
BRANCH  16  17
ATOM     17  P   UNL     1     -31.983  28.098   5.821  0.00  0.00    +0.481 P 
ATOM     18  O   UNL     1     -32.313  29.546   6.033  0.00  0.00    -0.227 OA
BRANCH  17  19
ATOM     19  O   UNL     1     -30.878  27.486   6.831  0.00  0.00    -0.302 OA
ATOM     20  H   UNL     1     -30.608  28.168   7.465  0.00  0.00    +0.222 HD
ENDBRANCH  17  19
BRANCH  17  21
ATOM     21  O   UNL     1     -31.405  27.728   4.358  0.00  0.00    -0.302 OA
ATOM     22  H   UNL     1     -31.475  28.501   3.778  0.00  0.00    +0.222 HD
ENDBRANCH  17  21
ENDBRANCH  16  17
ENDBRANCH   1  16
TORSDOF 11
ENDMDL
MODEL 5
REMARK VINA RESULT:      -5.5      2.013      3.511
REMARK  Name = 5280528
REMARK  11 active torsions:
REMARK  status: ('A' for Active; 'I' for Inactive)
REMARK    1  A    between atoms: P_1  and  O_3
REMARK    2  A    between atoms: P_1  and  O_5
REMARK    3  A    between atoms: P_1  and  O_16
REMARK    4  A    between atoms: O_5  and  C_6
REMARK    5  A    between atoms: C_6  and  C_8
REMARK    6  A    between atoms: C_7  and  C_10
REMARK    7  A    between atoms: C_10  and  C_11
REMARK    8  A    between atoms: C_11  and  C_12
REMARK    9  A    between atoms: O_16  and  P_17
REMARK   10  A    between atoms: P_17  and  O_19
REMARK   11  A    between atoms: P_17  and  O_21
REMARK                            x       y       z     vdW  Elec       q    Type
REMARK                         _______ _______ _______ _____ _____    ______ ____
ROOT
ATOM      1  P   UNL     1     -36.567  25.522   4.190  0.00  0.00    +0.484 P 
ATOM      2  O   UNL     1     -37.755  25.655   3.283  0.00  0.00    -0.227 OA
ENDROOT
BRANCH   1   3
ATOM      3  O   UNL     1     -36.519  26.606   5.390  0.00  0.00    -0.302 OA
ATOM      4  H   UNL     1     -36.771  26.177   6.223  0.00  0.00    +0.222 HD
ENDBRANCH   1   3
BRANCH   1   5
ATOM      5  O   UNL     1     -36.442  24.090   4.932  0.00  0.00    -0.268 OA
BRANCH   5   6
ATOM      6  C   UNL     1     -35.746  23.024   4.301  0.00  0.00    +0.179 C 
BRANCH   6   8
ATOM      7  C   UNL     1     -36.373  21.399   2.431  0.00  0.00    -0.045 C 
ATOM      8  C   UNL     1     -36.608  22.473   3.211  0.00  0.00    -0.002 C 
ATOM      9  C   UNL     1     -37.367  21.007   1.368  0.00  0.00    +0.026 C 
BRANCH   7  10
ATOM     10  C   UNL     1     -35.167  20.490   2.551  0.00  0.00    +0.026 C 
BRANCH  10  11
ATOM     11  C   UNL     1     -34.615  20.016   1.200  0.00  0.00    +0.030 C 
BRANCH  11  12
ATOM     12  C   UNL     1     -33.501  19.018   1.349  0.00  0.00    -0.034 C 
ATOM     13  C   UNL     1     -32.257  19.077   0.834  0.00  0.00    -0.048 C 
ATOM     14  C   UNL     1     -31.276  17.964   1.089  0.00  0.00    +0.026 C 
ATOM     15  C   UNL     1     -31.715  20.202  -0.000  0.00  0.00    +0.026 C 
ENDBRANCH  11  12
ENDBRANCH  10  11
ENDBRANCH   7  10
ENDBRANCH   6   8
ENDBRANCH   5   6
ENDBRANCH   1   5
BRANCH   1  16
ATOM     16  O   UNL     1     -35.144  25.723   3.451  0.00  0.00    -0.186 OA
BRANCH  16  17
ATOM     17  P   UNL     1     -33.725  26.261   4.009  0.00  0.00    +0.481 P 
ATOM     18  O   UNL     1     -32.544  25.913   3.152  0.00  0.00    -0.227 OA
BRANCH  17  19
ATOM     19  O   UNL     1     -33.983  27.843   4.220  0.00  0.00    -0.302 OA
ATOM     20  H   UNL     1     -34.693  28.136   3.628  0.00  0.00    +0.222 HD
ENDBRANCH  17  19
BRANCH  17  21
ATOM     21  O   UNL     1     -33.680  25.681   5.516  0.00  0.00    -0.302 OA
ATOM     22  H   UNL     1     -34.582  25.506   5.823  0.00  0.00    +0.222 HD
ENDBRANCH  17  21
ENDBRANCH  16  17
ENDBRANCH   1  16
TORSDOF 11
ENDMDL
MODEL 6
REMARK VINA RESULT:      -5.4      2.503      4.573
REMARK  Name = 5280528
REMARK  11 active torsions:
REMARK  status: ('A' for Active; 'I' for Inactive)
REMARK    1  A    between atoms: P_1  and  O_3
REMARK    2  A    between atoms: P_1  and  O_5
REMARK    3  A    between atoms: P_1  and  O_16
REMARK    4  A    between atoms: O_5  and  C_6
REMARK    5  A    between atoms: C_6  and  C_8
REMARK    6  A    between atoms: C_7  and  C_10
REMARK    7  A    between atoms: C_10  and  C_11
REMARK    8  A    between atoms: C_11  and  C_12
REMARK    9  A    between atoms: O_16  and  P_17
REMARK   10  A    between atoms: P_17  and  O_19
REMARK   11  A    between atoms: P_17  and  O_21
REMARK                            x       y       z     vdW  Elec       q    Type
REMARK                         _______ _______ _______ _____ _____    ______ ____
ROOT
ATOM      1  P   UNL     1     -31.336  28.578   6.083  0.00  0.00    +0.484 P 
ATOM      2  O   UNL     1     -32.413  29.617   5.979  0.00  0.00    -0.227 OA
ENDROOT
BRANCH   1   3
ATOM      3  O   UNL     1     -31.682  27.354   7.083  0.00  0.00    -0.302 OA
ATOM      4  H   UNL     1     -31.830  27.700   7.977  0.00  0.00    +0.222 HD
ENDBRANCH   1   3
BRANCH   1   5
ATOM      5  O   UNL     1     -30.954  27.861   4.685  0.00  0.00    -0.268 OA
BRANCH   5   6
ATOM      6  C   UNL     1     -31.588  28.273   3.482  0.00  0.00    +0.179 C 
BRANCH   6   8
ATOM      7  C   UNL     1     -33.197  26.307   3.208  0.00  0.00    -0.045 C 
ATOM      8  C   UNL     1     -32.159  27.066   2.807  0.00  0.00    -0.002 C 
ATOM      9  C   UNL     1     -33.617  25.112   2.390  0.00  0.00    +0.026 C 
BRANCH   7  10
ATOM     10  C   UNL     1     -34.040  26.572   4.439  0.00  0.00    +0.026 C 
BRANCH  10  11
ATOM     11  C   UNL     1     -35.311  25.716   4.513  0.00  0.00    +0.030 C 
BRANCH  11  12
ATOM     12  C   UNL     1     -35.185  24.578   5.487  0.00  0.00    -0.034 C 
ATOM     13  C   UNL     1     -35.473  23.277   5.288  0.00  0.00    -0.048 C 
ATOM     14  C   UNL     1     -35.288  22.280   6.400  0.00  0.00    +0.026 C 
ATOM     15  C   UNL     1     -35.972  22.685   4.001  0.00  0.00    +0.026 C 
ENDBRANCH  11  12
ENDBRANCH  10  11
ENDBRANCH   7  10
ENDBRANCH   6   8
ENDBRANCH   5   6
ENDBRANCH   1   5
BRANCH   1  16
ATOM     16  O   UNL     1     -29.929  29.136   6.652  0.00  0.00    -0.186 OA
BRANCH  16  17
ATOM     17  P   UNL     1     -28.519  28.390   6.913  0.00  0.00    +0.481 P 
ATOM     18  O   UNL     1     -27.461  28.678   5.888  0.00  0.00    -0.227 OA
BRANCH  17  19
ATOM     19  O   UNL     1     -28.147  28.815   8.428  0.00  0.00    -0.302 OA
ATOM     20  H   UNL     1     -28.000  28.017   8.959  0.00  0.00    +0.222 HD
ENDBRANCH  17  19
BRANCH  17  21
ATOM     21  O   UNL     1     -28.944  26.837   7.048  0.00  0.00    -0.302 OA
ATOM     22  H   UNL     1     -29.438  26.708   7.872  0.00  0.00    +0.222 HD
ENDBRANCH  17  21
ENDBRANCH  16  17
ENDBRANCH   1  16
TORSDOF 11
ENDMDL
MODEL 7
REMARK VINA RESULT:      -5.3      5.604      6.686
REMARK  Name = 5280528
REMARK  11 active torsions:
REMARK  status: ('A' for Active; 'I' for Inactive)
REMARK    1  A    between atoms: P_1  and  O_3
REMARK    2  A    between atoms: P_1  and  O_5
REMARK    3  A    between atoms: P_1  and  O_16
REMARK    4  A    between atoms: O_5  and  C_6
REMARK    5  A    between atoms: C_6  and  C_8
REMARK    6  A    between atoms: C_7  and  C_10
REMARK    7  A    between atoms: C_10  and  C_11
REMARK    8  A    between atoms: C_11  and  C_12
REMARK    9  A    between atoms: O_16  and  P_17
REMARK   10  A    between atoms: P_17  and  O_19
REMARK   11  A    between atoms: P_17  and  O_21
REMARK                            x       y       z     vdW  Elec       q    Type
REMARK                         _______ _______ _______ _____ _____    ______ ____
ROOT
ATOM      1  P   UNL     1     -39.247  22.396   1.812  0.00  0.00    +0.484 P 
ATOM      2  O   UNL     1     -38.616  22.282   0.456  0.00  0.00    -0.227 OA
ENDROOT
BRANCH   1   3
ATOM      3  O   UNL     1     -40.044  21.072   2.292  0.00  0.00    -0.302 OA
ATOM      4  H   UNL     1     -40.999  21.236   2.250  0.00  0.00    +0.222 HD
ENDBRANCH   1   3
BRANCH   1   5
ATOM      5  O   UNL     1     -38.211  22.702   3.015  0.00  0.00    -0.268 OA
BRANCH   5   6
ATOM      6  C   UNL     1     -36.821  22.811   2.741  0.00  0.00    +0.179 C 
BRANCH   6   8
ATOM      7  C   UNL     1     -35.641  22.761   5.007  0.00  0.00    -0.045 C 
ATOM      8  C   UNL     1     -36.064  22.181   3.866  0.00  0.00    -0.002 C 
ATOM      9  C   UNL     1     -34.873  21.953   6.023  0.00  0.00    +0.026 C 
BRANCH   7  10
ATOM     10  C   UNL     1     -35.904  24.201   5.396  0.00  0.00    +0.026 C 
BRANCH  10  11
ATOM     11  C   UNL     1     -34.642  25.073   5.424  0.00  0.00    +0.030 C 
BRANCH  11  12
ATOM     12  C   UNL     1     -33.887  25.039   4.125  0.00  0.00    -0.034 C 
ATOM     13  C   UNL     1     -34.209  25.631   2.959  0.00  0.00    -0.048 C 
ATOM     14  C   UNL     1     -33.321  25.472   1.754  0.00  0.00    +0.026 C 
ATOM     15  C   UNL     1     -35.420  26.490   2.726  0.00  0.00    +0.026 C 
ENDBRANCH  11  12
ENDBRANCH  10  11
ENDBRANCH   7  10
ENDBRANCH   6   8
ENDBRANCH   5   6
ENDBRANCH   1   5
BRANCH   1  16
ATOM     16  O   UNL     1     -40.362  23.561   1.928  0.00  0.00    -0.186 OA
BRANCH  16  17
ATOM     17  P   UNL     1     -40.252  25.087   2.450  0.00  0.00    +0.481 P 
ATOM     18  O   UNL     1     -41.441  25.944   2.131  0.00  0.00    -0.227 OA
BRANCH  17  19
ATOM     19  O   UNL     1     -39.923  24.920   4.024  0.00  0.00    -0.302 OA
ATOM     20  H   UNL     1     -39.277  25.591   4.291  0.00  0.00    +0.222 HD
ENDBRANCH  17  19
BRANCH  17  21
ATOM     21  O   UNL     1     -38.851  25.590   1.822  0.00  0.00    -0.302 OA
ATOM     22  H   UNL     1     -38.441  24.866   1.325  0.00  0.00    +0.222 HD
ENDBRANCH  17  21
ENDBRANCH  16  17
ENDBRANCH   1  16
TORSDOF 11
ENDMDL
MODEL 8
REMARK VINA RESULT:      -5.3      1.362      2.284
REMARK  Name = 5280528
REMARK  11 active torsions:
REMARK  status: ('A' for Active; 'I' for Inactive)
REMARK    1  A    between atoms: P_1  and  O_3
REMARK    2  A    between atoms: P_1  and  O_5
REMARK    3  A    between atoms: P_1  and  O_16
REMARK    4  A    between atoms: O_5  and  C_6
REMARK    5  A    between atoms: C_6  and  C_8
REMARK    6  A    between atoms: C_7  and  C_10
REMARK    7  A    between atoms: C_10  and  C_11
REMARK    8  A    between atoms: C_11  and  C_12
REMARK    9  A    between atoms: O_16  and  P_17
REMARK   10  A    between atoms: P_17  and  O_19
REMARK   11  A    between atoms: P_17  and  O_21
REMARK                            x       y       z     vdW  Elec       q    Type
REMARK                         _______ _______ _______ _____ _____    ______ ____
ROOT
ATOM      1  P   UNL     1     -32.292  27.946   5.439  0.00  0.00    +0.484 P 
ATOM      2  O   UNL     1     -32.932  29.185   4.887  0.00  0.00    -0.227 OA
ENDROOT
BRANCH   1   3
ATOM      3  O   UNL     1     -32.501  27.738   7.029  0.00  0.00    -0.302 OA
ATOM      4  H   UNL     1     -31.745  28.114   7.507  0.00  0.00    +0.222 HD
ENDBRANCH   1   3
BRANCH   1   5
ATOM      5  O   UNL     1     -32.815  26.566   4.778  0.00  0.00    -0.268 OA
BRANCH   5   6
ATOM      6  C   UNL     1     -34.210  26.318   4.666  0.00  0.00    +0.179 C 
BRANCH   6   8
ATOM      7  C   UNL     1     -34.972  23.910   5.051  0.00  0.00    -0.045 C 
ATOM      8  C   UNL     1     -34.546  25.113   5.485  0.00  0.00    -0.002 C 
ATOM      9  C   UNL     1     -35.274  22.815   6.043  0.00  0.00    +0.026 C 
BRANCH   7  10
ATOM     10  C   UNL     1     -35.150  23.527   3.597  0.00  0.00    +0.026 C 
BRANCH  10  11
ATOM     11  C   UNL     1     -36.035  22.292   3.387  0.00  0.00    +0.030 C 
BRANCH  11  12
ATOM     12  C   UNL     1     -35.248  21.080   2.974  0.00  0.00    -0.034 C 
ATOM     13  C   UNL     1     -34.861  20.723   1.734  0.00  0.00    -0.048 C 
ATOM     14  C   UNL     1     -34.078  19.455   1.517  0.00  0.00    +0.026 C 
ATOM     15  C   UNL     1     -35.131  21.506   0.480  0.00  0.00    +0.026 C 
ENDBRANCH  11  12
ENDBRANCH  10  11
ENDBRANCH   7  10
ENDBRANCH   6   8
ENDBRANCH   5   6
ENDBRANCH   1   5
BRANCH   1  16
ATOM     16  O   UNL     1     -30.685  27.897   5.267  0.00  0.00    -0.186 OA
BRANCH  16  17
ATOM     17  P   UNL     1     -29.498  28.421   6.231  0.00  0.00    +0.481 P 
ATOM     18  O   UNL     1     -28.375  29.116   5.519  0.00  0.00    -0.227 OA
BRANCH  17  19
ATOM     19  O   UNL     1     -30.278  29.315   7.329  0.00  0.00    -0.302 OA
ATOM     20  H   UNL     1     -29.735  29.388   8.129  0.00  0.00    +0.222 HD
ENDBRANCH  17  19
BRANCH  17  21
ATOM     21  O   UNL     1     -29.079  27.094   7.052  0.00  0.00    -0.302 OA
ATOM     22  H   UNL     1     -28.910  26.370   6.431  0.00  0.00    +0.222 HD
ENDBRANCH  17  21
ENDBRANCH  16  17
ENDBRANCH   1  16
TORSDOF 11
ENDMDL
MODEL 9
REMARK VINA RESULT:      -5.3      1.578      2.044
REMARK  Name = 5280528
REMARK  11 active torsions:
REMARK  status: ('A' for Active; 'I' for Inactive)
REMARK    1  A    between atoms: P_1  and  O_3
REMARK    2  A    between atoms: P_1  and  O_5
REMARK    3  A    between atoms: P_1  and  O_16
REMARK    4  A    between atoms: O_5  and  C_6
REMARK    5  A    between atoms: C_6  and  C_8
REMARK    6  A    between atoms: C_7  and  C_10
REMARK    7  A    between atoms: C_10  and  C_11
REMARK    8  A    between atoms: C_11  and  C_12
REMARK    9  A    between atoms: O_16  and  P_17
REMARK   10  A    between atoms: P_17  and  O_19
REMARK   11  A    between atoms: P_17  and  O_21
REMARK                            x       y       z     vdW  Elec       q    Type
REMARK                         _______ _______ _______ _____ _____    ______ ____
ROOT
ATOM      1  P   UNL     1     -33.403  27.509   3.883  0.00  0.00    +0.484 P 
ATOM      2  O   UNL     1     -32.474  27.541   2.706  0.00  0.00    -0.227 OA
ENDROOT
BRANCH   1   3
ATOM      3  O   UNL     1     -34.915  27.983   3.553  0.00  0.00    -0.302 OA
ATOM      4  H   UNL     1     -34.906  28.588   2.795  0.00  0.00    +0.222 HD
ENDBRANCH   1   3
BRANCH   1   5
ATOM      5  O   UNL     1     -33.576  26.054   4.566  0.00  0.00    -0.268 OA
BRANCH   5   6
ATOM      6  C   UNL     1     -34.832  25.672   5.111  0.00  0.00    +0.179 C 
BRANCH   6   8
ATOM      7  C   UNL     1     -35.424  23.191   5.269  0.00  0.00    -0.045 C 
ATOM      8  C   UNL     1     -34.717  24.277   5.638  0.00  0.00    -0.002 C 
ATOM      9  C   UNL     1     -35.168  21.863   5.935  0.00  0.00    +0.026 C 
BRANCH   7  10
ATOM     10  C   UNL     1     -36.474  23.172   4.177  0.00  0.00    +0.026 C 
BRANCH  10  11
ATOM     11  C   UNL     1     -36.052  22.384   2.929  0.00  0.00    +0.030 C 
BRANCH  11  12
ATOM     12  C   UNL     1     -34.903  23.024   2.202  0.00  0.00    -0.034 C 
ATOM     13  C   UNL     1     -34.864  24.232   1.606  0.00  0.00    -0.048 C 
ATOM     14  C   UNL     1     -33.612  24.698   0.914  0.00  0.00    +0.026 C 
ATOM     15  C   UNL     1     -35.996  25.219   1.569  0.00  0.00    +0.026 C 
ENDBRANCH  11  12
ENDBRANCH  10  11
ENDBRANCH   7  10
ENDBRANCH   6   8
ENDBRANCH   5   6
ENDBRANCH   1   5
BRANCH   1  16
ATOM     16  O   UNL     1     -32.967  28.481   5.099  0.00  0.00    -0.186 OA
BRANCH  16  17
ATOM     17  P   UNL     1     -31.699  28.426   6.100  0.00  0.00    +0.481 P 
ATOM     18  O   UNL     1     -31.482  29.673   6.904  0.00  0.00    -0.227 OA
BRANCH  17  19
ATOM     19  O   UNL     1     -31.964  27.085   6.963  0.00  0.00    -0.302 OA
ATOM     20  H   UNL     1     -32.862  26.762   6.789  0.00  0.00    +0.222 HD
ENDBRANCH  17  19
BRANCH  17  21
ATOM     21  O   UNL     1     -30.479  28.012   5.124  0.00  0.00    -0.302 OA
ATOM     22  H   UNL     1     -30.812  27.441   4.415  0.00  0.00    +0.222 HD
ENDBRANCH  17  21
ENDBRANCH  16  17
ENDBRANCH   1  16
TORSDOF 11
ENDMDL
