MODEL 1
REMARK VINA RESULT:      -6.4      0.000      0.000
REMARK  Name = 21589805
REMARK  9 active torsions:
REMARK  status: ('A' for Active; 'I' for Inactive)
REMARK    1  A    between atoms: C_3  and  O_18
REMARK    2  A    between atoms: C_4  and  C_13
REMARK    3  A    between atoms: C_7  and  O_16
REMARK    4  A    between atoms: O_18  and  C_20
REMARK    5  A    between atoms: C_21  and  O_25
REMARK    6  A    between atoms: C_22  and  O_27
REMARK    7  A    between atoms: C_23  and  C_31
REMARK    8  A    between atoms: C_24  and  O_29
REMARK    9  A    between atoms: C_31  and  O_32
REMARK                            x       y       z     vdW  Elec       q    Type
REMARK                         _______ _______ _______ _____ _____    ______ ____
ROOT
ATOM      1  C   UNL     1     -34.976  26.163   4.125  0.00  0.00    +0.031 C 
ATOM      2  C   UNL     1     -35.734  25.561   2.878  0.00  0.00    +0.048 C 
ATOM      3  C   UNL     1     -36.262  24.123   3.159  0.00  0.00    +0.121 C 
ATOM      4  C   UNL     1     -35.167  23.181   3.689  0.00  0.00    +0.028 C 
ATOM      5  C   UNL     1     -33.939  25.149   4.689  0.00  0.00    +0.003 C 
ATOM      6  C   UNL     1     -34.503  23.753   4.945  0.00  0.00    +0.003 C 
ATOM      7  C   UNL     1     -34.240  27.474   3.710  0.00  0.00    +0.115 C 
ATOM      8  C   UNL     1     -34.912  25.639   1.584  0.00  0.00    -0.046 C 
ATOM      9  C   UNL     1     -35.978  26.526   5.253  0.00  0.00    +0.003 C 
ATOM     10  C   UNL     1     -33.257  27.271   2.556  0.00  0.00    +0.055 C 
ATOM     11  C   UNL     1     -33.802  26.393   1.474  0.00  0.00    -0.032 C 
ATOM     12  C   UNL     1     -35.421  24.905   0.372  0.00  0.00    +0.026 C 
ENDROOT
BRANCH   4  13
ATOM     13  C   UNL     1     -35.718  21.782   3.978  0.00  0.00    +0.002 C 
ATOM     14  C   UNL     1     -35.395  20.838   2.827  0.00  0.00    +0.000 C 
ATOM     15  C   UNL     1     -35.153  21.253   5.292  0.00  0.00    +0.000 C 
ENDBRANCH   4  13
BRANCH   7  16
ATOM     16  O   UNL     1     -35.174  28.475   3.292  0.00  0.00    -0.384 OA
ATOM     17  H   UNL     1     -35.196  29.190   3.947  0.00  0.00    +0.210 HD
ENDBRANCH   7  16
BRANCH   3  18
ATOM     18  O   UNL     1     -37.349  24.170   4.083  0.00  0.00    -0.331 OA
BRANCH  18  20
ATOM     19  O   UNL     1     -38.532  22.885   2.537  0.00  0.00    -0.326 OA
ATOM     20  C   UNL     1     -38.601  24.002   3.420  0.00  0.00    +0.266 C 
ATOM     21  C   UNL     1     -38.899  25.283   2.641  0.00  0.00    +0.196 C 
ATOM     22  C   UNL     1     -40.152  25.132   1.780  0.00  0.00    +0.172 C 
ATOM     23  C   UNL     1     -39.767  22.646   1.858  0.00  0.00    +0.176 C 
ATOM     24  C   UNL     1     -40.112  23.839   0.966  0.00  0.00    +0.169 C 
BRANCH  21  25
ATOM     25  O   UNL     1     -39.093  26.341   3.580  0.00  0.00    -0.378 OA
ATOM     26  H   UNL     1     -38.688  26.099   4.427  0.00  0.00    +0.211 HD
ENDBRANCH  21  25
BRANCH  22  27
ATOM     27  O   UNL     1     -40.237  26.228   0.867  0.00  0.00    -0.379 OA
ATOM     28  H   UNL     1     -39.944  25.940  -0.012  0.00  0.00    +0.211 HD
ENDBRANCH  22  27
BRANCH  24  29
ATOM     29  O   UNL     1     -41.385  23.623   0.361  0.00  0.00    -0.379 OA
ATOM     30  H   UNL     1     -41.676  24.438  -0.078  0.00  0.00    +0.211 HD
ENDBRANCH  24  29
BRANCH  23  31
ATOM     31  C   UNL     1     -39.606  21.362   1.049  0.00  0.00    +0.169 C 
BRANCH  31  32
ATOM     32  O   UNL     1     -40.893  20.840   0.772  0.00  0.00    -0.379 OA
ATOM     33  H   UNL     1     -41.402  21.490   0.263  0.00  0.00    +0.211 HD
ENDBRANCH  31  32
ENDBRANCH  23  31
ENDBRANCH  18  20
ENDBRANCH   3  18
TORSDOF 9
ENDMDL
MODEL 2
REMARK VINA RESULT:      -6.3      2.840      5.201
REMARK  Name = 21589805
REMARK  9 active torsions:
REMARK  status: ('A' for Active; 'I' for Inactive)
REMARK    1  A    between atoms: C_3  and  O_18
REMARK    2  A    between atoms: C_4  and  C_13
REMARK    3  A    between atoms: C_7  and  O_16
REMARK    4  A    between atoms: O_18  and  C_20
REMARK    5  A    between atoms: C_21  and  O_25
REMARK    6  A    between atoms: C_22  and  O_27
REMARK    7  A    between atoms: C_23  and  C_31
REMARK    8  A    between atoms: C_24  and  O_29
REMARK    9  A    between atoms: C_31  and  O_32
REMARK                            x       y       z     vdW  Elec       q    Type
REMARK                         _______ _______ _______ _____ _____    ______ ____
ROOT
ATOM      1  C   UNL     1     -34.711  25.662   2.690  0.00  0.00    +0.031 C 
ATOM      2  C   UNL     1     -35.051  24.361   3.515  0.00  0.00    +0.048 C 
ATOM      3  C   UNL     1     -36.419  23.747   3.094  0.00  0.00    +0.121 C 
ATOM      4  C   UNL     1     -37.564  24.773   3.121  0.00  0.00    +0.028 C 
ATOM      5  C   UNL     1     -35.922  26.638   2.666  0.00  0.00    +0.003 C 
ATOM      6  C   UNL     1     -37.241  25.990   2.248  0.00  0.00    +0.003 C 
ATOM      7  C   UNL     1     -33.483  26.384   3.328  0.00  0.00    +0.115 C 
ATOM      8  C   UNL     1     -34.948  24.570   5.033  0.00  0.00    -0.046 C 
ATOM      9  C   UNL     1     -34.335  25.303   1.229  0.00  0.00    +0.003 C 
ATOM     10  C   UNL     1     -33.696  26.745   4.799  0.00  0.00    +0.055 C 
ATOM     11  C   UNL     1     -34.358  25.651   5.577  0.00  0.00    -0.032 C 
ATOM     12  C   UNL     1     -35.459  23.482   5.938  0.00  0.00    +0.026 C 
ENDROOT
BRANCH   4  13
ATOM     13  C   UNL     1     -38.892  24.149   2.680  0.00  0.00    +0.002 C 
ATOM     14  C   UNL     1     -40.047  24.755   3.466  0.00  0.00    +0.000 C 
ATOM     15  C   UNL     1     -39.092  24.341   1.181  0.00  0.00    +0.000 C 
ENDBRANCH   4  13
BRANCH   7  16
ATOM     16  O   UNL     1     -32.316  25.557   3.266  0.00  0.00    -0.384 OA
ATOM     17  H   UNL     1     -32.455  24.762   3.805  0.00  0.00    +0.210 HD
ENDBRANCH   7  16
BRANCH   3  18
ATOM     18  O   UNL     1     -36.318  23.170   1.792  0.00  0.00    -0.331 OA
BRANCH  18  20
ATOM     19  O   UNL     1     -34.629  21.772   0.993  0.00  0.00    -0.326 OA
ATOM     20  C   UNL     1     -35.766  21.854   1.849  0.00  0.00    +0.266 C 
ATOM     21  C   UNL     1     -36.847  20.870   1.400  0.00  0.00    +0.196 C 
ATOM     22  C   UNL     1     -36.293  19.450   1.289  0.00  0.00    +0.172 C 
ATOM     23  C   UNL     1     -34.013  20.483   1.024  0.00  0.00    +0.176 C 
ATOM     24  C   UNL     1     -34.986  19.426   0.497  0.00  0.00    +0.169 C 
BRANCH  21  25
ATOM     25  O   UNL     1     -37.900  20.894   2.364  0.00  0.00    -0.378 OA
ATOM     26  H   UNL     1     -38.435  20.090   2.278  0.00  0.00    +0.211 HD
ENDBRANCH  21  25
BRANCH  22  27
ATOM     27  O   UNL     1     -37.238  18.624   0.607  0.00  0.00    -0.379 OA
ATOM     28  H   UNL     1     -38.068  18.601   1.108  0.00  0.00    +0.211 HD
ENDBRANCH  22  27
BRANCH  24  29
ATOM     29  O   UNL     1     -34.388  18.137   0.612  0.00  0.00    -0.379 OA
ATOM     30  H   UNL     1     -33.605  18.093   0.042  0.00  0.00    +0.211 HD
ENDBRANCH  24  29
BRANCH  23  31
ATOM     31  C   UNL     1     -32.746  20.558   0.176  0.00  0.00    +0.169 C 
BRANCH  31  32
ATOM     32  O   UNL     1     -31.843  19.565   0.626  0.00  0.00    -0.379 OA
ATOM     33  H   UNL     1     -32.295  18.706   0.653  0.00  0.00    +0.211 HD
ENDBRANCH  31  32
ENDBRANCH  23  31
ENDBRANCH  18  20
ENDBRANCH   3  18
TORSDOF 9
ENDMDL
MODEL 3
REMARK VINA RESULT:      -6.0      1.863      3.041
REMARK  Name = 21589805
REMARK  9 active torsions:
REMARK  status: ('A' for Active; 'I' for Inactive)
REMARK    1  A    between atoms: C_3  and  O_18
REMARK    2  A    between atoms: C_4  and  C_13
REMARK    3  A    between atoms: C_7  and  O_16
REMARK    4  A    between atoms: O_18  and  C_20
REMARK    5  A    between atoms: C_21  and  O_25
REMARK    6  A    between atoms: C_22  and  O_27
REMARK    7  A    between atoms: C_23  and  C_31
REMARK    8  A    between atoms: C_24  and  O_29
REMARK    9  A    between atoms: C_31  and  O_32
REMARK                            x       y       z     vdW  Elec       q    Type
REMARK                         _______ _______ _______ _____ _____    ______ ____
ROOT
ATOM      1  C   UNL     1     -35.281  27.403   1.141  0.00  0.00    +0.031 C 
ATOM      2  C   UNL     1     -35.303  25.827   1.202  0.00  0.00    +0.048 C 
ATOM      3  C   UNL     1     -35.512  25.304   2.653  0.00  0.00    +0.121 C 
ATOM      4  C   UNL     1     -34.516  25.913   3.654  0.00  0.00    +0.028 C 
ATOM      5  C   UNL     1     -34.330  27.988   2.225  0.00  0.00    +0.003 C 
ATOM      6  C   UNL     1     -34.572  27.443   3.632  0.00  0.00    +0.003 C 
ATOM      7  C   UNL     1     -34.802  27.870  -0.268  0.00  0.00    +0.115 C 
ATOM      8  C   UNL     1     -34.087  25.185   0.519  0.00  0.00    -0.046 C 
ATOM      9  C   UNL     1     -36.703  27.981   1.368  0.00  0.00    +0.003 C 
ATOM     10  C   UNL     1     -33.427  27.318  -0.648  0.00  0.00    +0.055 C 
ATOM     11  C   UNL     1     -33.257  25.877  -0.283  0.00  0.00    -0.032 C 
ATOM     12  C   UNL     1     -33.869  23.706   0.696  0.00  0.00    +0.026 C 
ENDROOT
BRANCH   4  13
ATOM     13  C   UNL     1     -34.758  25.400   5.076  0.00  0.00    +0.002 C 
ATOM     14  C   UNL     1     -34.511  23.898   5.146  0.00  0.00    +0.000 C 
ATOM     15  C   UNL     1     -33.869  26.145   6.065  0.00  0.00    +0.000 C 
ENDBRANCH   4  13
BRANCH   7  16
ATOM     16  O   UNL     1     -35.717  27.446  -1.284  0.00  0.00    -0.384 OA
ATOM     17  H   UNL     1     -36.273  26.729  -0.939  0.00  0.00    +0.210 HD
ENDBRANCH   7  16
BRANCH   3  18
ATOM     18  O   UNL     1     -36.849  25.565   3.082  0.00  0.00    -0.331 OA
BRANCH  18  20
ATOM     19  O   UNL     1     -36.919  23.308   2.497  0.00  0.00    -0.326 OA
ATOM     20  C   UNL     1     -37.614  24.363   3.158  0.00  0.00    +0.266 C 
ATOM     21  C   UNL     1     -38.963  24.619   2.486  0.00  0.00    +0.196 C 
ATOM     22  C   UNL     1     -39.789  23.337   2.390  0.00  0.00    +0.172 C 
ATOM     23  C   UNL     1     -37.623  22.065   2.558  0.00  0.00    +0.176 C 
ATOM     24  C   UNL     1     -38.960  22.185   1.823  0.00  0.00    +0.169 C 
BRANCH  21  25
ATOM     25  O   UNL     1     -39.673  25.584   3.264  0.00  0.00    -0.378 OA
ATOM     26  H   UNL     1     -39.460  26.475   2.947  0.00  0.00    +0.211 HD
ENDBRANCH  21  25
BRANCH  22  27
ATOM     27  O   UNL     1     -40.901  23.552   1.519  0.00  0.00    -0.379 OA
ATOM     28  H   UNL     1     -41.611  23.999   2.005  0.00  0.00    +0.211 HD
ENDBRANCH  22  27
BRANCH  24  29
ATOM     29  O   UNL     1     -39.686  20.967   1.964  0.00  0.00    -0.379 OA
ATOM     30  H   UNL     1     -40.379  20.924   1.287  0.00  0.00    +0.211 HD
ENDBRANCH  24  29
BRANCH  23  31
ATOM     31  C   UNL     1     -36.729  20.998   1.934  0.00  0.00    +0.169 C 
BRANCH  31  32
ATOM     32  O   UNL     1     -36.947  19.774   2.613  0.00  0.00    -0.379 OA
ATOM     33  H   UNL     1     -36.424  19.074   2.191  0.00  0.00    +0.211 HD
ENDBRANCH  31  32
ENDBRANCH  23  31
ENDBRANCH  18  20
ENDBRANCH   3  18
TORSDOF 9
ENDMDL
MODEL 4
REMARK VINA RESULT:      -5.9      1.157      1.539
REMARK  Name = 21589805
REMARK  9 active torsions:
REMARK  status: ('A' for Active; 'I' for Inactive)
REMARK    1  A    between atoms: C_3  and  O_18
REMARK    2  A    between atoms: C_4  and  C_13
REMARK    3  A    between atoms: C_7  and  O_16
REMARK    4  A    between atoms: O_18  and  C_20
REMARK    5  A    between atoms: C_21  and  O_25
REMARK    6  A    between atoms: C_22  and  O_27
REMARK    7  A    between atoms: C_23  and  C_31
REMARK    8  A    between atoms: C_24  and  O_29
REMARK    9  A    between atoms: C_31  and  O_32
REMARK                            x       y       z     vdW  Elec       q    Type
REMARK                         _______ _______ _______ _____ _____    ______ ____
ROOT
ATOM      1  C   UNL     1     -34.577  26.048   2.244  0.00  0.00    +0.031 C 
ATOM      2  C   UNL     1     -35.502  24.918   1.645  0.00  0.00    +0.048 C 
ATOM      3  C   UNL     1     -36.103  24.009   2.758  0.00  0.00    +0.121 C 
ATOM      4  C   UNL     1     -35.032  23.446   3.707  0.00  0.00    +0.028 C 
ATOM      5  C   UNL     1     -33.565  25.455   3.266  0.00  0.00    +0.003 C 
ATOM      6  C   UNL     1     -34.201  24.569   4.336  0.00  0.00    +0.003 C 
ATOM      7  C   UNL     1     -33.793  26.751   1.093  0.00  0.00    +0.115 C 
ATOM      8  C   UNL     1     -34.816  24.108   0.536  0.00  0.00    -0.046 C 
ATOM      9  C   UNL     1     -35.427  27.130   2.961  0.00  0.00    +0.003 C 
ATOM     10  C   UNL     1     -32.952  25.782   0.260  0.00  0.00    +0.055 C 
ATOM     11  C   UNL     1     -33.671  24.506  -0.048  0.00  0.00    -0.032 C 
ATOM     12  C   UNL     1     -35.500  22.864   0.036  0.00  0.00    +0.026 C 
ENDROOT
BRANCH   4  13
ATOM     13  C   UNL     1     -35.652  22.576   4.805  0.00  0.00    +0.002 C 
ATOM     14  C   UNL     1     -35.246  21.119   4.616  0.00  0.00    +0.000 C 
ATOM     15  C   UNL     1     -35.235  23.084   6.180  0.00  0.00    +0.000 C 
ENDBRANCH   4  13
BRANCH   7  16
ATOM     16  O   UNL     1     -34.689  27.408   0.191  0.00  0.00    -0.384 OA
ATOM     17  H   UNL     1     -34.562  27.055  -0.704  0.00  0.00    +0.210 HD
ENDBRANCH   7  16
BRANCH   3  18
ATOM     18  O   UNL     1     -37.082  24.730   3.506  0.00  0.00    -0.331 OA
BRANCH  18  20
ATOM     19  O   UNL     1     -38.352  23.230   2.250  0.00  0.00    -0.326 OA
ATOM     20  C   UNL     1     -38.405  24.347   3.134  0.00  0.00    +0.266 C 
ATOM     21  C   UNL     1     -39.067  25.542   2.448  0.00  0.00    +0.196 C 
ATOM     22  C   UNL     1     -40.437  25.170   1.883  0.00  0.00    +0.172 C 
ATOM     23  C   UNL     1     -39.651  22.779   1.858  0.00  0.00    +0.176 C 
ATOM     24  C   UNL     1     -40.369  23.877   1.071  0.00  0.00    +0.169 C 
BRANCH  21  25
ATOM     25  O   UNL     1     -39.219  26.583   3.413  0.00  0.00    -0.378 OA
ATOM     26  H   UNL     1     -39.728  27.311   3.026  0.00  0.00    +0.211 HD
ENDBRANCH  21  25
BRANCH  22  27
ATOM     27  O   UNL     1     -40.894  26.212   1.018  0.00  0.00    -0.379 OA
ATOM     28  H   UNL     1     -40.603  26.029   0.110  0.00  0.00    +0.211 HD
ENDBRANCH  22  27
BRANCH  24  29
ATOM     29  O   UNL     1     -41.692  23.445   0.760  0.00  0.00    -0.379 OA
ATOM     30  H   UNL     1     -42.171  24.165   0.321  0.00  0.00    +0.211 HD
ENDBRANCH  24  29
BRANCH  23  31
ATOM     31  C   UNL     1     -39.467  21.514   1.025  0.00  0.00    +0.169 C 
BRANCH  31  32
ATOM     32  O   UNL     1     -40.694  20.809   1.000  0.00  0.00    -0.379 OA
ATOM     33  H   UNL     1     -41.108  20.850   1.876  0.00  0.00    +0.211 HD
ENDBRANCH  31  32
ENDBRANCH  23  31
ENDBRANCH  18  20
ENDBRANCH   3  18
TORSDOF 9
ENDMDL
MODEL 5
REMARK VINA RESULT:      -5.8      1.029      2.351
REMARK  Name = 21589805
REMARK  9 active torsions:
REMARK  status: ('A' for Active; 'I' for Inactive)
REMARK    1  A    between atoms: C_3  and  O_18
REMARK    2  A    between atoms: C_4  and  C_13
REMARK    3  A    between atoms: C_7  and  O_16
REMARK    4  A    between atoms: O_18  and  C_20
REMARK    5  A    between atoms: C_21  and  O_25
REMARK    6  A    between atoms: C_22  and  O_27
REMARK    7  A    between atoms: C_23  and  C_31
REMARK    8  A    between atoms: C_24  and  O_29
REMARK    9  A    between atoms: C_31  and  O_32
REMARK                            x       y       z     vdW  Elec       q    Type
REMARK                         _______ _______ _______ _____ _____    ______ ____
ROOT
ATOM      1  C   UNL     1     -35.041  25.980   4.376  0.00  0.00    +0.031 C 
ATOM      2  C   UNL     1     -35.392  25.298   2.997  0.00  0.00    +0.048 C 
ATOM      3  C   UNL     1     -35.949  23.857   3.186  0.00  0.00    +0.121 C 
ATOM      4  C   UNL     1     -35.036  22.977   4.058  0.00  0.00    +0.028 C 
ATOM      5  C   UNL     1     -34.192  25.028   5.267  0.00  0.00    +0.003 C 
ATOM      6  C   UNL     1     -34.777  23.625   5.421  0.00  0.00    +0.003 C 
ATOM      7  C   UNL     1     -34.243  27.296   4.125  0.00  0.00    +0.115 C 
ATOM      8  C   UNL     1     -34.231  25.349   1.992  0.00  0.00    -0.046 C 
ATOM      9  C   UNL     1     -36.334  26.356   5.146  0.00  0.00    +0.003 C 
ATOM     10  C   UNL     1     -32.963  27.077   3.316  0.00  0.00    +0.055 C 
ATOM     11  C   UNL     1     -33.153  26.134   2.170  0.00  0.00    -0.032 C 
ATOM     12  C   UNL     1     -34.351  24.545   0.725  0.00  0.00    +0.026 C 
ENDROOT
BRANCH   4  13
ATOM     13  C   UNL     1     -35.619  21.573   4.248  0.00  0.00    +0.002 C 
ATOM     14  C   UNL     1     -35.187  20.663   3.104  0.00  0.00    +0.000 C 
ATOM     15  C   UNL     1     -35.187  21.000   5.593  0.00  0.00    +0.000 C 
ENDBRANCH   4  13
BRANCH   7  16
ATOM     16  O   UNL     1     -35.036  28.245   3.403  0.00  0.00    -0.384 OA
ATOM     17  H   UNL     1     -35.183  29.029   3.955  0.00  0.00    +0.210 HD
ENDBRANCH   7  16
BRANCH   3  18
ATOM     18  O   UNL     1     -37.258  23.906   3.753  0.00  0.00    -0.331 OA
BRANCH  18  20
ATOM     19  O   UNL     1     -39.229  25.114   3.444  0.00  0.00    -0.326 OA
ATOM     20  C   UNL     1     -38.222  24.342   2.796  0.00  0.00    +0.266 C 
ATOM     21  C   UNL     1     -38.834  23.102   2.144  0.00  0.00    +0.196 C 
ATOM     22  C   UNL     1     -39.985  23.476   1.210  0.00  0.00    +0.172 C 
ATOM     23  C   UNL     1     -40.216  25.605   2.533  0.00  0.00    +0.176 C 
ATOM     24  C   UNL     1     -40.962  24.433   1.892  0.00  0.00    +0.169 C 
BRANCH  21  25
ATOM     25  O   UNL     1     -37.812  22.441   1.397  0.00  0.00    -0.378 OA
ATOM     26  H   UNL     1     -36.953  22.596   1.817  0.00  0.00    +0.211 HD
ENDBRANCH  21  25
BRANCH  22  27
ATOM     27  O   UNL     1     -40.703  22.295   0.846  0.00  0.00    -0.379 OA
ATOM     28  H   UNL     1     -41.466  22.186   1.436  0.00  0.00    +0.211 HD
ENDBRANCH  22  27
BRANCH  24  29
ATOM     29  O   UNL     1     -41.883  24.934   0.925  0.00  0.00    -0.379 OA
ATOM     30  H   UNL     1     -41.470  24.917   0.048  0.00  0.00    +0.211 HD
ENDBRANCH  24  29
BRANCH  23  31
ATOM     31  C   UNL     1     -41.157  26.512   3.319  0.00  0.00    +0.169 C 
BRANCH  31  32
ATOM     32  O   UNL     1     -41.599  27.551   2.465  0.00  0.00    -0.379 OA
ATOM     33  H   UNL     1     -41.980  27.167   1.660  0.00  0.00    +0.211 HD
ENDBRANCH  31  32
ENDBRANCH  23  31
ENDBRANCH  18  20
ENDBRANCH   3  18
TORSDOF 9
ENDMDL
MODEL 6
REMARK VINA RESULT:      -5.8      1.997      2.950
REMARK  Name = 21589805
REMARK  9 active torsions:
REMARK  status: ('A' for Active; 'I' for Inactive)
REMARK    1  A    between atoms: C_3  and  O_18
REMARK    2  A    between atoms: C_4  and  C_13
REMARK    3  A    between atoms: C_7  and  O_16
REMARK    4  A    between atoms: O_18  and  C_20
REMARK    5  A    between atoms: C_21  and  O_25
REMARK    6  A    between atoms: C_22  and  O_27
REMARK    7  A    between atoms: C_23  and  C_31
REMARK    8  A    between atoms: C_24  and  O_29
REMARK    9  A    between atoms: C_31  and  O_32
REMARK                            x       y       z     vdW  Elec       q    Type
REMARK                         _______ _______ _______ _____ _____    ______ ____
ROOT
ATOM      1  C   UNL     1     -36.567  25.918   2.925  0.00  0.00    +0.031 C 
ATOM      2  C   UNL     1     -36.143  24.644   2.095  0.00  0.00    +0.048 C 
ATOM      3  C   UNL     1     -36.278  23.336   2.929  0.00  0.00    +0.121 C 
ATOM      4  C   UNL     1     -35.554  23.419   4.284  0.00  0.00    +0.028 C 
ATOM      5  C   UNL     1     -35.884  25.923   4.323  0.00  0.00    +0.003 C 
ATOM      6  C   UNL     1     -36.042  24.618   5.102  0.00  0.00    +0.003 C 
ATOM      7  C   UNL     1     -36.160  27.210   2.151  0.00  0.00    +0.115 C 
ATOM      8  C   UNL     1     -34.757  24.785   1.449  0.00  0.00    -0.046 C 
ATOM      9  C   UNL     1     -38.104  25.956   3.125  0.00  0.00    +0.003 C 
ATOM     10  C   UNL     1     -34.665  27.273   1.832  0.00  0.00    +0.055 C 
ATOM     11  C   UNL     1     -34.114  25.964   1.363  0.00  0.00    -0.032 C 
ATOM     12  C   UNL     1     -34.139  23.566   0.818  0.00  0.00    +0.026 C 
ENDROOT
BRANCH   4  13
ATOM     13  C   UNL     1     -35.722  22.129   5.093  0.00  0.00    +0.002 C 
ATOM     14  C   UNL     1     -34.984  20.981   4.417  0.00  0.00    +0.000 C 
ATOM     15  C   UNL     1     -35.224  22.333   6.520  0.00  0.00    +0.000 C 
ENDBRANCH   4  13
BRANCH   7  16
ATOM     16  O   UNL     1     -36.857  27.298   0.903  0.00  0.00    -0.384 OA
ATOM     17  H   UNL     1     -37.481  26.559   0.829  0.00  0.00    +0.210 HD
ENDBRANCH   7  16
BRANCH   3  18
ATOM     18  O   UNL     1     -37.655  23.024   3.135  0.00  0.00    -0.331 OA
BRANCH  18  20
ATOM     19  O   UNL     1     -36.903  21.315   1.736  0.00  0.00    -0.326 OA
ATOM     20  C   UNL     1     -38.040  21.863   2.399  0.00  0.00    +0.266 C 
ATOM     21  C   UNL     1     -39.104  22.280   1.384  0.00  0.00    +0.196 C 
ATOM     22  C   UNL     1     -39.464  21.124   0.451  0.00  0.00    +0.172 C 
ATOM     23  C   UNL     1     -37.217  20.132   0.999  0.00  0.00    +0.176 C 
ATOM     24  C   UNL     1     -38.211  20.459  -0.117  0.00  0.00    +0.169 C 
BRANCH  21  25
ATOM     25  O   UNL     1     -40.268  22.691   2.100  0.00  0.00    -0.378 OA
ATOM     26  H   UNL     1     -41.059  22.347   1.657  0.00  0.00    +0.211 HD
ENDBRANCH  21  25
BRANCH  22  27
ATOM     27  O   UNL     1     -40.236  21.620  -0.644  0.00  0.00    -0.379 OA
ATOM     28  H   UNL     1     -41.123  21.862  -0.332  0.00  0.00    +0.211 HD
ENDBRANCH  22  27
BRANCH  24  29
ATOM     29  O   UNL     1     -38.578  19.256  -0.789  0.00  0.00    -0.379 OA
ATOM     30  H   UNL     1     -37.941  18.558  -0.570  0.00  0.00    +0.211 HD
ENDBRANCH  24  29
BRANCH  23  31
ATOM     31  C   UNL     1     -35.909  19.574   0.446  0.00  0.00    +0.169 C 
BRANCH  31  32
ATOM     32  O   UNL     1     -36.026  18.166   0.346  0.00  0.00    -0.379 OA
ATOM     33  H   UNL     1     -36.964  17.920   0.335  0.00  0.00    +0.211 HD
ENDBRANCH  31  32
ENDBRANCH  23  31
ENDBRANCH  18  20
ENDBRANCH   3  18
TORSDOF 9
ENDMDL
MODEL 7
REMARK VINA RESULT:      -5.7      3.735      6.156
REMARK  Name = 21589805
REMARK  9 active torsions:
REMARK  status: ('A' for Active; 'I' for Inactive)
REMARK    1  A    between atoms: C_3  and  O_18
REMARK    2  A    between atoms: C_4  and  C_13
REMARK    3  A    between atoms: C_7  and  O_16
REMARK    4  A    between atoms: O_18  and  C_20
REMARK    5  A    between atoms: C_21  and  O_25
REMARK    6  A    between atoms: C_22  and  O_27
REMARK    7  A    between atoms: C_23  and  C_31
REMARK    8  A    between atoms: C_24  and  O_29
REMARK    9  A    between atoms: C_31  and  O_32
REMARK                            x       y       z     vdW  Elec       q    Type
REMARK                         _______ _______ _______ _____ _____    ______ ____
ROOT
ATOM      1  C   UNL     1     -35.107  24.854   2.857  0.00  0.00    +0.031 C 
ATOM      2  C   UNL     1     -35.049  23.364   3.375  0.00  0.00    +0.048 C 
ATOM      3  C   UNL     1     -35.954  22.420   2.530  0.00  0.00    +0.121 C 
ATOM      4  C   UNL     1     -37.396  22.939   2.400  0.00  0.00    +0.028 C 
ATOM      5  C   UNL     1     -36.579  25.315   2.654  0.00  0.00    +0.003 C 
ATOM      6  C   UNL     1     -37.427  24.356   1.820  0.00  0.00    +0.003 C 
ATOM      7  C   UNL     1     -34.411  25.797   3.887  0.00  0.00    +0.115 C 
ATOM      8  C   UNL     1     -35.324  23.243   4.881  0.00  0.00    -0.046 C 
ATOM      9  C   UNL     1     -34.353  24.996   1.509  0.00  0.00    +0.003 C 
ATOM     10  C   UNL     1     -35.022  25.711   5.287  0.00  0.00    +0.055 C 
ATOM     11  C   UNL     1     -35.326  24.307   5.705  0.00  0.00    -0.032 C 
ATOM     12  C   UNL     1     -35.519  21.868   5.460  0.00  0.00    +0.026 C 
ENDROOT
BRANCH   4  13
ATOM     13  C   UNL     1     -38.257  22.004   1.545  0.00  0.00    +0.002 C 
ATOM     14  C   UNL     1     -39.585  21.726   2.239  0.00  0.00    +0.000 C 
ATOM     15  C   UNL     1     -38.480  22.608   0.163  0.00  0.00    +0.000 C 
ENDBRANCH   4  13
BRANCH   7  16
ATOM     16  O   UNL     1     -33.022  25.475   4.017  0.00  0.00    -0.384 OA
ATOM     17  H   UNL     1     -32.770  25.508   4.954  0.00  0.00    +0.210 HD
ENDBRANCH   7  16
BRANCH   3  18
ATOM     18  O   UNL     1     -35.389  22.231   1.232  0.00  0.00    -0.331 OA
BRANCH  18  20
ATOM     19  O   UNL     1     -33.420  21.485   0.228  0.00  0.00    -0.326 OA
ATOM     20  C   UNL     1     -34.381  21.221   1.247  0.00  0.00    +0.266 C 
ATOM     21  C   UNL     1     -35.060  19.873   1.007  0.00  0.00    +0.196 C 
ATOM     22  C   UNL     1     -34.032  18.751   0.859  0.00  0.00    +0.172 C 
ATOM     23  C   UNL     1     -32.365  20.521   0.206  0.00  0.00    +0.176 C 
ATOM     24  C   UNL     1     -32.929  19.138  -0.126  0.00  0.00    +0.169 C 
BRANCH  21  25
ATOM     25  O   UNL     1     -35.907  19.595   2.123  0.00  0.00    -0.378 OA
ATOM     26  H   UNL     1     -36.829  19.557   1.826  0.00  0.00    +0.211 HD
ENDBRANCH  21  25
BRANCH  22  27
ATOM     27  O   UNL     1     -34.678  17.578   0.362  0.00  0.00    -0.379 OA
ATOM     28  H   UNL     1     -34.411  17.426  -0.559  0.00  0.00    +0.211 HD
ENDBRANCH  22  27
BRANCH  24  29
ATOM     29  O   UNL     1     -31.881  18.174  -0.062  0.00  0.00    -0.379 OA
ATOM     30  H   UNL     1     -31.065  18.561  -0.417  0.00  0.00    +0.211 HD
ENDBRANCH  24  29
BRANCH  23  31
ATOM     31  C   UNL     1     -31.345  20.979  -0.832  0.00  0.00    +0.169 C 
BRANCH  31  32
ATOM     32  O   UNL     1     -30.087  20.415  -0.507  0.00  0.00    -0.379 OA
ATOM     33  H   UNL     1     -30.222  19.588  -0.017  0.00  0.00    +0.211 HD
ENDBRANCH  31  32
ENDBRANCH  23  31
ENDBRANCH  18  20
ENDBRANCH   3  18
TORSDOF 9
ENDMDL
MODEL 8
REMARK VINA RESULT:      -5.7      1.712      2.857
REMARK  Name = 21589805
REMARK  9 active torsions:
REMARK  status: ('A' for Active; 'I' for Inactive)
REMARK    1  A    between atoms: C_3  and  O_18
REMARK    2  A    between atoms: C_4  and  C_13
REMARK    3  A    between atoms: C_7  and  O_16
REMARK    4  A    between atoms: O_18  and  C_20
REMARK    5  A    between atoms: C_21  and  O_25
REMARK    6  A    between atoms: C_22  and  O_27
REMARK    7  A    between atoms: C_23  and  C_31
REMARK    8  A    between atoms: C_24  and  O_29
REMARK    9  A    between atoms: C_31  and  O_32
REMARK                            x       y       z     vdW  Elec       q    Type
REMARK                         _______ _______ _______ _____ _____    ______ ____
ROOT
ATOM      1  C   UNL     1     -34.649  24.752   1.064  0.00  0.00    +0.031 C 
ATOM      2  C   UNL     1     -35.651  23.579   1.398  0.00  0.00    +0.048 C 
ATOM      3  C   UNL     1     -36.190  23.672   2.855  0.00  0.00    +0.121 C 
ATOM      4  C   UNL     1     -35.066  23.796   3.898  0.00  0.00    +0.028 C 
ATOM      5  C   UNL     1     -33.579  24.904   2.183  0.00  0.00    +0.003 C 
ATOM      6  C   UNL     1     -34.156  24.990   3.595  0.00  0.00    +0.003 C 
ATOM      7  C   UNL     1     -33.936  24.465  -0.293  0.00  0.00    +0.115 C 
ATOM      8  C   UNL     1     -35.076  22.192   1.075  0.00  0.00    -0.046 C 
ATOM      9  C   UNL     1     -35.409  26.097   0.919  0.00  0.00    +0.003 C 
ATOM     10  C   UNL     1     -33.191  23.129  -0.309  0.00  0.00    +0.055 C 
ATOM     11  C   UNL     1     -33.969  22.022   0.330  0.00  0.00    -0.032 C 
ATOM     12  C   UNL     1     -35.834  20.980   1.548  0.00  0.00    +0.026 C 
ENDROOT
BRANCH   4  13
ATOM     13  C   UNL     1     -35.625  23.909   5.319  0.00  0.00    +0.002 C 
ATOM     14  C   UNL     1     -35.272  22.667   6.127  0.00  0.00    +0.000 C 
ATOM     15  C   UNL     1     -35.094  25.168   5.996  0.00  0.00    +0.000 C 
ENDBRANCH   4  13
BRANCH   7  16
ATOM     16  O   UNL     1     -34.879  24.431  -1.369  0.00  0.00    -0.384 OA
ATOM     17  H   UNL     1     -34.427  24.167  -2.187  0.00  0.00    +0.210 HD
ENDBRANCH   7  16
BRANCH   3  18
ATOM     18  O   UNL     1     -37.087  24.777   2.978  0.00  0.00    -0.331 OA
BRANCH  18  20
ATOM     19  O   UNL     1     -38.468  23.353   1.750  0.00  0.00    -0.326 OA
ATOM     20  C   UNL     1     -38.437  24.378   2.740  0.00  0.00    +0.266 C 
ATOM     21  C   UNL     1     -39.214  25.606   2.266  0.00  0.00    +0.196 C 
ATOM     22  C   UNL     1     -40.636  25.235   1.845  0.00  0.00    +0.172 C 
ATOM     23  C   UNL     1     -39.794  22.890   1.483  0.00  0.00    +0.176 C 
ATOM     24  C   UNL     1     -40.638  24.029   0.907  0.00  0.00    +0.169 C 
BRANCH  21  25
ATOM     25  O   UNL     1     -39.267  26.543   3.341  0.00  0.00    -0.378 OA
ATOM     26  H   UNL     1     -39.897  26.233   4.009  0.00  0.00    +0.211 HD
ENDBRANCH  21  25
BRANCH  22  27
ATOM     27  O   UNL     1     -41.229  26.335   1.153  0.00  0.00    -0.379 OA
ATOM     28  H   UNL     1     -42.185  26.189   1.071  0.00  0.00    +0.211 HD
ENDBRANCH  22  27
BRANCH  24  29
ATOM     29  O   UNL     1     -41.978  23.576   0.724  0.00  0.00    -0.379 OA
ATOM     30  H   UNL     1     -42.026  22.626   0.916  0.00  0.00    +0.211 HD
ENDBRANCH  24  29
BRANCH  23  31
ATOM     31  C   UNL     1     -39.686  21.719   0.512  0.00  0.00    +0.169 C 
BRANCH  31  32
ATOM     32  O   UNL     1     -40.818  20.886   0.682  0.00  0.00    -0.379 OA
ATOM     33  H   UNL     1     -41.183  21.015   1.572  0.00  0.00    +0.211 HD
ENDBRANCH  31  32
ENDBRANCH  23  31
ENDBRANCH  18  20
ENDBRANCH   3  18
TORSDOF 9
ENDMDL
MODEL 9
REMARK VINA RESULT:      -5.7      3.176      7.027
REMARK  Name = 21589805
REMARK  9 active torsions:
REMARK  status: ('A' for Active; 'I' for Inactive)
REMARK    1  A    between atoms: C_3  and  O_18
REMARK    2  A    between atoms: C_4  and  C_13
REMARK    3  A    between atoms: C_7  and  O_16
REMARK    4  A    between atoms: O_18  and  C_20
REMARK    5  A    between atoms: C_21  and  O_25
REMARK    6  A    between atoms: C_22  and  O_27
REMARK    7  A    between atoms: C_23  and  C_31
REMARK    8  A    between atoms: C_24  and  O_29
REMARK    9  A    between atoms: C_31  and  O_32
REMARK                            x       y       z     vdW  Elec       q    Type
REMARK                         _______ _______ _______ _____ _____    ______ ____
ROOT
ATOM      1  C   UNL     1     -36.234  24.635   4.124  0.00  0.00    +0.031 C 
ATOM      2  C   UNL     1     -35.147  25.011   3.043  0.00  0.00    +0.048 C 
ATOM      3  C   UNL     1     -35.549  26.277   2.231  0.00  0.00    +0.121 C 
ATOM      4  C   UNL     1     -36.960  26.172   1.628  0.00  0.00    +0.028 C 
ATOM      5  C   UNL     1     -37.659  24.625   3.498  0.00  0.00    +0.003 C 
ATOM      6  C   UNL     1     -38.006  25.886   2.709  0.00  0.00    +0.003 C 
ATOM      7  C   UNL     1     -35.924  23.225   4.715  0.00  0.00    +0.115 C 
ATOM      8  C   UNL     1     -34.770  23.830   2.137  0.00  0.00    -0.046 C 
ATOM      9  C   UNL     1     -36.216  25.649   5.297  0.00  0.00    +0.003 C 
ATOM     10  C   UNL     1     -35.852  22.130   3.650  0.00  0.00    +0.055 C 
ATOM     11  C   UNL     1     -35.115  22.560   2.421  0.00  0.00    -0.032 C 
ATOM     12  C   UNL     1     -33.915  24.104   0.929  0.00  0.00    +0.026 C 
ENDROOT
BRANCH   4  13
ATOM     13  C   UNL     1     -37.338  27.439   0.854  0.00  0.00    +0.002 C 
ATOM     14  C   UNL     1     -36.431  27.609  -0.358  0.00  0.00    +0.000 C 
ATOM     15  C   UNL     1     -38.803  27.383   0.435  0.00  0.00    +0.000 C 
ENDBRANCH   4  13
BRANCH   7  16
ATOM     16  O   UNL     1     -34.667  23.225   5.400  0.00  0.00    -0.384 OA
ATOM     17  H   UNL     1     -33.973  22.902   4.802  0.00  0.00    +0.210 HD
ENDBRANCH   7  16
BRANCH   3  18
ATOM     18  O   UNL     1     -35.460  27.439   3.055  0.00  0.00    -0.331 OA
BRANCH  18  20
ATOM     19  O   UNL     1     -33.770  27.725   4.638  0.00  0.00    -0.326 OA
ATOM     20  C   UNL     1     -34.102  27.830   3.256  0.00  0.00    +0.266 C 
ATOM     21  C   UNL     1     -33.952  29.274   2.778  0.00  0.00    +0.196 C 
ATOM     22  C   UNL     1     -32.561  29.823   3.095  0.00  0.00    +0.172 C 
ATOM     23  C   UNL     1     -32.411  28.080   4.904  0.00  0.00    +0.176 C 
ATOM     24  C   UNL     1     -32.176  29.549   4.548  0.00  0.00    +0.169 C 
BRANCH  21  25
ATOM     25  O   UNL     1     -34.162  29.301   1.365  0.00  0.00    -0.378 OA
ATOM     26  H   UNL     1     -34.910  28.727   1.139  0.00  0.00    +0.211 HD
ENDBRANCH  21  25
BRANCH  22  27
ATOM     27  O   UNL     1     -32.552  31.238   2.894  0.00  0.00    -0.379 OA
ATOM     28  H   UNL     1     -32.957  31.446   2.038  0.00  0.00    +0.211 HD
ENDBRANCH  22  27
BRANCH  24  29
ATOM     29  O   UNL     1     -30.799  29.865   4.739  0.00  0.00    -0.379 OA
ATOM     30  H   UNL     1     -30.339  29.831   3.885  0.00  0.00    +0.211 HD
ENDBRANCH  24  29
BRANCH  23  31
ATOM     31  C   UNL     1     -32.145  27.806   6.381  0.00  0.00    +0.169 C 
BRANCH  31  32
ATOM     32  O   UNL     1     -30.749  27.651   6.566  0.00  0.00    -0.379 OA
ATOM     33  H   UNL     1     -30.428  28.329   7.181  0.00  0.00    +0.211 HD
ENDBRANCH  31  32
ENDBRANCH  23  31
ENDBRANCH  18  20
ENDBRANCH   3  18
TORSDOF 9
ENDMDL
