MODEL 1
REMARK VINA RESULT:      -6.8      0.000      0.000
REMARK  Name = 5317435
REMARK  5 active torsions:
REMARK  status: ('A' for Active; 'I' for Inactive)
REMARK    1  A    between atoms: C_3  and  C_12
REMARK    2  A    between atoms: C_4  and  O_22
REMARK    3  A    between atoms: C_10  and  O_24
REMARK    4  A    between atoms: C_15  and  O_18
REMARK    5  A    between atoms: C_17  and  O_20
REMARK                            x       y       z     vdW  Elec       q    Type
REMARK                         _______ _______ _______ _____ _____    ______ ____
ROOT
ATOM      1  O   UNL     1     -33.388  26.270   5.083  0.00  0.00    -0.472 OA
ATOM      2  O   UNL     1     -33.742  29.000   2.036  0.00  0.00    -0.289 OA
ATOM      3  C   UNL     1     -34.444  26.168   4.116  0.00  0.00    +0.222 C 
ATOM      4  C   UNL     1     -34.003  26.711   2.755  0.00  0.00    +0.217 C 
ATOM      5  C   UNL     1     -33.586  28.156   2.911  0.00  0.00    +0.207 C 
ATOM      6  C   UNL     1     -32.932  28.495   4.190  0.00  0.00    +0.071 C 
ATOM      7  C   UNL     1     -32.856  27.528   5.196  0.00  0.00    +0.145 C 
ATOM      8  C   UNL     1     -32.368  29.759   4.383  0.00  0.00    +0.009 C 
ATOM      9  C   UNL     1     -32.183  27.816   6.383  0.00  0.00    +0.074 C 
ATOM     10  C   UNL     1     -31.616  29.075   6.577  0.00  0.00    +0.137 C 
ATOM     11  C   UNL     1     -31.713  30.047   5.581  0.00  0.00    +0.037 C 
ENDROOT
BRANCH   3  12
ATOM     12  C   UNL     1     -34.842  24.706   4.033  0.00  0.00    +0.023 C 
ATOM     13  C   UNL     1     -35.279  24.041   5.176  0.00  0.00    +0.039 C 
ATOM     14  C   UNL     1     -34.768  24.034   2.815  0.00  0.00    +0.003 C 
ATOM     15  C   UNL     1     -35.644  22.697   5.101  0.00  0.00    +0.167 C 
ATOM     16  C   UNL     1     -35.134  22.691   2.739  0.00  0.00    +0.040 C 
ATOM     17  C   UNL     1     -35.571  22.022   3.882  0.00  0.00    +0.167 C 
BRANCH  15  18
ATOM     18  O   UNL     1     -36.072  22.054   6.223  0.00  0.00    -0.503 OA
ATOM     19  H   UNL     1     -36.551  22.523   6.877  0.00  0.00    +0.292 HD
ENDBRANCH  15  18
BRANCH  17  20
ATOM     20  O   UNL     1     -35.927  20.709   3.796  0.00  0.00    -0.503 OA
ATOM     21  H   UNL     1     -35.902  20.166   4.558  0.00  0.00    +0.292 HD
ENDBRANCH  17  20
ENDBRANCH   3  12
BRANCH   4  22
ATOM     22  O   UNL     1     -35.059  26.654   1.811  0.00  0.00    -0.374 OA
ATOM     23  H   UNL     1     -35.068  27.470   1.286  0.00  0.00    +0.211 HD
ENDBRANCH   4  22
BRANCH  10  24
ATOM     24  O   UNL     1     -30.969  29.358   7.741  0.00  0.00    -0.505 OA
ATOM     25  H   UNL     1     -31.255  28.968   8.543  0.00  0.00    +0.292 HD
ENDBRANCH  10  24
TORSDOF 5
ENDMDL
MODEL 2
REMARK VINA RESULT:      -6.5      2.237      4.508
REMARK  Name = 5317435
REMARK  5 active torsions:
REMARK  status: ('A' for Active; 'I' for Inactive)
REMARK    1  A    between atoms: C_3  and  C_12
REMARK    2  A    between atoms: C_4  and  O_22
REMARK    3  A    between atoms: C_10  and  O_24
REMARK    4  A    between atoms: C_15  and  O_18
REMARK    5  A    between atoms: C_17  and  O_20
REMARK                            x       y       z     vdW  Elec       q    Type
REMARK                         _______ _______ _______ _____ _____    ______ ____
ROOT
ATOM      1  O   UNL     1     -36.277  25.740   2.690  0.00  0.00    -0.472 OA
ATOM      2  O   UNL     1     -33.617  28.719   3.645  0.00  0.00    -0.289 OA
ATOM      3  C   UNL     1     -34.995  25.434   3.260  0.00  0.00    +0.222 C 
ATOM      4  C   UNL     1     -34.523  26.550   4.194  0.00  0.00    +0.217 C 
ATOM      5  C   UNL     1     -34.445  27.845   3.416  0.00  0.00    +0.207 C 
ATOM      6  C   UNL     1     -35.469  28.019   2.366  0.00  0.00    +0.071 C 
ATOM      7  C   UNL     1     -36.335  26.963   2.075  0.00  0.00    +0.145 C 
ATOM      8  C   UNL     1     -35.588  29.237   1.691  0.00  0.00    +0.009 C 
ATOM      9  C   UNL     1     -37.347  27.138   1.131  0.00  0.00    +0.074 C 
ATOM     10  C   UNL     1     -37.472  28.354   0.459  0.00  0.00    +0.137 C 
ATOM     11  C   UNL     1     -36.592  29.400   0.735  0.00  0.00    +0.037 C 
ENDROOT
BRANCH   3  12
ATOM     12  C   UNL     1     -35.129  24.112   3.991  0.00  0.00    +0.023 C 
ATOM     13  C   UNL     1     -35.356  22.941   3.272  0.00  0.00    +0.039 C 
ATOM     14  C   UNL     1     -35.024  24.072   5.380  0.00  0.00    +0.003 C 
ATOM     15  C   UNL     1     -35.480  21.725   3.943  0.00  0.00    +0.167 C 
ATOM     16  C   UNL     1     -35.147  22.857   6.052  0.00  0.00    +0.040 C 
ATOM     17  C   UNL     1     -35.375  21.683   5.334  0.00  0.00    +0.167 C 
BRANCH  15  18
ATOM     18  O   UNL     1     -35.701  20.584   3.232  0.00  0.00    -0.503 OA
ATOM     19  H   UNL     1     -35.324  19.775   3.516  0.00  0.00    +0.292 HD
ENDBRANCH  15  18
BRANCH  17  20
ATOM     20  O   UNL     1     -35.493  20.500   6.001  0.00  0.00    -0.503 OA
ATOM     21  H   UNL     1     -35.479  20.487   6.937  0.00  0.00    +0.292 HD
ENDBRANCH  17  20
ENDBRANCH   3  12
BRANCH   4  22
ATOM     22  O   UNL     1     -33.237  26.272   4.720  0.00  0.00    -0.374 OA
ATOM     23  H   UNL     1     -32.600  26.917   4.375  0.00  0.00    +0.211 HD
ENDBRANCH   4  22
BRANCH  10  24
ATOM     24  O   UNL     1     -38.454  28.520  -0.469  0.00  0.00    -0.505 OA
ATOM     25  H   UNL     1     -39.066  29.225  -0.383  0.00  0.00    +0.292 HD
ENDBRANCH  10  24
TORSDOF 5
ENDMDL
MODEL 3
REMARK VINA RESULT:      -6.5      2.379      7.118
REMARK  Name = 5317435
REMARK  5 active torsions:
REMARK  status: ('A' for Active; 'I' for Inactive)
REMARK    1  A    between atoms: C_3  and  C_12
REMARK    2  A    between atoms: C_4  and  O_22
REMARK    3  A    between atoms: C_10  and  O_24
REMARK    4  A    between atoms: C_15  and  O_18
REMARK    5  A    between atoms: C_17  and  O_20
REMARK                            x       y       z     vdW  Elec       q    Type
REMARK                         _______ _______ _______ _____ _____    ______ ____
ROOT
ATOM      1  O   UNL     1     -35.129  23.575   3.443  0.00  0.00    -0.472 OA
ATOM      2  O   UNL     1     -39.137  24.343   2.988  0.00  0.00    -0.289 OA
ATOM      3  C   UNL     1     -35.627  24.921   3.421  0.00  0.00    +0.222 C 
ATOM      4  C   UNL     1     -37.043  24.997   3.996  0.00  0.00    +0.217 C 
ATOM      5  C   UNL     1     -37.953  24.098   3.189  0.00  0.00    +0.207 C 
ATOM      6  C   UNL     1     -37.332  22.861   2.674  0.00  0.00    +0.071 C 
ATOM      7  C   UNL     1     -35.960  22.664   2.845  0.00  0.00    +0.145 C 
ATOM      8  C   UNL     1     -38.113  21.886   2.048  0.00  0.00    +0.009 C 
ATOM      9  C   UNL     1     -35.374  21.471   2.420  0.00  0.00    +0.074 C 
ATOM     10  C   UNL     1     -36.152  20.494   1.800  0.00  0.00    +0.137 C 
ATOM     11  C   UNL     1     -37.518  20.702   1.609  0.00  0.00    +0.037 C 
ENDROOT
BRANCH   3  12
ATOM     12  C   UNL     1     -34.655  25.776   4.212  0.00  0.00    +0.023 C 
ATOM     13  C   UNL     1     -33.886  26.737   3.560  0.00  0.00    +0.039 C 
ATOM     14  C   UNL     1     -34.535  25.597   5.589  0.00  0.00    +0.003 C 
ATOM     15  C   UNL     1     -32.991  27.522   4.287  0.00  0.00    +0.167 C 
ATOM     16  C   UNL     1     -33.642  26.383   6.317  0.00  0.00    +0.040 C 
ATOM     17  C   UNL     1     -32.870  27.345   5.666  0.00  0.00    +0.167 C 
BRANCH  15  18
ATOM     18  O   UNL     1     -32.243  28.459   3.641  0.00  0.00    -0.503 OA
ATOM     19  H   UNL     1     -32.351  28.589   2.719  0.00  0.00    +0.292 HD
ENDBRANCH  15  18
BRANCH  17  20
ATOM     20  O   UNL     1     -32.001  28.108   6.387  0.00  0.00    -0.503 OA
ATOM     21  H   UNL     1     -31.497  27.721   7.075  0.00  0.00    +0.292 HD
ENDBRANCH  17  20
ENDBRANCH   3  12
BRANCH   4  22
ATOM     22  O   UNL     1     -37.555  26.317   3.932  0.00  0.00    -0.374 OA
ATOM     23  H   UNL     1     -37.491  26.645   3.022  0.00  0.00    +0.211 HD
ENDBRANCH   4  22
BRANCH  10  24
ATOM     24  O   UNL     1     -35.577  19.334   1.377  0.00  0.00    -0.505 OA
ATOM     25  H   UNL     1     -34.804  19.012   1.800  0.00  0.00    +0.292 HD
ENDBRANCH  10  24
TORSDOF 5
ENDMDL
MODEL 4
REMARK VINA RESULT:      -6.5      2.915      5.300
REMARK  Name = 5317435
REMARK  5 active torsions:
REMARK  status: ('A' for Active; 'I' for Inactive)
REMARK    1  A    between atoms: C_3  and  C_12
REMARK    2  A    between atoms: C_4  and  O_22
REMARK    3  A    between atoms: C_10  and  O_24
REMARK    4  A    between atoms: C_15  and  O_18
REMARK    5  A    between atoms: C_17  and  O_20
REMARK                            x       y       z     vdW  Elec       q    Type
REMARK                         _______ _______ _______ _____ _____    ______ ____
ROOT
ATOM      1  O   UNL     1     -36.395  23.880   2.600  0.00  0.00    -0.472 OA
ATOM      2  O   UNL     1     -34.511  22.346   5.911  0.00  0.00    -0.289 OA
ATOM      3  C   UNL     1     -35.999  22.501   2.655  0.00  0.00    +0.222 C 
ATOM      4  C   UNL     1     -36.048  21.967   4.088  0.00  0.00    +0.217 C 
ATOM      5  C   UNL     1     -35.132  22.800   4.957  0.00  0.00    +0.207 C 
ATOM      6  C   UNL     1     -35.053  24.233   4.607  0.00  0.00    +0.071 C 
ATOM      7  C   UNL     1     -35.702  24.692   3.459  0.00  0.00    +0.145 C 
ATOM      8  C   UNL     1     -34.361  25.124   5.432  0.00  0.00    +0.009 C 
ATOM      9  C   UNL     1     -35.689  26.054   3.155  0.00  0.00    +0.074 C 
ATOM     10  C   UNL     1     -35.003  26.946   3.978  0.00  0.00    +0.137 C 
ATOM     11  C   UNL     1     -34.337  26.482   5.112  0.00  0.00    +0.037 C 
ENDROOT
BRANCH   3  12
ATOM     12  C   UNL     1     -36.927  21.727   1.737  0.00  0.00    +0.023 C 
ATOM     13  C   UNL     1     -38.296  21.706   1.992  0.00  0.00    +0.039 C 
ATOM     14  C   UNL     1     -36.407  21.041   0.642  0.00  0.00    +0.003 C 
ATOM     15  C   UNL     1     -39.149  20.994   1.150  0.00  0.00    +0.167 C 
ATOM     16  C   UNL     1     -37.259  20.329  -0.201  0.00  0.00    +0.040 C 
ATOM     17  C   UNL     1     -38.631  20.306   0.053  0.00  0.00    +0.167 C 
BRANCH  15  18
ATOM     18  O   UNL     1     -40.487  20.979   1.407  0.00  0.00    -0.503 OA
ATOM     19  H   UNL     1     -40.806  20.599   2.202  0.00  0.00    +0.292 HD
ENDBRANCH  15  18
BRANCH  17  20
ATOM     20  O   UNL     1     -39.455  19.608  -0.779  0.00  0.00    -0.503 OA
ATOM     21  H   UNL     1     -39.661  19.947  -1.627  0.00  0.00    +0.292 HD
ENDBRANCH  17  20
ENDBRANCH   3  12
BRANCH   4  22
ATOM     22  O   UNL     1     -35.612  20.620   4.151  0.00  0.00    -0.374 OA
ATOM     23  H   UNL     1     -34.663  20.596   4.351  0.00  0.00    +0.211 HD
ENDBRANCH   4  22
BRANCH  10  24
ATOM     24  O   UNL     1     -34.983  28.274   3.675  0.00  0.00    -0.505 OA
ATOM     25  H   UNL     1     -35.620  28.630   3.086  0.00  0.00    +0.292 HD
ENDBRANCH  10  24
TORSDOF 5
ENDMDL
MODEL 5
REMARK VINA RESULT:      -6.5      2.933      5.450
REMARK  Name = 5317435
REMARK  5 active torsions:
REMARK  status: ('A' for Active; 'I' for Inactive)
REMARK    1  A    between atoms: C_3  and  C_12
REMARK    2  A    between atoms: C_4  and  O_22
REMARK    3  A    between atoms: C_10  and  O_24
REMARK    4  A    between atoms: C_15  and  O_18
REMARK    5  A    between atoms: C_17  and  O_20
REMARK                            x       y       z     vdW  Elec       q    Type
REMARK                         _______ _______ _______ _____ _____    ______ ____
ROOT
ATOM      1  O   UNL     1     -35.693  23.266   2.599  0.00  0.00    -0.472 OA
ATOM      2  O   UNL     1     -35.235  22.731   6.644  0.00  0.00    -0.289 OA
ATOM      3  C   UNL     1     -35.160  22.043   3.128  0.00  0.00    +0.222 C 
ATOM      4  C   UNL     1     -35.748  21.733   4.507  0.00  0.00    +0.217 C 
ATOM      5  C   UNL     1     -35.438  22.879   5.445  0.00  0.00    +0.207 C 
ATOM      6  C   UNL     1     -35.429  24.221   4.829  0.00  0.00    +0.071 C 
ATOM      7  C   UNL     1     -35.573  24.337   3.444  0.00  0.00    +0.145 C 
ATOM      8  C   UNL     1     -35.307  25.363   5.625  0.00  0.00    +0.009 C 
ATOM      9  C   UNL     1     -35.632  25.603   2.859  0.00  0.00    +0.074 C 
ATOM     10  C   UNL     1     -35.515  26.744   3.652  0.00  0.00    +0.137 C 
ATOM     11  C   UNL     1     -35.348  26.625   5.031  0.00  0.00    +0.037 C 
ENDROOT
BRANCH   3  12
ATOM     12  C   UNL     1     -35.469  20.944   2.129  0.00  0.00    +0.023 C 
ATOM     13  C   UNL     1     -36.778  20.748   1.695  0.00  0.00    +0.039 C 
ATOM     14  C   UNL     1     -34.442  20.135   1.647  0.00  0.00    +0.003 C 
ATOM     15  C   UNL     1     -37.063  19.738   0.777  0.00  0.00    +0.167 C 
ATOM     16  C   UNL     1     -34.726  19.125   0.728  0.00  0.00    +0.040 C 
ATOM     17  C   UNL     1     -36.036  18.926   0.293  0.00  0.00    +0.167 C 
BRANCH  15  18
ATOM     18  O   UNL     1     -38.346  19.553   0.358  0.00  0.00    -0.503 OA
ATOM     19  H   UNL     1     -38.604  18.732  -0.011  0.00  0.00    +0.292 HD
ENDBRANCH  15  18
BRANCH  17  20
ATOM     20  O   UNL     1     -36.302  17.937  -0.606  0.00  0.00    -0.503 OA
ATOM     21  H   UNL     1     -36.788  17.182  -0.342  0.00  0.00    +0.292 HD
ENDBRANCH  17  20
ENDBRANCH   3  12
BRANCH   4  22
ATOM     22  O   UNL     1     -35.187  20.551   5.052  0.00  0.00    -0.374 OA
ATOM     23  H   UNL     1     -35.886  20.026   5.472  0.00  0.00    +0.211 HD
ENDBRANCH   4  22
BRANCH  10  24
ATOM     24  O   UNL     1     -35.563  27.979   3.078  0.00  0.00    -0.505 OA
ATOM     25  H   UNL     1     -35.250  28.100   2.202  0.00  0.00    +0.292 HD
ENDBRANCH  10  24
TORSDOF 5
ENDMDL
MODEL 6
REMARK VINA RESULT:      -6.5      3.620      4.743
REMARK  Name = 5317435
REMARK  5 active torsions:
REMARK  status: ('A' for Active; 'I' for Inactive)
REMARK    1  A    between atoms: C_3  and  C_12
REMARK    2  A    between atoms: C_4  and  O_22
REMARK    3  A    between atoms: C_10  and  O_24
REMARK    4  A    between atoms: C_15  and  O_18
REMARK    5  A    between atoms: C_17  and  O_20
REMARK                            x       y       z     vdW  Elec       q    Type
REMARK                         _______ _______ _______ _____ _____    ______ ____
ROOT
ATOM      1  O   UNL     1     -35.495  25.637   2.404  0.00  0.00    -0.472 OA
ATOM      2  O   UNL     1     -39.371  26.914   1.949  0.00  0.00    -0.289 OA
ATOM      3  C   UNL     1     -36.493  25.341   3.393  0.00  0.00    +0.222 C 
ATOM      4  C   UNL     1     -37.877  25.198   2.756  0.00  0.00    +0.217 C 
ATOM      5  C   UNL     1     -38.227  26.484   2.041  0.00  0.00    +0.207 C 
ATOM      6  C   UNL     1     -37.093  27.190   1.411  0.00  0.00    +0.071 C 
ATOM      7  C   UNL     1     -35.795  26.716   1.616  0.00  0.00    +0.145 C 
ATOM      8  C   UNL     1     -37.319  28.302   0.595  0.00  0.00    +0.009 C 
ATOM      9  C   UNL     1     -34.723  27.337   0.974  0.00  0.00    +0.074 C 
ATOM     10  C   UNL     1     -34.945  28.444   0.156  0.00  0.00    +0.137 C 
ATOM     11  C   UNL     1     -36.240  28.929  -0.029  0.00  0.00    +0.037 C 
ENDROOT
BRANCH   3  12
ATOM     12  C   UNL     1     -36.068  24.067   4.098  0.00  0.00    +0.023 C 
ATOM     13  C   UNL     1     -36.035  22.863   3.398  0.00  0.00    +0.039 C 
ATOM     14  C   UNL     1     -35.710  24.105   5.444  0.00  0.00    +0.003 C 
ATOM     15  C   UNL     1     -35.646  21.691   4.046  0.00  0.00    +0.167 C 
ATOM     16  C   UNL     1     -35.319  22.934   6.093  0.00  0.00    +0.040 C 
ATOM     17  C   UNL     1     -35.287  21.727   5.394  0.00  0.00    +0.167 C 
BRANCH  15  18
ATOM     18  O   UNL     1     -35.617  20.519   3.353  0.00  0.00    -0.503 OA
ATOM     19  H   UNL     1     -35.567  20.530   2.418  0.00  0.00    +0.292 HD
ENDBRANCH  15  18
BRANCH  17  20
ATOM     20  O   UNL     1     -34.902  20.589   6.038  0.00  0.00    -0.503 OA
ATOM     21  H   UNL     1     -35.400  19.803   5.938  0.00  0.00    +0.292 HD
ENDBRANCH  17  20
ENDBRANCH   3  12
BRANCH   4  22
ATOM     22  O   UNL     1     -38.872  24.952   3.735  0.00  0.00    -0.374 OA
ATOM     23  H   UNL     1     -38.563  25.272   4.597  0.00  0.00    +0.211 HD
ENDBRANCH   4  22
BRANCH  10  24
ATOM     24  O   UNL     1     -33.897  29.055  -0.462  0.00  0.00    -0.505 OA
ATOM     25  H   UNL     1     -33.486  29.797  -0.064  0.00  0.00    +0.292 HD
ENDBRANCH  10  24
TORSDOF 5
ENDMDL
MODEL 7
REMARK VINA RESULT:      -6.5      4.209      8.664
REMARK  Name = 5317435
REMARK  5 active torsions:
REMARK  status: ('A' for Active; 'I' for Inactive)
REMARK    1  A    between atoms: C_3  and  C_12
REMARK    2  A    between atoms: C_4  and  O_22
REMARK    3  A    between atoms: C_10  and  O_24
REMARK    4  A    between atoms: C_15  and  O_18
REMARK    5  A    between atoms: C_17  and  O_20
REMARK                            x       y       z     vdW  Elec       q    Type
REMARK                         _______ _______ _______ _____ _____    ______ ____
ROOT
ATOM      1  O   UNL     1     -34.076  19.924   1.982  0.00  0.00    -0.472 OA
ATOM      2  O   UNL     1     -36.950  18.707  -0.687  0.00  0.00    -0.289 OA
ATOM      3  C   UNL     1     -35.088  20.831   1.518  0.00  0.00    +0.222 C 
ATOM      4  C   UNL     1     -36.393  20.094   1.208  0.00  0.00    +0.217 C 
ATOM      5  C   UNL     1     -36.126  19.039   0.158  0.00  0.00    +0.207 C 
ATOM      6  C   UNL     1     -34.803  18.388   0.231  0.00  0.00    +0.071 C 
ATOM      7  C   UNL     1     -33.861  18.858   1.149  0.00  0.00    +0.145 C 
ATOM      8  C   UNL     1     -34.507  17.295  -0.588  0.00  0.00    +0.009 C 
ATOM      9  C   UNL     1     -32.632  18.209   1.272  0.00  0.00    +0.074 C 
ATOM     10  C   UNL     1     -32.335  17.116   0.459  0.00  0.00    +0.137 C 
ATOM     11  C   UNL     1     -33.268  16.663  -0.473  0.00  0.00    +0.037 C 
ENDROOT
BRANCH   3  12
ATOM     12  C   UNL     1     -35.282  21.883   2.594  0.00  0.00    +0.023 C 
ATOM     13  C   UNL     1     -35.577  21.494   3.899  0.00  0.00    +0.039 C 
ATOM     14  C   UNL     1     -35.163  23.234   2.275  0.00  0.00    +0.003 C 
ATOM     15  C   UNL     1     -35.756  22.460   4.888  0.00  0.00    +0.167 C 
ATOM     16  C   UNL     1     -35.341  24.200   3.264  0.00  0.00    +0.040 C 
ATOM     17  C   UNL     1     -35.637  23.814   4.571  0.00  0.00    +0.167 C 
BRANCH  15  18
ATOM     18  O   UNL     1     -36.044  22.071   6.162  0.00  0.00    -0.503 OA
ATOM     19  H   UNL     1     -36.045  22.702   6.855  0.00  0.00    +0.292 HD
ENDBRANCH  15  18
BRANCH  17  20
ATOM     20  O   UNL     1     -35.808  24.767   5.530  0.00  0.00    -0.503 OA
ATOM     21  H   UNL     1     -35.386  25.599   5.444  0.00  0.00    +0.292 HD
ENDBRANCH  17  20
ENDBRANCH   3  12
BRANCH   4  22
ATOM     22  O   UNL     1     -37.378  20.980   0.705  0.00  0.00    -0.374 OA
ATOM     23  H   UNL     1     -38.241  20.536   0.702  0.00  0.00    +0.211 HD
ENDBRANCH   4  22
BRANCH  10  24
ATOM     24  O   UNL     1     -31.131  16.490   0.573  0.00  0.00    -0.505 OA
ATOM     25  H   UNL     1     -31.087  15.615   0.905  0.00  0.00    +0.292 HD
ENDBRANCH  10  24
TORSDOF 5
ENDMDL
MODEL 8
REMARK VINA RESULT:      -6.3      1.826      3.826
REMARK  Name = 5317435
REMARK  5 active torsions:
REMARK  status: ('A' for Active; 'I' for Inactive)
REMARK    1  A    between atoms: C_3  and  C_12
REMARK    2  A    between atoms: C_4  and  O_22
REMARK    3  A    between atoms: C_10  and  O_24
REMARK    4  A    between atoms: C_15  and  O_18
REMARK    5  A    between atoms: C_17  and  O_20
REMARK                            x       y       z     vdW  Elec       q    Type
REMARK                         _______ _______ _______ _____ _____    ______ ____
ROOT
ATOM      1  O   UNL     1     -33.356  28.671   4.034  0.00  0.00    -0.472 OA
ATOM      2  O   UNL     1     -30.539  29.370   6.939  0.00  0.00    -0.289 OA
ATOM      3  C   UNL     1     -32.731  27.586   4.737  0.00  0.00    +0.222 C 
ATOM      4  C   UNL     1     -32.363  27.990   6.165  0.00  0.00    +0.217 C 
ATOM      5  C   UNL     1     -31.427  29.178   6.117  0.00  0.00    +0.207 C 
ATOM      6  C   UNL     1     -31.673  30.136   5.021  0.00  0.00    +0.071 C 
ATOM      7  C   UNL     1     -32.633  29.835   4.052  0.00  0.00    +0.145 C 
ATOM      8  C   UNL     1     -30.972  31.345   4.969  0.00  0.00    +0.009 C 
ATOM      9  C   UNL     1     -32.919  30.762   3.049  0.00  0.00    +0.074 C 
ATOM     10  C   UNL     1     -32.224  31.970   2.997  0.00  0.00    +0.137 C 
ATOM     11  C   UNL     1     -31.250  32.260   3.952  0.00  0.00    +0.037 C 
ENDROOT
BRANCH   3  12
ATOM     12  C   UNL     1     -33.699  26.418   4.717  0.00  0.00    +0.023 C 
ATOM     13  C   UNL     1     -33.730  25.560   3.621  0.00  0.00    +0.039 C 
ATOM     14  C   UNL     1     -34.554  26.207   5.797  0.00  0.00    +0.003 C 
ATOM     15  C   UNL     1     -34.621  24.487   3.602  0.00  0.00    +0.167 C 
ATOM     16  C   UNL     1     -35.445  25.134   5.780  0.00  0.00    +0.040 C 
ATOM     17  C   UNL     1     -35.478  24.274   4.682  0.00  0.00    +0.167 C 
BRANCH  15  18
ATOM     18  O   UNL     1     -34.643  23.652   2.526  0.00  0.00    -0.503 OA
ATOM     19  H   UNL     1     -35.442  23.227   2.281  0.00  0.00    +0.292 HD
ENDBRANCH  15  18
BRANCH  17  20
ATOM     20  O   UNL     1     -36.351  23.227   4.677  0.00  0.00    -0.503 OA
ATOM     21  H   UNL     1     -37.219  23.339   5.010  0.00  0.00    +0.292 HD
ENDBRANCH  17  20
ENDBRANCH   3  12
BRANCH   4  22
ATOM     22  O   UNL     1     -31.703  26.936   6.846  0.00  0.00    -0.374 OA
ATOM     23  H   UNL     1     -31.760  27.083   7.802  0.00  0.00    +0.211 HD
ENDBRANCH   4  22
BRANCH  10  24
ATOM     24  O   UNL     1     -32.497  32.870   2.012  0.00  0.00    -0.505 OA
ATOM     25  H   UNL     1     -32.592  32.579   1.125  0.00  0.00    +0.292 HD
ENDBRANCH  10  24
TORSDOF 5
ENDMDL
MODEL 9
REMARK VINA RESULT:      -6.3      2.002      2.909
REMARK  Name = 5317435
REMARK  5 active torsions:
REMARK  status: ('A' for Active; 'I' for Inactive)
REMARK    1  A    between atoms: C_3  and  C_12
REMARK    2  A    between atoms: C_4  and  O_22
REMARK    3  A    between atoms: C_10  and  O_24
REMARK    4  A    between atoms: C_15  and  O_18
REMARK    5  A    between atoms: C_17  and  O_20
REMARK                            x       y       z     vdW  Elec       q    Type
REMARK                         _______ _______ _______ _____ _____    ______ ____
ROOT
ATOM      1  O   UNL     1     -34.325  26.460   3.745  0.00  0.00    -0.472 OA
ATOM      2  O   UNL     1     -37.356  27.952   1.411  0.00  0.00    -0.289 OA
ATOM      3  C   UNL     1     -35.659  25.937   3.839  0.00  0.00    +0.222 C 
ATOM      4  C   UNL     1     -36.385  26.026   2.496  0.00  0.00    +0.217 C 
ATOM      5  C   UNL     1     -36.430  27.472   2.054  0.00  0.00    +0.207 C 
ATOM      6  C   UNL     1     -35.250  28.284   2.415  0.00  0.00    +0.071 C 
ATOM      7  C   UNL     1     -34.259  27.726   3.226  0.00  0.00    +0.145 C 
ATOM      8  C   UNL     1     -35.113  29.587   1.927  0.00  0.00    +0.009 C 
ATOM      9  C   UNL     1     -33.111  28.461   3.519  0.00  0.00    +0.074 C 
ATOM     10  C   UNL     1     -32.969  29.760   3.031  0.00  0.00    +0.137 C 
ATOM     11  C   UNL     1     -33.970  30.323   2.240  0.00  0.00    +0.037 C 
ENDROOT
BRANCH   3  12
ATOM     12  C   UNL     1     -35.549  24.502   4.322  0.00  0.00    +0.023 C 
ATOM     13  C   UNL     1     -35.567  23.457   3.401  0.00  0.00    +0.039 C 
ATOM     14  C   UNL     1     -35.430  24.235   5.684  0.00  0.00    +0.003 C 
ATOM     15  C   UNL     1     -35.467  22.139   3.844  0.00  0.00    +0.167 C 
ATOM     16  C   UNL     1     -35.329  22.917   6.128  0.00  0.00    +0.040 C 
ATOM     17  C   UNL     1     -35.348  21.868   5.208  0.00  0.00    +0.167 C 
BRANCH  15  18
ATOM     18  O   UNL     1     -35.485  21.123   2.937  0.00  0.00    -0.503 OA
ATOM     19  H   UNL     1     -36.109  21.131   2.237  0.00  0.00    +0.292 HD
ENDBRANCH  15  18
BRANCH  17  20
ATOM     20  O   UNL     1     -35.248  20.584   5.652  0.00  0.00    -0.503 OA
ATOM     21  H   UNL     1     -36.017  20.057   5.740  0.00  0.00    +0.292 HD
ENDBRANCH  17  20
ENDBRANCH   3  12
BRANCH   4  22
ATOM     22  O   UNL     1     -37.718  25.554   2.598  0.00  0.00    -0.374 OA
ATOM     23  H   UNL     1     -38.303  26.288   2.844  0.00  0.00    +0.211 HD
ENDBRANCH   4  22
BRANCH  10  24
ATOM     24  O   UNL     1     -31.851  30.480   3.327  0.00  0.00    -0.505 OA
ATOM     25  H   UNL     1     -31.514  31.096   2.706  0.00  0.00    +0.292 HD
ENDBRANCH  10  24
TORSDOF 5
ENDMDL
