MODEL 1
REMARK VINA RESULT:      -7.2      0.000      0.000
REMARK  Name = 60154783
REMARK  3 active torsions:
REMARK  status: ('A' for Active; 'I' for Inactive)
REMARK    1  A    between atoms: C_10  and  O_30
REMARK    2  A    between atoms: C_16  and  C_23
REMARK    3  A    between atoms: C_23  and  O_28
REMARK                            x       y       z     vdW  Elec       q    Type
REMARK                         _______ _______ _______ _____ _____    ______ ____
ROOT
ATOM      1  O   UNL     1     -35.521  18.758  -1.728  0.00  0.00    -0.355 OA
ATOM      2  O   UNL     1     -33.137  18.366   1.498  0.00  0.00    -0.296 OA
ATOM      3  O   UNL     1     -33.133  23.878   0.242  0.00  0.00    -0.294 OA
ATOM      4  C   UNL     1     -34.335  19.972   0.080  0.00  0.00    +0.082 C 
ATOM      5  C   UNL     1     -33.387  20.609  -0.995  0.00  0.00    +0.045 C 
ATOM      6  C   UNL     1     -34.468  20.861   1.354  0.00  0.00    +0.016 C 
ATOM      7  C   UNL     1     -33.347  19.685  -2.281  0.00  0.00    +0.029 C 
ATOM      8  C   UNL     1     -34.814  22.326   1.025  0.00  0.00    +0.061 C 
ATOM      9  C   UNL     1     -34.149  18.388  -1.958  0.00  0.00    +0.123 C 
ATOM     10  C   UNL     1     -33.696  22.090  -1.267  0.00  0.00    +0.168 C 
ATOM     11  C   UNL     1     -35.682  19.590  -0.567  0.00  0.00    +0.149 C 
ATOM     12  C   UNL     1     -35.485  20.318   2.381  0.00  0.00    +0.001 C 
ATOM     13  C   UNL     1     -33.654  18.631   0.417  0.00  0.00    +0.155 C 
ATOM     14  C   UNL     1     -34.861  23.190   2.293  0.00  0.00    +0.010 C 
ATOM     15  C   UNL     1     -33.648  17.640  -0.721  0.00  0.00    +0.094 C 
ATOM     16  C   UNL     1     -35.842  22.633   3.330  0.00  0.00    +0.036 C 
ATOM     17  C   UNL     1     -33.792  22.861   0.035  0.00  0.00    +0.177 C 
ATOM     18  C   UNL     1     -35.517  21.170   3.650  0.00  0.00    +0.003 C 
ATOM     19  C   UNL     1     -31.883  19.343  -2.629  0.00  0.00    +0.003 C 
ATOM     20  C   UNL     1     -33.976  20.319  -3.546  0.00  0.00    +0.003 C 
ENDROOT
BRANCH  16  23
ATOM     21  O   UNL     1     -36.084  25.762   5.093  0.00  0.00    -0.451 OA
ATOM     22  O   UNL     1     -37.836  24.734   4.030  0.00  0.00    -0.248 OA
ATOM     23  C   UNL     1     -35.825  23.475   4.594  0.00  0.00    +0.180 C 
ATOM     24  C   UNL     1     -34.468  24.093   4.874  0.00  0.00    +0.081 C 
ATOM     25  C   UNL     1     -36.715  24.692   4.514  0.00  0.00    +0.341 C 
ATOM     26  C   UNL     1     -34.839  25.333   5.663  0.00  0.00    +0.172 C 
ATOM     27  C   UNL     1     -33.813  26.445   5.549  0.00  0.00    +0.047 C 
BRANCH  23  28
ATOM     28  O   UNL     1     -36.252  22.709   5.707  0.00  0.00    -0.376 OA
ATOM     29  H   UNL     1     -37.063  22.229   5.477  0.00  0.00    +0.211 HD
ENDBRANCH  23  28
ENDBRANCH  16  23
BRANCH  10  30
ATOM     30  O   UNL     1     -32.652  22.660  -2.038  0.00  0.00    -0.377 OA
ATOM     31  H   UNL     1     -32.371  23.496  -1.636  0.00  0.00    +0.211 HD
ENDBRANCH  10  30
TORSDOF 3
ENDMDL
MODEL 2
REMARK VINA RESULT:      -7.0      3.448      6.651
REMARK  Name = 60154783
REMARK  3 active torsions:
REMARK  status: ('A' for Active; 'I' for Inactive)
REMARK    1  A    between atoms: C_10  and  O_30
REMARK    2  A    between atoms: C_16  and  C_23
REMARK    3  A    between atoms: C_23  and  O_28
REMARK                            x       y       z     vdW  Elec       q    Type
REMARK                         _______ _______ _______ _____ _____    ______ ____
ROOT
ATOM      1  O   UNL     1     -37.312  24.640   3.571  0.00  0.00    -0.355 OA
ATOM      2  O   UNL     1     -34.208  23.095   5.625  0.00  0.00    -0.296 OA
ATOM      3  O   UNL     1     -31.946  26.674   1.880  0.00  0.00    -0.294 OA
ATOM      4  C   UNL     1     -34.891  24.858   4.060  0.00  0.00    +0.082 C 
ATOM      5  C   UNL     1     -34.575  24.464   2.575  0.00  0.00    +0.045 C 
ATOM      6  C   UNL     1     -33.767  25.732   4.694  0.00  0.00    +0.016 C 
ATOM      7  C   UNL     1     -35.783  23.631   1.978  0.00  0.00    +0.029 C 
ATOM      8  C   UNL     1     -33.377  26.934   3.812  0.00  0.00    +0.061 C 
ATOM      9  C   UNL     1     -36.795  23.370   3.134  0.00  0.00    +0.123 C 
ATOM     10  C   UNL     1     -34.121  25.658   1.720  0.00  0.00    +0.168 C 
ATOM     11  C   UNL     1     -36.300  25.479   4.150  0.00  0.00    +0.149 C 
ATOM     12  C   UNL     1     -34.102  26.234   6.115  0.00  0.00    +0.001 C 
ATOM     13  C   UNL     1     -35.002  23.501   4.782  0.00  0.00    +0.155 C 
ATOM     14  C   UNL     1     -32.215  27.727   4.427  0.00  0.00    +0.010 C 
ATOM     15  C   UNL     1     -36.183  22.667   4.348  0.00  0.00    +0.094 C 
ATOM     16  C   UNL     1     -32.531  28.195   5.851  0.00  0.00    +0.036 C 
ATOM     17  C   UNL     1     -33.021  26.428   2.424  0.00  0.00    +0.177 C 
ATOM     18  C   UNL     1     -32.938  27.009   6.731  0.00  0.00    +0.003 C 
ATOM     19  C   UNL     1     -35.261  22.297   1.404  0.00  0.00    +0.003 C 
ATOM     20  C   UNL     1     -36.551  24.344   0.839  0.00  0.00    +0.003 C 
ENDROOT
BRANCH  16  23
ATOM     21  O   UNL     1     -29.649  30.340   5.631  0.00  0.00    -0.451 OA
ATOM     22  O   UNL     1     -31.812  31.038   5.324  0.00  0.00    -0.248 OA
ATOM     23  C   UNL     1     -31.344  28.927   6.453  0.00  0.00    +0.180 C 
ATOM     24  C   UNL     1     -30.047  28.151   6.331  0.00  0.00    +0.081 C 
ATOM     25  C   UNL     1     -31.010  30.214   5.736  0.00  0.00    +0.341 C 
ATOM     26  C   UNL     1     -29.012  29.258   6.324  0.00  0.00    +0.172 C 
ATOM     27  C   UNL     1     -27.730  28.875   5.607  0.00  0.00    +0.047 C 
BRANCH  23  28
ATOM     28  O   UNL     1     -31.595  29.250   7.809  0.00  0.00    -0.376 OA
ATOM     29  H   UNL     1     -30.758  29.453   8.254  0.00  0.00    +0.211 HD
ENDBRANCH  23  28
ENDBRANCH  16  23
BRANCH  10  30
ATOM     30  O   UNL     1     -33.607  25.189   0.484  0.00  0.00    -0.377 OA
ATOM     31  H   UNL     1     -33.545  25.927  -0.141  0.00  0.00    +0.211 HD
ENDBRANCH  10  30
TORSDOF 3
ENDMDL
MODEL 3
REMARK VINA RESULT:      -6.9      1.814      7.565
REMARK  Name = 60154783
REMARK  3 active torsions:
REMARK  status: ('A' for Active; 'I' for Inactive)
REMARK    1  A    between atoms: C_10  and  O_30
REMARK    2  A    between atoms: C_16  and  C_23
REMARK    3  A    between atoms: C_23  and  O_28
REMARK                            x       y       z     vdW  Elec       q    Type
REMARK                         _______ _______ _______ _____ _____    ______ ____
ROOT
ATOM      1  O   UNL     1     -36.555  26.325   2.843  0.00  0.00    -0.355 OA
ATOM      2  O   UNL     1     -33.247  24.770   1.147  0.00  0.00    -0.296 OA
ATOM      3  O   UNL     1     -35.135  20.830   4.732  0.00  0.00    -0.294 OA
ATOM      4  C   UNL     1     -35.224  24.260   2.509  0.00  0.00    +0.082 C 
ATOM      5  C   UNL     1     -34.882  24.255   4.040  0.00  0.00    +0.045 C 
ATOM      6  C   UNL     1     -35.175  22.832   1.886  0.00  0.00    +0.016 C 
ATOM      7  C   UNL     1     -35.011  25.725   4.617  0.00  0.00    +0.029 C 
ATOM      8  C   UNL     1     -35.989  21.802   2.690  0.00  0.00    +0.061 C 
ATOM      9  C   UNL     1     -35.285  26.682   3.418  0.00  0.00    +0.123 C 
ATOM     10  C   UNL     1     -35.650  23.178   4.823  0.00  0.00    +0.168 C 
ATOM     11  C   UNL     1     -36.552  25.008   2.269  0.00  0.00    +0.149 C 
ATOM     12  C   UNL     1     -35.620  22.788   0.408  0.00  0.00    +0.001 C 
ATOM     13  C   UNL     1     -34.136  25.163   1.896  0.00  0.00    +0.155 C 
ATOM     14  C   UNL     1     -35.856  20.393   2.095  0.00  0.00    +0.010 C 
ATOM     15  C   UNL     1     -34.230  26.611   2.313  0.00  0.00    +0.094 C 
ATOM     16  C   UNL     1     -36.262  20.354   0.618  0.00  0.00    +0.036 C 
ATOM     17  C   UNL     1     -35.526  21.832   4.137  0.00  0.00    +0.177 C 
ATOM     18  C   UNL     1     -35.469  21.388  -0.187  0.00  0.00    +0.003 C 
ATOM     19  C   UNL     1     -33.702  26.117   5.334  0.00  0.00    +0.003 C 
ATOM     20  C   UNL     1     -36.160  25.914   5.637  0.00  0.00    +0.003 C 
ENDROOT
BRANCH  16  23
ATOM     21  O   UNL     1     -34.312  17.823  -1.040  0.00  0.00    -0.451 OA
ATOM     22  O   UNL     1     -33.877  18.625   1.064  0.00  0.00    -0.248 OA
ATOM     23  C   UNL     1     -36.066  18.962   0.043  0.00  0.00    +0.180 C 
ATOM     24  C   UNL     1     -36.344  18.893  -1.447  0.00  0.00    +0.081 C 
ATOM     25  C   UNL     1     -34.637  18.480   0.118  0.00  0.00    +0.341 C 
ATOM     26  C   UNL     1     -35.470  17.734  -1.882  0.00  0.00    +0.172 C 
ATOM     27  C   UNL     1     -35.051  17.813  -3.339  0.00  0.00    +0.047 C 
BRANCH  23  28
ATOM     28  O   UNL     1     -36.868  18.021   0.734  0.00  0.00    -0.376 OA
ATOM     29  H   UNL     1     -36.483  17.136   0.639  0.00  0.00    +0.211 HD
ENDBRANCH  23  28
ENDBRANCH  16  23
BRANCH  10  30
ATOM     30  O   UNL     1     -35.104  23.059   6.126  0.00  0.00    -0.377 OA
ATOM     31  H   UNL     1     -35.730  22.587   6.697  0.00  0.00    +0.211 HD
ENDBRANCH  10  30
TORSDOF 3
ENDMDL
MODEL 4
REMARK VINA RESULT:      -6.7      1.988      7.327
REMARK  Name = 60154783
REMARK  3 active torsions:
REMARK  status: ('A' for Active; 'I' for Inactive)
REMARK    1  A    between atoms: C_10  and  O_30
REMARK    2  A    between atoms: C_16  and  C_23
REMARK    3  A    between atoms: C_23  and  O_28
REMARK                            x       y       z     vdW  Elec       q    Type
REMARK                         _______ _______ _______ _____ _____    ______ ____
ROOT
ATOM      1  O   UNL     1     -37.209  25.335   1.047  0.00  0.00    -0.355 OA
ATOM      2  O   UNL     1     -33.193  25.265   1.381  0.00  0.00    -0.296 OA
ATOM      3  O   UNL     1     -35.027  20.537   3.878  0.00  0.00    -0.294 OA
ATOM      4  C   UNL     1     -35.243  23.934   1.611  0.00  0.00    +0.082 C 
ATOM      5  C   UNL     1     -35.731  23.881   3.101  0.00  0.00    +0.045 C 
ATOM      6  C   UNL     1     -34.375  22.697   1.227  0.00  0.00    +0.016 C 
ATOM      7  C   UNL     1     -36.653  25.133   3.401  0.00  0.00    +0.029 C 
ATOM      8  C   UNL     1     -35.042  21.361   1.604  0.00  0.00    +0.061 C 
ATOM      9  C   UNL     1     -36.623  26.056   2.146  0.00  0.00    +0.123 C 
ATOM     10  C   UNL     1     -36.333  22.521   3.488  0.00  0.00    +0.168 C 
ATOM     11  C   UNL     1     -36.442  24.179   0.673  0.00  0.00    +0.149 C 
ATOM     12  C   UNL     1     -33.977  22.661  -0.265  0.00  0.00    +0.001 C 
ATOM     13  C   UNL     1     -34.409  25.229   1.546  0.00  0.00    +0.155 C 
ATOM     14  C   UNL     1     -34.129  20.168   1.285  0.00  0.00    +0.010 C 
ATOM     15  C   UNL     1     -35.217  26.491   1.728  0.00  0.00    +0.094 C 
ATOM     16  C   UNL     1     -33.702  20.151  -0.187  0.00  0.00    +0.036 C 
ATOM     17  C   UNL     1     -35.404  21.393   3.080  0.00  0.00    +0.177 C 
ATOM     18  C   UNL     1     -33.054  21.483  -0.576  0.00  0.00    +0.003 C 
ATOM     19  C   UNL     1     -36.119  25.885   4.639  0.00  0.00    +0.003 C 
ATOM     20  C   UNL     1     -38.134  24.784   3.688  0.00  0.00    +0.003 C 
ENDROOT
BRANCH  16  23
ATOM     21  O   UNL     1     -32.040  17.093   0.731  0.00  0.00    -0.451 OA
ATOM     22  O   UNL     1     -34.292  17.279   0.344  0.00  0.00    -0.248 OA
ATOM     23  C   UNL     1     -32.756  18.994  -0.459  0.00  0.00    +0.180 C 
ATOM     24  C   UNL     1     -31.361  19.230   0.088  0.00  0.00    +0.081 C 
ATOM     25  C   UNL     1     -33.157  17.717   0.240  0.00  0.00    +0.341 C 
ATOM     26  C   UNL     1     -30.869  17.817   0.328  0.00  0.00    +0.172 C 
ATOM     27  C   UNL     1     -29.811  17.726   1.412  0.00  0.00    +0.047 C 
BRANCH  23  28
ATOM     28  O   UNL     1     -32.696  18.718  -1.847  0.00  0.00    -0.376 OA
ATOM     29  H   UNL     1     -33.260  17.955  -2.049  0.00  0.00    +0.211 HD
ENDBRANCH  23  28
ENDBRANCH  16  23
BRANCH  10  30
ATOM     30  O   UNL     1     -36.505  22.460   4.894  0.00  0.00    -0.377 OA
ATOM     31  H   UNL     1     -35.693  22.755   5.333  0.00  0.00    +0.211 HD
ENDBRANCH  10  30
TORSDOF 3
ENDMDL
MODEL 5
REMARK VINA RESULT:      -6.7      1.677      7.291
REMARK  Name = 60154783
REMARK  3 active torsions:
REMARK  status: ('A' for Active; 'I' for Inactive)
REMARK    1  A    between atoms: C_10  and  O_30
REMARK    2  A    between atoms: C_16  and  C_23
REMARK    3  A    between atoms: C_23  and  O_28
REMARK                            x       y       z     vdW  Elec       q    Type
REMARK                         _______ _______ _______ _____ _____    ______ ____
ROOT
ATOM      1  O   UNL     1     -33.766  25.190   5.272  0.00  0.00    -0.355 OA
ATOM      2  O   UNL     1     -37.527  24.408   4.055  0.00  0.00    -0.296 OA
ATOM      3  O   UNL     1     -34.315  24.115  -0.587  0.00  0.00    -0.294 OA
ATOM      4  C   UNL     1     -35.160  24.338   3.407  0.00  0.00    +0.082 C 
ATOM      5  C   UNL     1     -34.759  25.594   2.558  0.00  0.00    +0.045 C 
ATOM      6  C   UNL     1     -35.532  23.114   2.516  0.00  0.00    +0.016 C 
ATOM      7  C   UNL     1     -34.336  26.775   3.525  0.00  0.00    +0.029 C 
ATOM      8  C   UNL     1     -34.469  22.812   1.444  0.00  0.00    +0.061 C 
ATOM      9  C   UNL     1     -34.618  26.314   4.987  0.00  0.00    +0.123 C 
ATOM     10  C   UNL     1     -33.748  25.270   1.447  0.00  0.00    +0.168 C 
ATOM     11  C   UNL     1     -34.072  24.045   4.460  0.00  0.00    +0.149 C 
ATOM     12  C   UNL     1     -35.819  21.829   3.322  0.00  0.00    +0.001 C 
ATOM     13  C   UNL     1     -36.382  24.819   4.215  0.00  0.00    +0.155 C 
ATOM     14  C   UNL     1     -34.902  21.653   0.535  0.00  0.00    +0.010 C 
ATOM     15  C   UNL     1     -36.065  25.885   5.236  0.00  0.00    +0.094 C 
ATOM     16  C   UNL     1     -35.223  20.386   1.336  0.00  0.00    +0.036 C 
ATOM     17  C   UNL     1     -34.213  24.074   0.637  0.00  0.00    +0.177 C 
ATOM     18  C   UNL     1     -36.267  20.681   2.417  0.00  0.00    +0.003 C 
ATOM     19  C   UNL     1     -35.156  28.039   3.189  0.00  0.00    +0.003 C 
ATOM     20  C   UNL     1     -32.842  27.170   3.440  0.00  0.00    +0.003 C 
ENDROOT
BRANCH  16  23
ATOM     21  O   UNL     1     -34.730  17.963  -1.280  0.00  0.00    -0.451 OA
ATOM     22  O   UNL     1     -33.762  17.846   0.795  0.00  0.00    -0.248 OA
ATOM     23  C   UNL     1     -35.702  19.276   0.417  0.00  0.00    +0.180 C 
ATOM     24  C   UNL     1     -36.149  19.783  -0.941  0.00  0.00    +0.081 C 
ATOM     25  C   UNL     1     -34.613  18.298   0.043  0.00  0.00    +0.341 C 
ATOM     26  C   UNL     1     -35.904  18.580  -1.829  0.00  0.00    +0.172 C 
ATOM     27  C   UNL     1     -35.659  18.947  -3.281  0.00  0.00    +0.047 C 
BRANCH  23  28
ATOM     28  O   UNL     1     -36.743  18.538   1.030  0.00  0.00    -0.376 OA
ATOM     29  H   UNL     1     -37.522  18.537   0.453  0.00  0.00    +0.211 HD
ENDBRANCH  23  28
ENDBRANCH  16  23
BRANCH  10  30
ATOM     30  O   UNL     1     -33.636  26.377   0.568  0.00  0.00    -0.377 OA
ATOM     31  H   UNL     1     -33.472  26.060  -0.333  0.00  0.00    +0.211 HD
ENDBRANCH  10  30
TORSDOF 3
ENDMDL
MODEL 6
REMARK VINA RESULT:      -6.6      2.268      3.617
REMARK  Name = 60154783
REMARK  3 active torsions:
REMARK  status: ('A' for Active; 'I' for Inactive)
REMARK    1  A    between atoms: C_10  and  O_30
REMARK    2  A    between atoms: C_16  and  C_23
REMARK    3  A    between atoms: C_23  and  O_28
REMARK                            x       y       z     vdW  Elec       q    Type
REMARK                         _______ _______ _______ _____ _____    ______ ____
ROOT
ATOM      1  O   UNL     1     -37.017  20.219  -2.716  0.00  0.00    -0.355 OA
ATOM      2  O   UNL     1     -39.807  20.294   0.191  0.00  0.00    -0.296 OA
ATOM      3  O   UNL     1     -34.819  20.195   2.848  0.00  0.00    -0.294 OA
ATOM      4  C   UNL     1     -37.414  20.553  -0.292  0.00  0.00    +0.082 C 
ATOM      5  C   UNL     1     -36.622  19.232   0.001  0.00  0.00    +0.045 C 
ATOM      6  C   UNL     1     -37.372  21.549   0.907  0.00  0.00    +0.016 C 
ATOM      7  C   UNL     1     -36.656  18.298  -1.277  0.00  0.00    +0.029 C 
ATOM      8  C   UNL     1     -35.943  21.796   1.427  0.00  0.00    +0.061 C 
ATOM      9  C   UNL     1     -37.600  18.963  -2.325  0.00  0.00    +0.123 C 
ATOM     10  C   UNL     1     -35.222  19.488   0.583  0.00  0.00    +0.168 C 
ATOM     11  C   UNL     1     -36.950  21.160  -1.632  0.00  0.00    +0.149 C 
ATOM     12  C   UNL     1     -38.044  22.906   0.606  0.00  0.00    +0.001 C 
ATOM     13  C   UNL     1     -38.854  20.066  -0.548  0.00  0.00    +0.155 C 
ATOM     14  C   UNL     1     -35.944  22.718   2.655  0.00  0.00    +0.010 C 
ATOM     15  C   UNL     1     -39.010  19.240  -1.802  0.00  0.00    +0.094 C 
ATOM     16  C   UNL     1     -36.643  24.051   2.370  0.00  0.00    +0.036 C 
ATOM     17  C   UNL     1     -35.299  20.457   1.747  0.00  0.00    +0.177 C 
ATOM     18  C   UNL     1     -38.059  23.815   1.836  0.00  0.00    +0.003 C 
ATOM     19  C   UNL     1     -37.182  16.901  -0.885  0.00  0.00    +0.003 C 
ATOM     20  C   UNL     1     -35.281  18.089  -1.955  0.00  0.00    +0.003 C 
ENDROOT
BRANCH  16  23
ATOM     21  O   UNL     1     -35.551  26.849   4.354  0.00  0.00    -0.451 OA
ATOM     22  O   UNL     1     -36.735  27.029   2.399  0.00  0.00    -0.248 OA
ATOM     23  C   UNL     1     -36.678  24.917   3.617  0.00  0.00    +0.180 C 
ATOM     24  C   UNL     1     -35.619  24.534   4.633  0.00  0.00    +0.081 C 
ATOM     25  C   UNL     1     -36.347  26.366   3.349  0.00  0.00    +0.341 C 
ATOM     26  C   UNL     1     -35.389  25.842   5.363  0.00  0.00    +0.172 C 
ATOM     27  C   UNL     1     -34.005  25.950   5.977  0.00  0.00    +0.047 C 
BRANCH  23  28
ATOM     28  O   UNL     1     -37.963  24.879   4.212  0.00  0.00    -0.376 OA
ATOM     29  H   UNL     1     -37.911  25.223   5.117  0.00  0.00    +0.211 HD
ENDBRANCH  23  28
ENDBRANCH  16  23
BRANCH  10  30
ATOM     30  O   UNL     1     -34.677  18.270   1.062  0.00  0.00    -0.377 OA
ATOM     31  H   UNL     1     -34.647  18.287   2.031  0.00  0.00    +0.211 HD
ENDBRANCH  10  30
TORSDOF 3
ENDMDL
MODEL 7
REMARK VINA RESULT:      -6.6      3.550      8.170
REMARK  Name = 60154783
REMARK  3 active torsions:
REMARK  status: ('A' for Active; 'I' for Inactive)
REMARK    1  A    between atoms: C_10  and  O_30
REMARK    2  A    between atoms: C_16  and  C_23
REMARK    3  A    between atoms: C_23  and  O_28
REMARK                            x       y       z     vdW  Elec       q    Type
REMARK                         _______ _______ _______ _____ _____    ______ ____
ROOT
ATOM      1  O   UNL     1     -31.497  29.848   4.892  0.00  0.00    -0.355 OA
ATOM      2  O   UNL     1     -35.064  29.632   3.028  0.00  0.00    -0.296 OA
ATOM      3  O   UNL     1     -31.996  25.348   0.983  0.00  0.00    -0.294 OA
ATOM      4  C   UNL     1     -32.967  28.438   3.478  0.00  0.00    +0.082 C 
ATOM      5  C   UNL     1     -31.949  28.596   2.295  0.00  0.00    +0.045 C 
ATOM      6  C   UNL     1     -33.797  27.123   3.374  0.00  0.00    +0.016 C 
ATOM      7  C   UNL     1     -31.100  29.918   2.499  0.00  0.00    +0.029 C 
ATOM      8  C   UNL     1     -32.918  25.878   3.154  0.00  0.00    +0.061 C 
ATOM      9  C   UNL     1     -31.688  30.674   3.729  0.00  0.00    +0.123 C 
ATOM     10  C   UNL     1     -31.123  27.326   2.040  0.00  0.00    +0.168 C 
ATOM     11  C   UNL     1     -32.239  28.620   4.826  0.00  0.00    +0.149 C 
ATOM     12  C   UNL     1     -34.725  26.881   4.585  0.00  0.00    +0.001 C 
ATOM     13  C   UNL     1     -33.878  29.674   3.343  0.00  0.00    +0.155 C 
ATOM     14  C   UNL     1     -33.770  24.613   2.977  0.00  0.00    +0.010 C 
ATOM     15  C   UNL     1     -33.181  30.985   3.611  0.00  0.00    +0.094 C 
ATOM     16  C   UNL     1     -34.718  24.390   4.161  0.00  0.00    +0.036 C 
ATOM     17  C   UNL     1     -32.029  26.113   1.944  0.00  0.00    +0.177 C 
ATOM     18  C   UNL     1     -35.584  25.631   4.398  0.00  0.00    +0.003 C 
ATOM     19  C   UNL     1     -31.193  30.794   1.231  0.00  0.00    +0.003 C 
ATOM     20  C   UNL     1     -29.596  29.678   2.774  0.00  0.00    +0.003 C 
ENDROOT
BRANCH  16  23
ATOM     21  O   UNL     1     -35.321  20.842   4.211  0.00  0.00    -0.451 OA
ATOM     22  O   UNL     1     -35.067  22.141   6.083  0.00  0.00    -0.248 OA
ATOM     23  C   UNL     1     -35.586  23.165   3.932  0.00  0.00    +0.180 C 
ATOM     24  C   UNL     1     -35.345  22.513   2.584  0.00  0.00    +0.081 C 
ATOM     25  C   UNL     1     -35.287  22.034   4.886  0.00  0.00    +0.341 C 
ATOM     26  C   UNL     1     -35.725  21.072   2.854  0.00  0.00    +0.172 C 
ATOM     27  C   UNL     1     -35.025  20.085   1.937  0.00  0.00    +0.047 C 
BRANCH  23  28
ATOM     28  O   UNL     1     -36.956  23.494   4.078  0.00  0.00    -0.376 OA
ATOM     29  H   UNL     1     -37.282  23.895   3.257  0.00  0.00    +0.211 HD
ENDBRANCH  23  28
ENDBRANCH  16  23
BRANCH  10  30
ATOM     30  O   UNL     1     -30.427  27.451   0.811  0.00  0.00    -0.377 OA
ATOM     31  H   UNL     1     -29.549  27.829   0.973  0.00  0.00    +0.211 HD
ENDBRANCH  10  30
TORSDOF 3
ENDMDL
MODEL 8
REMARK VINA RESULT:      -6.5      3.748      7.953
REMARK  Name = 60154783
REMARK  3 active torsions:
REMARK  status: ('A' for Active; 'I' for Inactive)
REMARK    1  A    between atoms: C_10  and  O_30
REMARK    2  A    between atoms: C_16  and  C_23
REMARK    3  A    between atoms: C_23  and  O_28
REMARK                            x       y       z     vdW  Elec       q    Type
REMARK                         _______ _______ _______ _____ _____    ______ ____
ROOT
ATOM      1  O   UNL     1     -31.172  28.364   2.421  0.00  0.00    -0.355 OA
ATOM      2  O   UNL     1     -33.131  27.479   5.831  0.00  0.00    -0.296 OA
ATOM      3  O   UNL     1     -37.076  27.635   1.785  0.00  0.00    -0.294 OA
ATOM      4  C   UNL     1     -33.313  27.565   3.384  0.00  0.00    +0.082 C 
ATOM      5  C   UNL     1     -34.002  28.890   2.905  0.00  0.00    +0.045 C 
ATOM      6  C   UNL     1     -34.322  26.383   3.507  0.00  0.00    +0.016 C 
ATOM      7  C   UNL     1     -32.910  30.027   2.744  0.00  0.00    +0.029 C 
ATOM      8  C   UNL     1     -35.184  26.201   2.244  0.00  0.00    +0.061 C 
ATOM      9  C   UNL     1     -31.556  29.461   3.269  0.00  0.00    +0.123 C 
ATOM     10  C   UNL     1     -34.913  28.686   1.684  0.00  0.00    +0.168 C 
ATOM     11  C   UNL     1     -32.087  27.259   2.499  0.00  0.00    +0.149 C 
ATOM     12  C   UNL     1     -33.655  25.037   3.865  0.00  0.00    +0.001 C 
ATOM     13  C   UNL     1     -32.732  27.934   4.763  0.00  0.00    +0.155 C 
ATOM     14  C   UNL     1     -36.219  25.082   2.427  0.00  0.00    +0.010 C 
ATOM     15  C   UNL     1     -31.614  28.948   4.709  0.00  0.00    +0.094 C 
ATOM     16  C   UNL     1     -35.563  23.753   2.817  0.00  0.00    +0.036 C 
ATOM     17  C   UNL     1     -35.859  27.523   1.916  0.00  0.00    +0.177 C 
ATOM     18  C   UNL     1     -34.689  23.929   4.063  0.00  0.00    +0.003 C 
ATOM     19  C   UNL     1     -33.331  31.268   3.559  0.00  0.00    +0.003 C 
ATOM     20  C   UNL     1     -32.685  30.497   1.287  0.00  0.00    +0.003 C 
ENDROOT
BRANCH  16  23
ATOM     21  O   UNL     1     -37.479  20.882   1.798  0.00  0.00    -0.451 OA
ATOM     22  O   UNL     1     -35.227  20.853   2.222  0.00  0.00    -0.248 OA
ATOM     23  C   UNL     1     -36.615  22.681   3.047  0.00  0.00    +0.180 C 
ATOM     24  C   UNL     1     -37.973  23.055   2.485  0.00  0.00    +0.081 C 
ATOM     25  C   UNL     1     -36.320  21.390   2.321  0.00  0.00    +0.341 C 
ATOM     26  C   UNL     1     -38.587  21.699   2.203  0.00  0.00    +0.172 C 
ATOM     27  C   UNL     1     -39.630  21.731   1.101  0.00  0.00    +0.047 C 
BRANCH  23  28
ATOM     28  O   UNL     1     -36.722  22.378   4.426  0.00  0.00    -0.376 OA
ATOM     29  H   UNL     1     -35.956  21.851   4.702  0.00  0.00    +0.211 HD
ENDBRANCH  23  28
ENDBRANCH  16  23
BRANCH  10  30
ATOM     30  O   UNL     1     -35.694  29.850   1.474  0.00  0.00    -0.377 OA
ATOM     31  H   UNL     1     -35.642  30.421   2.256  0.00  0.00    +0.211 HD
ENDBRANCH  10  30
TORSDOF 3
ENDMDL
MODEL 9
REMARK VINA RESULT:      -6.4      3.280      4.708
REMARK  Name = 60154783
REMARK  3 active torsions:
REMARK  status: ('A' for Active; 'I' for Inactive)
REMARK    1  A    between atoms: C_10  and  O_30
REMARK    2  A    between atoms: C_16  and  C_23
REMARK    3  A    between atoms: C_23  and  O_28
REMARK                            x       y       z     vdW  Elec       q    Type
REMARK                         _______ _______ _______ _____ _____    ______ ____
ROOT
ATOM      1  O   UNL     1     -38.875  20.430  -3.022  0.00  0.00    -0.355 OA
ATOM      2  O   UNL     1     -41.396  20.708   0.110  0.00  0.00    -0.296 OA
ATOM      3  O   UNL     1     -36.257  19.944   2.335  0.00  0.00    -0.294 OA
ATOM      4  C   UNL     1     -39.036  20.713  -0.564  0.00  0.00    +0.082 C 
ATOM      5  C   UNL     1     -38.381  19.301  -0.377  0.00  0.00    +0.045 C 
ATOM      6  C   UNL     1     -38.782  21.651   0.655  0.00  0.00    +0.016 C 
ATOM      7  C   UNL     1     -38.625  18.426  -1.675  0.00  0.00    +0.029 C 
ATOM      8  C   UNL     1     -37.298  21.715   1.060  0.00  0.00    +0.061 C 
ATOM      9  C   UNL     1     -39.566  19.233  -2.619  0.00  0.00    +0.123 C 
ATOM     10  C   UNL     1     -36.919  19.374   0.093  0.00  0.00    +0.168 C 
ATOM     11  C   UNL     1     -38.613  21.314  -1.921  0.00  0.00    +0.149 C 
ATOM     12  C   UNL     1     -39.315  23.086   0.452  0.00  0.00    +0.001 C 
ATOM     13  C   UNL     1     -40.538  20.402  -0.712  0.00  0.00    +0.155 C 
ATOM     14  C   UNL     1     -37.094  22.583   2.310  0.00  0.00    +0.010 C 
ATOM     15  C   UNL     1     -40.889  19.648  -1.972  0.00  0.00    +0.094 C 
ATOM     16  C   UNL     1     -37.654  23.997   2.124  0.00  0.00    +0.036 C 
ATOM     17  C   UNL     1     -36.790  20.301   1.286  0.00  0.00    +0.177 C 
ATOM     18  C   UNL     1     -39.126  23.943   1.704  0.00  0.00    +0.003 C 
ATOM     19  C   UNL     1     -39.277  17.084  -1.280  0.00  0.00    +0.003 C 
ATOM     20  C   UNL     1     -37.342  18.089  -2.471  0.00  0.00    +0.003 C 
ENDROOT
BRANCH  16  23
ATOM     21  O   UNL     1     -36.050  26.534   4.111  0.00  0.00    -0.451 OA
ATOM     22  O   UNL     1     -37.308  26.954   2.240  0.00  0.00    -0.248 OA
ATOM     23  C   UNL     1     -37.489  24.813   3.394  0.00  0.00    +0.180 C 
ATOM     24  C   UNL     1     -36.439  24.244   4.330  0.00  0.00    +0.081 C 
ATOM     25  C   UNL     1     -36.966  26.207   3.145  0.00  0.00    +0.341 C 
ATOM     26  C   UNL     1     -35.977  25.478   5.079  0.00  0.00    +0.172 C 
ATOM     27  C   UNL     1     -34.559  25.362   5.607  0.00  0.00    +0.047 C 
BRANCH  23  28
ATOM     28  O   UNL     1     -38.728  24.939   4.068  0.00  0.00    -0.376 OA
ATOM     29  H   UNL     1     -38.931  24.110   4.530  0.00  0.00    +0.211 HD
ENDBRANCH  23  28
ENDBRANCH  16  23
BRANCH  10  30
ATOM     30  O   UNL     1     -36.482  18.085   0.489  0.00  0.00    -0.377 OA
ATOM     31  H   UNL     1     -36.850  17.419  -0.112  0.00  0.00    +0.211 HD
ENDBRANCH  10  30
TORSDOF 3
ENDMDL
