MODEL 1
REMARK VINA RESULT:      -5.7      0.000      0.000
REMARK  Name = 195500
REMARK  9 active torsions:
REMARK  status: ('A' for Active; 'I' for Inactive)
REMARK    1  A    between atoms: N_1  and  S_3
REMARK    2  A    between atoms: N_1  and  C_13
REMARK    3  A    between atoms: S_3  and  C_6
REMARK    4  A    between atoms: C_6  and  C_7
REMARK    5  A    between atoms: C_7  and  N_9
REMARK    6  A    between atoms: C_13  and  C_15
REMARK    7  A    between atoms: C_13  and  C_18
REMARK    8  A    between atoms: C_15  and  O_16
REMARK    9  A    between atoms: C_18  and  C_19
REMARK                            x       y       z     vdW  Elec       q    Type
REMARK                         _______ _______ _______ _____ _____    ______ ____
ROOT
ATOM      1  N   UNL     1     -36.961  22.431   3.515  0.00  0.00    -0.174 NA
ATOM      2  H   UNL     1     -37.905  22.171   3.800  0.00  0.00    +0.149 HD
ENDROOT
BRANCH   1   3
ATOM      3  S   UNL     1     -36.853  24.127   3.633  0.00  0.00    +0.043 S 
ATOM      4  O   UNL     1     -38.157  24.687   3.930  0.00  0.00    -0.157 OA
ATOM      5  O   UNL     1     -36.076  24.612   2.508  0.00  0.00    -0.157 OA
BRANCH   3   6
ATOM      6  C   UNL     1     -35.842  24.291   5.087  0.00  0.00    +0.190 C 
BRANCH   6   7
ATOM      7  C   UNL     1     -35.818  25.713   5.615  0.00  0.00    +0.116 C 
BRANCH   7   9
ATOM      8  O   UNL     1     -33.228  26.490   4.561  0.00  0.00    -0.275 OA
ATOM      9  N   UNL     1     -35.549  26.672   4.578  0.00  0.00    -0.303 N 
ATOM     10  C   UNL     1     -34.270  26.982   4.136  0.00  0.00    +0.223 C 
ATOM     11  C   UNL     1     -34.275  27.999   3.026  0.00  0.00    +0.095 C 
ATOM     12  H   UNL     1     -36.313  27.133   4.161  0.00  0.00    +0.149 HD
ENDBRANCH   7   9
ENDBRANCH   6   7
ENDBRANCH   3   6
ENDBRANCH   1   3
BRANCH   1  13
ATOM     13  C   UNL     1     -36.709  21.785   2.205  0.00  0.00    +0.178 C 
BRANCH  13  15
ATOM     14  O   UNL     1     -39.129  21.525   2.178  0.00  0.00    -0.249 OA
ATOM     15  C   UNL     1     -38.058  21.499   1.585  0.00  0.00    +0.333 C 
BRANCH  15  16
ATOM     16  O   UNL     1     -37.892  21.207   0.260  0.00  0.00    -0.443 OA
ATOM     17  C   UNL     1     -38.610  20.065  -0.217  0.00  0.00    +0.256 C 
ENDBRANCH  15  16
ENDBRANCH  13  15
BRANCH  13  18
ATOM     18  C   UNL     1     -35.915  20.493   2.406  0.00  0.00    +0.055 C 
BRANCH  18  19
ATOM     19  C   UNL     1     -34.653  20.446   1.580  0.00  0.00    -0.020 C 
ATOM     20  C   UNL     1     -34.300  21.536   0.782  0.00  0.00    -0.004 C 
ATOM     21  C   UNL     1     -33.838  19.315   1.613  0.00  0.00    -0.004 C 
ATOM     22  C   UNL     1     -33.134  21.494   0.019  0.00  0.00    -0.000 C 
ATOM     23  C   UNL     1     -32.671  19.274   0.850  0.00  0.00    -0.000 C 
ATOM     24  C   UNL     1     -32.319  20.363   0.053  0.00  0.00    -0.000 C 
ENDBRANCH  18  19
ENDBRANCH  13  18
ENDBRANCH   1  13
TORSDOF 9
ENDMDL
MODEL 2
REMARK VINA RESULT:      -5.6      3.631      5.393
REMARK  Name = 195500
REMARK  9 active torsions:
REMARK  status: ('A' for Active; 'I' for Inactive)
REMARK    1  A    between atoms: N_1  and  S_3
REMARK    2  A    between atoms: N_1  and  C_13
REMARK    3  A    between atoms: S_3  and  C_6
REMARK    4  A    between atoms: C_6  and  C_7
REMARK    5  A    between atoms: C_7  and  N_9
REMARK    6  A    between atoms: C_13  and  C_15
REMARK    7  A    between atoms: C_13  and  C_18
REMARK    8  A    between atoms: C_15  and  O_16
REMARK    9  A    between atoms: C_18  and  C_19
REMARK                            x       y       z     vdW  Elec       q    Type
REMARK                         _______ _______ _______ _____ _____    ______ ____
ROOT
ATOM      1  N   UNL     1     -35.155  27.123   4.132  0.00  0.00    -0.174 NA
ATOM      2  H   UNL     1     -35.239  28.046   3.707  0.00  0.00    +0.149 HD
ENDROOT
BRANCH   1   3
ATOM      3  S   UNL     1     -33.501  26.866   4.446  0.00  0.00    +0.043 S 
ATOM      4  O   UNL     1     -33.117  25.533   4.021  0.00  0.00    -0.157 OA
ATOM      5  O   UNL     1     -33.216  27.327   5.791  0.00  0.00    -0.157 OA
BRANCH   3   6
ATOM      6  C   UNL     1     -32.767  28.031   3.320  0.00  0.00    +0.190 C 
BRANCH   6   7
ATOM      7  C   UNL     1     -33.059  29.468   3.706  0.00  0.00    +0.116 C 
BRANCH   7   9
ATOM      8  O   UNL     1     -33.806  32.093   2.719  0.00  0.00    -0.275 OA
ATOM      9  N   UNL     1     -34.357  29.896   3.262  0.00  0.00    -0.303 N 
ATOM     10  C   UNL     1     -34.624  31.179   2.804  0.00  0.00    +0.223 C 
ATOM     11  C   UNL     1     -36.057  31.353   2.379  0.00  0.00    +0.095 C 
ATOM     12  H   UNL     1     -35.096  29.246   3.286  0.00  0.00    +0.149 HD
ENDBRANCH   7   9
ENDBRANCH   6   7
ENDBRANCH   3   6
ENDBRANCH   1   3
BRANCH   1  13
ATOM     13  C   UNL     1     -35.875  26.172   3.252  0.00  0.00    +0.178 C 
BRANCH  13  15
ATOM     14  O   UNL     1     -37.846  26.876   2.011  0.00  0.00    -0.249 OA
ATOM     15  C   UNL     1     -36.652  26.996   2.250  0.00  0.00    +0.333 C 
BRANCH  15  16
ATOM     16  O   UNL     1     -35.809  27.895   1.656  0.00  0.00    -0.443 OA
ATOM     17  C   UNL     1     -35.748  27.834   0.228  0.00  0.00    +0.256 C 
ENDBRANCH  15  16
ENDBRANCH  13  15
BRANCH  13  18
ATOM     18  C   UNL     1     -36.814  25.299   4.087  0.00  0.00    +0.055 C 
BRANCH  18  19
ATOM     19  C   UNL     1     -36.203  23.971   4.459  0.00  0.00    -0.020 C 
ATOM     20  C   UNL     1     -35.646  23.788   5.725  0.00  0.00    -0.004 C 
ATOM     21  C   UNL     1     -36.195  22.924   3.537  0.00  0.00    -0.004 C 
ATOM     22  C   UNL     1     -35.082  22.561   6.070  0.00  0.00    -0.000 C 
ATOM     23  C   UNL     1     -35.631  21.695   3.882  0.00  0.00    -0.000 C 
ATOM     24  C   UNL     1     -35.074  21.514   5.149  0.00  0.00    -0.000 C 
ENDBRANCH  18  19
ENDBRANCH  13  18
ENDBRANCH   1  13
TORSDOF 9
ENDMDL
MODEL 3
REMARK VINA RESULT:      -5.6      1.539      1.962
REMARK  Name = 195500
REMARK  9 active torsions:
REMARK  status: ('A' for Active; 'I' for Inactive)
REMARK    1  A    between atoms: N_1  and  S_3
REMARK    2  A    between atoms: N_1  and  C_13
REMARK    3  A    between atoms: S_3  and  C_6
REMARK    4  A    between atoms: C_6  and  C_7
REMARK    5  A    between atoms: C_7  and  N_9
REMARK    6  A    between atoms: C_13  and  C_15
REMARK    7  A    between atoms: C_13  and  C_18
REMARK    8  A    between atoms: C_15  and  O_16
REMARK    9  A    between atoms: C_18  and  C_19
REMARK                            x       y       z     vdW  Elec       q    Type
REMARK                         _______ _______ _______ _____ _____    ______ ____
ROOT
ATOM      1  N   UNL     1     -36.624  22.235   3.800  0.00  0.00    -0.174 NA
ATOM      2  H   UNL     1     -37.589  22.563   3.772  0.00  0.00    +0.149 HD
ENDROOT
BRANCH   1   3
ATOM      3  S   UNL     1     -35.729  23.390   4.674  0.00  0.00    +0.043 S 
ATOM      4  O   UNL     1     -34.835  22.725   5.603  0.00  0.00    -0.157 OA
ATOM      5  O   UNL     1     -36.640  24.422   5.131  0.00  0.00    -0.157 OA
BRANCH   3   6
ATOM      6  C   UNL     1     -34.741  24.094   3.373  0.00  0.00    +0.190 C 
BRANCH   6   7
ATOM      7  C   UNL     1     -34.394  25.547   3.633  0.00  0.00    +0.116 C 
BRANCH   7   9
ATOM      8  O   UNL     1     -33.153  27.944   4.699  0.00  0.00    -0.275 OA
ATOM      9  N   UNL     1     -33.905  25.757   4.968  0.00  0.00    -0.303 N 
ATOM     10  C   UNL     1     -33.322  26.944   5.391  0.00  0.00    +0.223 C 
ATOM     11  C   UNL     1     -32.921  26.905   6.842  0.00  0.00    +0.095 C 
ATOM     12  H   UNL     1     -33.986  25.020   5.617  0.00  0.00    +0.149 HD
ENDBRANCH   7   9
ENDBRANCH   6   7
ENDBRANCH   3   6
ENDBRANCH   1   3
BRANCH   1  13
ATOM     13  C   UNL     1     -36.230  21.927   2.404  0.00  0.00    +0.178 C 
BRANCH  13  15
ATOM     14  O   UNL     1     -37.438  22.385   0.342  0.00  0.00    -0.249 OA
ATOM     15  C   UNL     1     -37.453  22.139   1.541  0.00  0.00    +0.333 C 
BRANCH  15  16
ATOM     16  O   UNL     1     -38.575  22.010   2.312  0.00  0.00    -0.443 OA
ATOM     17  C   UNL     1     -39.723  21.471   1.648  0.00  0.00    +0.256 C 
ENDBRANCH  15  16
ENDBRANCH  13  15
BRANCH  13  18
ATOM     18  C   UNL     1     -35.737  20.482   2.309  0.00  0.00    +0.055 C 
BRANCH  18  19
ATOM     19  C   UNL     1     -34.460  20.349   1.517  0.00  0.00    -0.020 C 
ATOM     20  C   UNL     1     -34.039  21.392   0.692  0.00  0.00    -0.004 C 
ATOM     21  C   UNL     1     -33.699  19.184   1.610  0.00  0.00    -0.004 C 
ATOM     22  C   UNL     1     -32.859  21.271  -0.040  0.00  0.00    -0.000 C 
ATOM     23  C   UNL     1     -32.518  19.062   0.877  0.00  0.00    -0.000 C 
ATOM     24  C   UNL     1     -32.098  20.106   0.052  0.00  0.00    -0.000 C 
ENDBRANCH  18  19
ENDBRANCH  13  18
ENDBRANCH   1  13
TORSDOF 9
ENDMDL
MODEL 4
REMARK VINA RESULT:      -5.6      1.587      2.356
REMARK  Name = 195500
REMARK  9 active torsions:
REMARK  status: ('A' for Active; 'I' for Inactive)
REMARK    1  A    between atoms: N_1  and  S_3
REMARK    2  A    between atoms: N_1  and  C_13
REMARK    3  A    between atoms: S_3  and  C_6
REMARK    4  A    between atoms: C_6  and  C_7
REMARK    5  A    between atoms: C_7  and  N_9
REMARK    6  A    between atoms: C_13  and  C_15
REMARK    7  A    between atoms: C_13  and  C_18
REMARK    8  A    between atoms: C_15  and  O_16
REMARK    9  A    between atoms: C_18  and  C_19
REMARK                            x       y       z     vdW  Elec       q    Type
REMARK                         _______ _______ _______ _____ _____    ______ ____
ROOT
ATOM      1  N   UNL     1     -37.527  22.647   3.099  0.00  0.00    -0.174 NA
ATOM      2  H   UNL     1     -38.273  22.156   3.590  0.00  0.00    +0.149 HD
ENDROOT
BRANCH   1   3
ATOM      3  S   UNL     1     -38.087  24.225   2.788  0.00  0.00    +0.043 S 
ATOM      4  O   UNL     1     -39.123  24.580   3.738  0.00  0.00    -0.157 OA
ATOM      5  O   UNL     1     -38.313  24.355   1.361  0.00  0.00    -0.157 OA
BRANCH   3   6
ATOM      6  C   UNL     1     -36.635  25.173   3.183  0.00  0.00    +0.190 C 
BRANCH   6   7
ATOM      7  C   UNL     1     -36.461  25.366   4.677  0.00  0.00    +0.116 C 
BRANCH   7   9
ATOM      8  O   UNL     1     -34.048  23.809   5.096  0.00  0.00    -0.275 OA
ATOM      9  N   UNL     1     -36.339  24.116   5.375  0.00  0.00    -0.303 N 
ATOM     10  C   UNL     1     -35.137  23.438   5.526  0.00  0.00    +0.223 C 
ATOM     11  C   UNL     1     -35.287  22.168   6.320  0.00  0.00    +0.095 C 
ATOM     12  H   UNL     1     -37.152  23.718   5.765  0.00  0.00    +0.149 HD
ENDBRANCH   7   9
ENDBRANCH   6   7
ENDBRANCH   3   6
ENDBRANCH   1   3
BRANCH   1  13
ATOM     13  C   UNL     1     -37.121  21.792   1.958  0.00  0.00    +0.178 C 
BRANCH  13  15
ATOM     14  O   UNL     1     -39.472  21.162   1.957  0.00  0.00    -0.249 OA
ATOM     15  C   UNL     1     -38.381  21.168   1.401  0.00  0.00    +0.333 C 
BRANCH  15  16
ATOM     16  O   UNL     1     -38.108  20.614   0.182  0.00  0.00    -0.443 OA
ATOM     17  C   UNL     1     -37.781  21.541  -0.859  0.00  0.00    +0.256 C 
ENDBRANCH  15  16
ENDBRANCH  13  15
BRANCH  13  18
ATOM     18  C   UNL     1     -36.143  20.716   2.436  0.00  0.00    +0.055 C 
BRANCH  18  19
ATOM     19  C   UNL     1     -34.881  20.665   1.611  0.00  0.00    -0.020 C 
ATOM     20  C   UNL     1     -34.093  19.513   1.611  0.00  0.00    -0.004 C 
ATOM     21  C   UNL     1     -34.500  21.768   0.847  0.00  0.00    -0.004 C 
ATOM     22  C   UNL     1     -32.927  19.463   0.850  0.00  0.00    -0.000 C 
ATOM     23  C   UNL     1     -33.333  21.719   0.085  0.00  0.00    -0.000 C 
ATOM     24  C   UNL     1     -32.546  20.566   0.086  0.00  0.00    -0.000 C 
ENDBRANCH  18  19
ENDBRANCH  13  18
ENDBRANCH   1  13
TORSDOF 9
ENDMDL
MODEL 5
REMARK VINA RESULT:      -5.5      3.190      4.546
REMARK  Name = 195500
REMARK  9 active torsions:
REMARK  status: ('A' for Active; 'I' for Inactive)
REMARK    1  A    between atoms: N_1  and  S_3
REMARK    2  A    between atoms: N_1  and  C_13
REMARK    3  A    between atoms: S_3  and  C_6
REMARK    4  A    between atoms: C_6  and  C_7
REMARK    5  A    between atoms: C_7  and  N_9
REMARK    6  A    between atoms: C_13  and  C_15
REMARK    7  A    between atoms: C_13  and  C_18
REMARK    8  A    between atoms: C_15  and  O_16
REMARK    9  A    between atoms: C_18  and  C_19
REMARK                            x       y       z     vdW  Elec       q    Type
REMARK                         _______ _______ _______ _____ _____    ______ ____
ROOT
ATOM      1  N   UNL     1     -37.102  26.979   2.746  0.00  0.00    -0.174 NA
ATOM      2  H   UNL     1     -37.985  27.403   2.464  0.00  0.00    +0.149 HD
ENDROOT
BRANCH   1   3
ATOM      3  S   UNL     1     -35.968  27.325   1.523  0.00  0.00    +0.043 S 
ATOM      4  O   UNL     1     -36.652  27.570   0.268  0.00  0.00    -0.157 OA
ATOM      5  O   UNL     1     -34.898  26.349   1.607  0.00  0.00    -0.157 OA
BRANCH   3   6
ATOM      6  C   UNL     1     -35.319  28.875   2.105  0.00  0.00    +0.190 C 
BRANCH   6   7
ATOM      7  C   UNL     1     -34.047  28.701   2.912  0.00  0.00    +0.116 C 
BRANCH   7   9
ATOM      8  O   UNL     1     -32.021  27.295   4.441  0.00  0.00    -0.275 OA
ATOM      9  N   UNL     1     -34.246  27.868   4.066  0.00  0.00    -0.303 N 
ATOM     10  C   UNL     1     -33.211  27.231   4.738  0.00  0.00    +0.223 C 
ATOM     11  C   UNL     1     -33.694  26.442   5.925  0.00  0.00    +0.095 C 
ATOM     12  H   UNL     1     -35.165  27.742   4.398  0.00  0.00    +0.149 HD
ENDBRANCH   7   9
ENDBRANCH   6   7
ENDBRANCH   3   6
ENDBRANCH   1   3
BRANCH   1  13
ATOM     13  C   UNL     1     -37.387  25.564   3.082  0.00  0.00    +0.178 C 
BRANCH  13  15
ATOM     14  O   UNL     1     -39.517  24.564   3.705  0.00  0.00    -0.249 OA
ATOM     15  C   UNL     1     -38.890  25.398   3.065  0.00  0.00    +0.333 C 
BRANCH  15  16
ATOM     16  O   UNL     1     -39.435  26.327   2.223  0.00  0.00    -0.443 OA
ATOM     17  C   UNL     1     -40.860  26.450   2.278  0.00  0.00    +0.256 C 
ENDBRANCH  15  16
ENDBRANCH  13  15
BRANCH  13  18
ATOM     18  C   UNL     1     -36.816  25.231   4.462  0.00  0.00    +0.055 C 
BRANCH  18  19
ATOM     19  C   UNL     1     -36.203  23.853   4.525  0.00  0.00    -0.020 C 
ATOM     20  C   UNL     1     -35.664  23.384   5.723  0.00  0.00    -0.004 C 
ATOM     21  C   UNL     1     -36.176  23.048   3.387  0.00  0.00    -0.004 C 
ATOM     22  C   UNL     1     -35.097  22.111   5.783  0.00  0.00    -0.000 C 
ATOM     23  C   UNL     1     -35.610  21.775   3.447  0.00  0.00    -0.000 C 
ATOM     24  C   UNL     1     -35.071  21.306   4.645  0.00  0.00    -0.000 C 
ENDBRANCH  18  19
ENDBRANCH  13  18
ENDBRANCH   1  13
TORSDOF 9
ENDMDL
MODEL 6
REMARK VINA RESULT:      -5.5      1.565      2.239
REMARK  Name = 195500
REMARK  9 active torsions:
REMARK  status: ('A' for Active; 'I' for Inactive)
REMARK    1  A    between atoms: N_1  and  S_3
REMARK    2  A    between atoms: N_1  and  C_13
REMARK    3  A    between atoms: S_3  and  C_6
REMARK    4  A    between atoms: C_6  and  C_7
REMARK    5  A    between atoms: C_7  and  N_9
REMARK    6  A    between atoms: C_13  and  C_15
REMARK    7  A    between atoms: C_13  and  C_18
REMARK    8  A    between atoms: C_15  and  O_16
REMARK    9  A    between atoms: C_18  and  C_19
REMARK                            x       y       z     vdW  Elec       q    Type
REMARK                         _______ _______ _______ _____ _____    ______ ____
ROOT
ATOM      1  N   UNL     1     -36.747  21.602   2.981  0.00  0.00    -0.174 NA
ATOM      2  H   UNL     1     -37.740  21.759   2.818  0.00  0.00    +0.149 HD
ENDROOT
BRANCH   1   3
ATOM      3  S   UNL     1     -36.146  22.982   3.778  0.00  0.00    +0.043 S 
ATOM      4  O   UNL     1     -34.899  23.402   3.169  0.00  0.00    -0.157 OA
ATOM      5  O   UNL     1     -36.234  22.755   5.208  0.00  0.00    -0.157 OA
BRANCH   3   6
ATOM      6  C   UNL     1     -37.393  24.176   3.352  0.00  0.00    +0.190 C 
BRANCH   6   7
ATOM      7  C   UNL     1     -37.103  25.546   3.933  0.00  0.00    +0.116 C 
BRANCH   7   9
ATOM      8  O   UNL     1     -34.848  27.370   4.040  0.00  0.00    -0.275 OA
ATOM      9  N   UNL     1     -36.003  25.521   4.858  0.00  0.00    -0.303 N 
ATOM     10  C   UNL     1     -34.962  26.439   4.834  0.00  0.00    +0.223 C 
ATOM     11  C   UNL     1     -33.956  26.200   5.928  0.00  0.00    +0.095 C 
ATOM     12  H   UNL     1     -35.986  24.815   5.545  0.00  0.00    +0.149 HD
ENDBRANCH   7   9
ENDBRANCH   6   7
ENDBRANCH   3   6
ENDBRANCH   1   3
BRANCH   1  13
ATOM     13  C   UNL     1     -36.150  21.206   1.683  0.00  0.00    +0.178 C 
BRANCH  13  15
ATOM     14  O   UNL     1     -37.857  20.167   0.293  0.00  0.00    -0.249 OA
ATOM     15  C   UNL     1     -37.273  21.175   0.670  0.00  0.00    +0.333 C 
BRANCH  15  16
ATOM     16  O   UNL     1     -37.530  22.448   0.244  0.00  0.00    -0.443 OA
ATOM     17  C   UNL     1     -36.395  23.184  -0.224  0.00  0.00    +0.256 C 
ENDBRANCH  15  16
ENDBRANCH  13  15
BRANCH  13  18
ATOM     18  C   UNL     1     -35.490  19.831   1.810  0.00  0.00    +0.055 C 
BRANCH  18  19
ATOM     19  C   UNL     1     -34.095  19.795   1.236  0.00  0.00    -0.020 C 
ATOM     20  C   UNL     1     -33.278  18.687   1.457  0.00  0.00    -0.004 C 
ATOM     21  C   UNL     1     -33.623  20.870   0.483  0.00  0.00    -0.004 C 
ATOM     22  C   UNL     1     -31.989  18.652   0.927  0.00  0.00    -0.000 C 
ATOM     23  C   UNL     1     -32.333  20.835  -0.048  0.00  0.00    -0.000 C 
ATOM     24  C   UNL     1     -31.516  19.727   0.174  0.00  0.00    -0.000 C 
ENDBRANCH  18  19
ENDBRANCH  13  18
ENDBRANCH   1  13
TORSDOF 9
ENDMDL
MODEL 7
REMARK VINA RESULT:      -5.5      3.438      4.779
REMARK  Name = 195500
REMARK  9 active torsions:
REMARK  status: ('A' for Active; 'I' for Inactive)
REMARK    1  A    between atoms: N_1  and  S_3
REMARK    2  A    between atoms: N_1  and  C_13
REMARK    3  A    between atoms: S_3  and  C_6
REMARK    4  A    between atoms: C_6  and  C_7
REMARK    5  A    between atoms: C_7  and  N_9
REMARK    6  A    between atoms: C_13  and  C_15
REMARK    7  A    between atoms: C_13  and  C_18
REMARK    8  A    between atoms: C_15  and  O_16
REMARK    9  A    between atoms: C_18  and  C_19
REMARK                            x       y       z     vdW  Elec       q    Type
REMARK                         _______ _______ _______ _____ _____    ______ ____
ROOT
ATOM      1  N   UNL     1     -35.723  27.178   3.340  0.00  0.00    -0.174 NA
ATOM      2  H   UNL     1     -36.379  27.933   3.142  0.00  0.00    +0.149 HD
ENDROOT
BRANCH   1   3
ATOM      3  S   UNL     1     -34.376  27.407   2.323  0.00  0.00    +0.043 S 
ATOM      4  O   UNL     1     -34.036  28.815   2.261  0.00  0.00    -0.157 OA
ATOM      5  O   UNL     1     -34.585  26.639   1.110  0.00  0.00    -0.157 OA
BRANCH   3   6
ATOM      6  C   UNL     1     -33.112  26.580   3.262  0.00  0.00    +0.190 C 
BRANCH   6   7
ATOM      7  C   UNL     1     -33.274  26.787   4.756  0.00  0.00    +0.116 C 
BRANCH   7   9
ATOM      8  O   UNL     1     -30.976  27.753   6.242  0.00  0.00    -0.275 OA
ATOM      9  N   UNL     1     -32.995  28.141   5.149  0.00  0.00    -0.303 N 
ATOM     10  C   UNL     1     -31.864  28.513   5.863  0.00  0.00    +0.223 C 
ATOM     11  C   UNL     1     -31.806  29.995   6.121  0.00  0.00    +0.095 C 
ATOM     12  H   UNL     1     -33.640  28.842   4.899  0.00  0.00    +0.149 HD
ENDBRANCH   7   9
ENDBRANCH   6   7
ENDBRANCH   3   6
ENDBRANCH   1   3
BRANCH   1  13
ATOM     13  C   UNL     1     -36.482  25.908   3.250  0.00  0.00    +0.178 C 
BRANCH  13  15
ATOM     14  O   UNL     1     -38.028  27.077   1.777  0.00  0.00    -0.249 OA
ATOM     15  C   UNL     1     -37.830  26.239   2.647  0.00  0.00    +0.333 C 
BRANCH  15  16
ATOM     16  O   UNL     1     -38.787  25.455   3.228  0.00  0.00    -0.443 OA
ATOM     17  C   UNL     1     -40.119  25.643   2.739  0.00  0.00    +0.256 C 
ENDBRANCH  15  16
ENDBRANCH  13  15
BRANCH  13  18
ATOM     18  C   UNL     1     -36.643  25.297   4.643  0.00  0.00    +0.055 C 
BRANCH  18  19
ATOM     19  C   UNL     1     -36.080  23.900   4.739  0.00  0.00    -0.020 C 
ATOM     20  C   UNL     1     -36.131  23.050   3.634  0.00  0.00    -0.004 C 
ATOM     21  C   UNL     1     -35.508  23.459   5.932  0.00  0.00    -0.004 C 
ATOM     22  C   UNL     1     -35.610  21.759   3.721  0.00  0.00    -0.000 C 
ATOM     23  C   UNL     1     -34.986  22.168   6.019  0.00  0.00    -0.000 C 
ATOM     24  C   UNL     1     -35.038  21.318   4.914  0.00  0.00    -0.000 C 
ENDBRANCH  18  19
ENDBRANCH  13  18
ENDBRANCH   1  13
TORSDOF 9
ENDMDL
MODEL 8
REMARK VINA RESULT:      -5.5      2.112      2.919
REMARK  Name = 195500
REMARK  9 active torsions:
REMARK  status: ('A' for Active; 'I' for Inactive)
REMARK    1  A    between atoms: N_1  and  S_3
REMARK    2  A    between atoms: N_1  and  C_13
REMARK    3  A    between atoms: S_3  and  C_6
REMARK    4  A    between atoms: C_6  and  C_7
REMARK    5  A    between atoms: C_7  and  N_9
REMARK    6  A    between atoms: C_13  and  C_15
REMARK    7  A    between atoms: C_13  and  C_18
REMARK    8  A    between atoms: C_15  and  O_16
REMARK    9  A    between atoms: C_18  and  C_19
REMARK                            x       y       z     vdW  Elec       q    Type
REMARK                         _______ _______ _______ _____ _____    ______ ____
ROOT
ATOM      1  N   UNL     1     -36.931  22.590   3.584  0.00  0.00    -0.174 NA
ATOM      2  H   UNL     1     -37.756  23.162   3.409  0.00  0.00    +0.149 HD
ENDROOT
BRANCH   1   3
ATOM      3  S   UNL     1     -35.896  23.500   4.585  0.00  0.00    +0.043 S 
ATOM      4  O   UNL     1     -34.634  23.736   3.910  0.00  0.00    -0.157 OA
ATOM      5  O   UNL     1     -35.929  22.923   5.916  0.00  0.00    -0.157 OA
BRANCH   3   6
ATOM      6  C   UNL     1     -36.777  25.043   4.654  0.00  0.00    +0.190 C 
BRANCH   6   7
ATOM      7  C   UNL     1     -37.162  25.549   3.277  0.00  0.00    +0.116 C 
BRANCH   7   9
ATOM      8  O   UNL     1     -39.672  24.093   3.264  0.00  0.00    -0.275 OA
ATOM      9  N   UNL     1     -38.489  26.099   3.253  0.00  0.00    -0.303 N 
ATOM     10  C   UNL     1     -39.639  25.321   3.248  0.00  0.00    +0.223 C 
ATOM     11  C   UNL     1     -40.896  26.150   3.246  0.00  0.00    +0.095 C 
ATOM     12  H   UNL     1     -38.588  27.079   3.238  0.00  0.00    +0.149 HD
ENDBRANCH   7   9
ENDBRANCH   6   7
ENDBRANCH   3   6
ENDBRANCH   1   3
BRANCH   1  13
ATOM     13  C   UNL     1     -36.432  22.131   2.265  0.00  0.00    +0.178 C 
BRANCH  13  15
ATOM     14  O   UNL     1     -37.936  23.139   0.639  0.00  0.00    -0.249 OA
ATOM     15  C   UNL     1     -37.604  22.171   1.310  0.00  0.00    +0.333 C 
BRANCH  15  16
ATOM     16  O   UNL     1     -38.231  20.956   1.317  0.00  0.00    -0.443 OA
ATOM     17  C   UNL     1     -38.592  20.439   0.032  0.00  0.00    +0.256 C 
ENDBRANCH  15  16
ENDBRANCH  13  15
BRANCH  13  18
ATOM     18  C   UNL     1     -35.873  20.712   2.385  0.00  0.00    +0.055 C 
BRANCH  18  19
ATOM     19  C   UNL     1     -34.612  20.509   1.583  0.00  0.00    -0.020 C 
ATOM     20  C   UNL     1     -34.132  21.534   0.766  0.00  0.00    -0.004 C 
ATOM     21  C   UNL     1     -33.923  19.299   1.658  0.00  0.00    -0.004 C 
ATOM     22  C   UNL     1     -32.966  21.348   0.024  0.00  0.00    -0.000 C 
ATOM     23  C   UNL     1     -32.756  19.113   0.916  0.00  0.00    -0.000 C 
ATOM     24  C   UNL     1     -32.278  20.137   0.099  0.00  0.00    -0.000 C 
ENDBRANCH  18  19
ENDBRANCH  13  18
ENDBRANCH   1  13
TORSDOF 9
ENDMDL
MODEL 9
REMARK VINA RESULT:      -5.4      2.107      2.871
REMARK  Name = 195500
REMARK  9 active torsions:
REMARK  status: ('A' for Active; 'I' for Inactive)
REMARK    1  A    between atoms: N_1  and  S_3
REMARK    2  A    between atoms: N_1  and  C_13
REMARK    3  A    between atoms: S_3  and  C_6
REMARK    4  A    between atoms: C_6  and  C_7
REMARK    5  A    between atoms: C_7  and  N_9
REMARK    6  A    between atoms: C_13  and  C_15
REMARK    7  A    between atoms: C_13  and  C_18
REMARK    8  A    between atoms: C_15  and  O_16
REMARK    9  A    between atoms: C_18  and  C_19
REMARK                            x       y       z     vdW  Elec       q    Type
REMARK                         _______ _______ _______ _____ _____    ______ ____
ROOT
ATOM      1  N   UNL     1     -35.342  22.180   2.269  0.00  0.00    -0.174 NA
ATOM      2  H   UNL     1     -36.138  22.092   2.900  0.00  0.00    +0.149 HD
ENDROOT
BRANCH   1   3
ATOM      3  S   UNL     1     -35.293  23.800   1.747  0.00  0.00    +0.043 S 
ATOM      4  O   UNL     1     -35.305  23.855   0.298  0.00  0.00    -0.157 OA
ATOM      5  O   UNL     1     -34.270  24.492   2.507  0.00  0.00    -0.157 OA
BRANCH   3   6
ATOM      6  C   UNL     1     -36.870  24.381   2.329  0.00  0.00    +0.190 C 
BRANCH   6   7
ATOM      7  C   UNL     1     -36.856  24.698   3.812  0.00  0.00    +0.116 C 
BRANCH   7   9
ATOM      8  O   UNL     1     -34.770  24.466   5.816  0.00  0.00    -0.275 OA
ATOM      9  N   UNL     1     -36.537  23.546   4.611  0.00  0.00    -0.303 N 
ATOM     10  C   UNL     1     -35.515  23.527   5.550  0.00  0.00    +0.223 C 
ATOM     11  C   UNL     1     -35.412  22.204   6.263  0.00  0.00    +0.095 C 
ATOM     12  H   UNL     1     -37.070  22.728   4.484  0.00  0.00    +0.149 HD
ENDBRANCH   7   9
ENDBRANCH   6   7
ENDBRANCH   3   6
ENDBRANCH   1   3
BRANCH   1  13
ATOM     13  C   UNL     1     -35.470  21.104   1.257  0.00  0.00    +0.178 C 
BRANCH  13  15
ATOM     14  O   UNL     1     -37.833  21.062   1.838  0.00  0.00    -0.249 OA
ATOM     15  C   UNL     1     -36.948  20.904   1.007  0.00  0.00    +0.333 C 
BRANCH  15  16
ATOM     16  O   UNL     1     -37.137  20.520  -0.292  0.00  0.00    -0.443 OA
ATOM     17  C   UNL     1     -37.802  19.266  -0.475  0.00  0.00    +0.256 C 
ENDBRANCH  15  16
ENDBRANCH  13  15
BRANCH  13  18
ATOM     18  C   UNL     1     -34.826  19.818   1.780  0.00  0.00    +0.055 C 
BRANCH  18  19
ATOM     19  C   UNL     1     -33.461  19.564   1.188  0.00  0.00    -0.020 C 
ATOM     20  C   UNL     1     -32.790  18.373   1.466  0.00  0.00    -0.004 C 
ATOM     21  C   UNL     1     -32.870  20.519   0.361  0.00  0.00    -0.004 C 
ATOM     22  C   UNL     1     -31.529  18.137   0.919  0.00  0.00    -0.000 C 
ATOM     23  C   UNL     1     -31.609  20.283  -0.187  0.00  0.00    -0.000 C 
ATOM     24  C   UNL     1     -30.939  19.092   0.092  0.00  0.00    -0.000 C 
ENDBRANCH  18  19
ENDBRANCH  13  18
ENDBRANCH   1  13
TORSDOF 9
ENDMDL
