MODEL 1
REMARK VINA RESULT:      -6.7      0.000      0.000
REMARK  Name = 194405
REMARK  8 active torsions:
REMARK  status: ('A' for Active; 'I' for Inactive)
REMARK    1  A    between atoms: N_1  and  C1*_19
REMARK    2  A    between atoms: N_4  and  C_11
REMARK    3  A    between atoms: N_4  and  C_29
REMARK    4  A    between atoms: C2*_18  and  O2*_22
REMARK    5  A    between atoms: C3*_20  and  O3*_24
REMARK    6  A    between atoms: C4*_21  and  C5*_26
REMARK    7  A    between atoms: C5*_26  and  O5*_27
REMARK    8  A    between atoms: C_29  and  C_30
REMARK                            x       y       z     vdW  Elec       q    Type
REMARK                         _______ _______ _______ _____ _____    ______ ____
ROOT
ATOM      1  N   UNL     1     -35.304  25.922   4.399  0.00  0.00    -0.247 N 
ATOM      2  N   UNL     1     -33.504  27.126   4.932  0.00  0.00    -0.242 NA
ATOM      3  N   UNL     1     -36.045  27.136   2.428  0.00  0.00    -0.228 NA
ATOM      4  N   UNL     1     -32.660  29.537   3.282  0.00  0.00    -0.267 N 
ATOM      5  N   UNL     1     -34.573  29.020   1.940  0.00  0.00    -0.228 NA
ATOM      6  C   UNL     1     -35.220  26.915   3.463  0.00  0.00    +0.152 C 
ATOM      7  C   UNL     1     -34.251  26.092   5.259  0.00  0.00    +0.223 C 
ATOM      8  C   UNL     1     -34.098  27.650   3.812  0.00  0.00    +0.141 C 
ATOM      9  C   UNL     1     -33.782  28.738   3.004  0.00  0.00    +0.153 C 
ATOM     10  C   UNL     1     -35.639  28.213   1.722  0.00  0.00    +0.253 C 
ENDROOT
BRANCH   4  11
ATOM     11  C   UNL     1     -31.739  29.368   4.358  0.00  0.00    +0.053 C 
ATOM     12  C   UNL     1     -30.570  28.651   4.147  0.00  0.00    +0.015 C 
ATOM     13  C   UNL     1     -32.026  29.922   5.596  0.00  0.00    +0.015 C 
ATOM     14  C   UNL     1     -29.668  28.486   5.198  0.00  0.00    +0.001 C 
ATOM     15  C   UNL     1     -31.125  29.757   6.647  0.00  0.00    +0.001 C 
ATOM     16  C   UNL     1     -29.945  29.039   6.449  0.00  0.00    +0.000 C 
ENDBRANCH   4  11
BRANCH   1  19
ATOM     17  O4* UNL     1     -36.102  24.078   5.663  0.00  0.00    -0.333 OA
ATOM     18  C2* UNL     1     -36.315  23.923   3.277  0.00  0.00    +0.187 C 
ATOM     19  C1* UNL     1     -36.321  24.872   4.477  0.00  0.00    +0.225 C 
ATOM     20  C3* UNL     1     -35.636  22.685   3.831  0.00  0.00    +0.171 C 
ATOM     21  C4* UNL     1     -36.081  22.693   5.283  0.00  0.00    +0.175 C 
BRANCH  18  22
ATOM     22  O2* UNL     1     -37.661  23.645   2.893  0.00  0.00    -0.378 OA
ATOM     23  H2* UNL     1     -38.178  24.465   2.910  0.00  0.00    +0.211 HD
ENDBRANCH  18  22
BRANCH  20  24
ATOM     24  O3* UNL     1     -36.006  21.495   3.167  0.00  0.00    -0.379 OA
ATOM     25  H3* UNL     1     -36.045  20.767   3.807  0.00  0.00    +0.211 HD
ENDBRANCH  20  24
BRANCH  21  26
ATOM     26  C5* UNL     1     -35.156  21.920   6.205  0.00  0.00    +0.169 C 
BRANCH  26  27
ATOM     27  O5* UNL     1     -35.190  20.552   5.839  0.00  0.00    -0.379 OA
ATOM     28  H5* UNL     1     -34.612  20.408   5.073  0.00  0.00    +0.211 HD
ENDBRANCH  26  27
ENDBRANCH  21  26
ENDBRANCH   1  19
BRANCH   4  29
ATOM     29  C   UNL     1     -32.216  30.495   2.253  0.00  0.00    +0.123 C 
BRANCH  29  30
ATOM     30  C   UNL     1     -32.533  31.880   2.715  0.00  0.00    -0.004 C 
ATOM     31  C   UNL     1     -33.639  32.548   2.368  0.00  0.00    -0.003 C 
ENDBRANCH  29  30
ENDBRANCH   4  29
TORSDOF 8
ENDMDL
MODEL 2
REMARK VINA RESULT:      -6.2      1.677      3.534
REMARK  Name = 194405
REMARK  8 active torsions:
REMARK  status: ('A' for Active; 'I' for Inactive)
REMARK    1  A    between atoms: N_1  and  C1*_19
REMARK    2  A    between atoms: N_4  and  C_11
REMARK    3  A    between atoms: N_4  and  C_29
REMARK    4  A    between atoms: C2*_18  and  O2*_22
REMARK    5  A    between atoms: C3*_20  and  O3*_24
REMARK    6  A    between atoms: C4*_21  and  C5*_26
REMARK    7  A    between atoms: C5*_26  and  O5*_27
REMARK    8  A    between atoms: C_29  and  C_30
REMARK                            x       y       z     vdW  Elec       q    Type
REMARK                         _______ _______ _______ _____ _____    ______ ____
ROOT
ATOM      1  N   UNL     1     -34.858  26.115   4.382  0.00  0.00    -0.247 N 
ATOM      2  N   UNL     1     -33.621  27.194   2.870  0.00  0.00    -0.242 NA
ATOM      3  N   UNL     1     -33.600  26.637   6.395  0.00  0.00    -0.228 NA
ATOM      4  N   UNL     1     -31.133  28.747   3.672  0.00  0.00    -0.267 N 
ATOM      5  N   UNL     1     -31.659  28.029   5.893  0.00  0.00    -0.228 NA
ATOM      6  C   UNL     1     -33.831  26.695   5.074  0.00  0.00    +0.152 C 
ATOM      7  C   UNL     1     -34.686  26.444   3.062  0.00  0.00    +0.223 C 
ATOM      8  C   UNL     1     -33.077  27.359   4.119  0.00  0.00    +0.141 C 
ATOM      9  C   UNL     1     -31.954  28.045   4.571  0.00  0.00    +0.153 C 
ATOM     10  C   UNL     1     -32.489  27.336   6.710  0.00  0.00    +0.253 C 
ENDROOT
BRANCH   4  11
ATOM     11  C   UNL     1     -31.312  28.857   2.261  0.00  0.00    +0.053 C 
ATOM     12  C   UNL     1     -30.799  27.870   1.432  0.00  0.00    +0.015 C 
ATOM     13  C   UNL     1     -31.995  29.946   1.742  0.00  0.00    +0.015 C 
ATOM     14  C   UNL     1     -30.973  27.976   0.052  0.00  0.00    +0.001 C 
ATOM     15  C   UNL     1     -32.171  30.051   0.362  0.00  0.00    +0.001 C 
ATOM     16  C   UNL     1     -31.660  29.066  -0.483  0.00  0.00    +0.000 C 
ENDBRANCH   4  11
BRANCH   1  19
ATOM     17  O4* UNL     1     -35.386  24.322   5.845  0.00  0.00    -0.333 OA
ATOM     18  C2* UNL     1     -36.735  24.537   3.871  0.00  0.00    +0.187 C 
ATOM     19  C1* UNL     1     -35.939  25.297   4.933  0.00  0.00    +0.225 C 
ATOM     20  C3* UNL     1     -36.202  23.123   3.998  0.00  0.00    +0.171 C 
ATOM     21  C4* UNL     1     -35.889  23.027   5.482  0.00  0.00    +0.175 C 
BRANCH  18  22
ATOM     22  O2* UNL     1     -38.124  24.597   4.194  0.00  0.00    -0.378 OA
ATOM     23  H2* UNL     1     -38.379  25.518   4.356  0.00  0.00    +0.211 HD
ENDBRANCH  18  22
BRANCH  20  24
ATOM     24  O3* UNL     1     -37.122  22.135   3.584  0.00  0.00    -0.379 OA
ATOM     25  H3* UNL     1     -37.885  22.133   4.182  0.00  0.00    +0.211 HD
ENDBRANCH  20  24
BRANCH  21  26
ATOM     26  C5* UNL     1     -34.859  21.963   5.816  0.00  0.00    +0.169 C 
BRANCH  26  27
ATOM     27  O5* UNL     1     -35.473  20.690   5.714  0.00  0.00    -0.379 OA
ATOM     28  H5* UNL     1     -35.650  20.490   4.781  0.00  0.00    +0.211 HD
ENDBRANCH  26  27
ENDBRANCH  21  26
ENDBRANCH   1  19
BRANCH   4  29
ATOM     29  C   UNL     1     -30.128  29.674   4.226  0.00  0.00    +0.123 C 
BRANCH  29  30
ATOM     30  C   UNL     1     -28.765  29.119   3.967  0.00  0.00    -0.004 C 
ATOM     31  C   UNL     1     -28.241  28.085   4.634  0.00  0.00    -0.003 C 
ENDBRANCH  29  30
ENDBRANCH   4  29
TORSDOF 8
ENDMDL
MODEL 3
REMARK VINA RESULT:      -6.1      5.421      8.194
REMARK  Name = 194405
REMARK  8 active torsions:
REMARK  status: ('A' for Active; 'I' for Inactive)
REMARK    1  A    between atoms: N_1  and  C1*_19
REMARK    2  A    between atoms: N_4  and  C_11
REMARK    3  A    between atoms: N_4  and  C_29
REMARK    4  A    between atoms: C2*_18  and  O2*_22
REMARK    5  A    between atoms: C3*_20  and  O3*_24
REMARK    6  A    between atoms: C4*_21  and  C5*_26
REMARK    7  A    between atoms: C5*_26  and  O5*_27
REMARK    8  A    between atoms: C_29  and  C_30
REMARK                            x       y       z     vdW  Elec       q    Type
REMARK                         _______ _______ _______ _____ _____    ______ ____
ROOT
ATOM      1  N   UNL     1     -40.256  24.702   2.433  0.00  0.00    -0.247 N 
ATOM      2  N   UNL     1     -38.201  24.413   3.251  0.00  0.00    -0.242 NA
ATOM      3  N   UNL     1     -40.512  22.618   1.209  0.00  0.00    -0.228 NA
ATOM      4  N   UNL     1     -36.604  21.889   2.676  0.00  0.00    -0.267 N 
ATOM      5  N   UNL     1     -38.522  21.219   1.411  0.00  0.00    -0.228 NA
ATOM      6  C   UNL     1     -39.837  23.480   1.984  0.00  0.00    +0.152 C 
ATOM      7  C   UNL     1     -39.237  25.222   3.188  0.00  0.00    +0.223 C 
ATOM      8  C   UNL     1     -38.561  23.320   2.503  0.00  0.00    +0.141 C 
ATOM      9  C   UNL     1     -37.900  22.136   2.191  0.00  0.00    +0.153 C 
ATOM     10  C   UNL     1     -39.771  21.514   0.976  0.00  0.00    +0.253 C 
ENDROOT
BRANCH   4  11
ATOM     11  C   UNL     1     -35.824  22.752   3.502  0.00  0.00    +0.053 C 
ATOM     12  C   UNL     1     -35.791  22.536   4.872  0.00  0.00    +0.015 C 
ATOM     13  C   UNL     1     -35.112  23.791   2.923  0.00  0.00    +0.015 C 
ATOM     14  C   UNL     1     -35.028  23.379   5.680  0.00  0.00    +0.001 C 
ATOM     15  C   UNL     1     -34.348  24.634   3.731  0.00  0.00    +0.001 C 
ATOM     16  C   UNL     1     -34.306  24.428   5.110  0.00  0.00    +0.000 C 
ENDBRANCH   4  11
BRANCH   1  19
ATOM     17  O4* UNL     1     -41.547  25.868   0.818  0.00  0.00    -0.333 OA
ATOM     18  C2* UNL     1     -41.864  26.499   3.111  0.00  0.00    +0.187 C 
ATOM     19  C1* UNL     1     -41.544  25.343   2.163  0.00  0.00    +0.225 C 
ATOM     20  C3* UNL     1     -41.583  27.722   2.259  0.00  0.00    +0.171 C 
ATOM     21  C4* UNL     1     -41.964  27.241   0.869  0.00  0.00    +0.175 C 
BRANCH  18  22
ATOM     22  O2* UNL     1     -43.240  26.434   3.483  0.00  0.00    -0.378 OA
ATOM     23  H2* UNL     1     -43.729  27.144   3.040  0.00  0.00    +0.211 HD
ENDBRANCH  18  22
BRANCH  20  24
ATOM     24  O3* UNL     1     -42.319  28.861   2.649  0.00  0.00    -0.379 OA
ATOM     25  H3* UNL     1     -43.255  28.625   2.743  0.00  0.00    +0.211 HD
ENDBRANCH  20  24
BRANCH  21  26
ATOM     26  C5* UNL     1     -41.296  28.024  -0.247  0.00  0.00    +0.169 C 
BRANCH  26  27
ATOM     27  O5* UNL     1     -40.811  29.245   0.283  0.00  0.00    -0.379 OA
ATOM     28  H5* UNL     1     -39.854  29.306   0.131  0.00  0.00    +0.211 HD
ENDBRANCH  26  27
ENDBRANCH  21  26
ENDBRANCH   1  19
BRANCH   4  29
ATOM     29  C   UNL     1     -36.063  20.523   2.550  0.00  0.00    +0.123 C 
BRANCH  29  30
ATOM     30  C   UNL     1     -34.868  20.559   1.653  0.00  0.00    -0.004 C 
ATOM     31  C   UNL     1     -34.052  19.517   1.454  0.00  0.00    -0.003 C 
ENDBRANCH  29  30
ENDBRANCH   4  29
TORSDOF 8
ENDMDL
MODEL 4
REMARK VINA RESULT:      -5.7      4.652      8.651
REMARK  Name = 194405
REMARK  8 active torsions:
REMARK  status: ('A' for Active; 'I' for Inactive)
REMARK    1  A    between atoms: N_1  and  C1*_19
REMARK    2  A    between atoms: N_4  and  C_11
REMARK    3  A    between atoms: N_4  and  C_29
REMARK    4  A    between atoms: C2*_18  and  O2*_22
REMARK    5  A    between atoms: C3*_20  and  O3*_24
REMARK    6  A    between atoms: C4*_21  and  C5*_26
REMARK    7  A    between atoms: C5*_26  and  O5*_27
REMARK    8  A    between atoms: C_29  and  C_30
REMARK                            x       y       z     vdW  Elec       q    Type
REMARK                         _______ _______ _______ _____ _____    ______ ____
ROOT
ATOM      1  N   UNL     1     -36.107  23.994   1.733  0.00  0.00    -0.247 N 
ATOM      2  N   UNL     1     -34.773  22.292   1.188  0.00  0.00    -0.242 NA
ATOM      3  N   UNL     1     -38.263  23.030   1.162  0.00  0.00    -0.228 NA
ATOM      4  N   UNL     1     -35.891  19.691   0.077  0.00  0.00    -0.267 N 
ATOM      5  N   UNL     1     -38.020  20.760   0.300  0.00  0.00    -0.228 NA
ATOM      6  C   UNL     1     -36.926  23.002   1.272  0.00  0.00    +0.152 C 
ATOM      7  C   UNL     1     -34.823  23.519   1.662  0.00  0.00    +0.223 C 
ATOM      8  C   UNL     1     -36.080  21.956   0.940  0.00  0.00    +0.141 C 
ATOM      9  C   UNL     1     -36.673  20.802   0.438  0.00  0.00    +0.153 C 
ATOM     10  C   UNL     1     -38.720  21.861   0.666  0.00  0.00    +0.253 C 
ENDROOT
BRANCH   4  11
ATOM     11  C   UNL     1     -34.471  19.585   0.164  0.00  0.00    +0.053 C 
ATOM     12  C   UNL     1     -33.683  20.182  -0.808  0.00  0.00    +0.015 C 
ATOM     13  C   UNL     1     -33.902  18.886   1.218  0.00  0.00    +0.015 C 
ATOM     14  C   UNL     1     -32.294  20.079  -0.724  0.00  0.00    +0.001 C 
ATOM     15  C   UNL     1     -32.514  18.783   1.304  0.00  0.00    +0.001 C 
ATOM     16  C   UNL     1     -31.709  19.380   0.333  0.00  0.00    +0.000 C 
ENDBRANCH   4  11
BRANCH   1  19
ATOM     17  O4* UNL     1     -35.360  26.186   2.255  0.00  0.00    -0.333 OA
ATOM     18  C2* UNL     1     -37.130  25.299   3.611  0.00  0.00    +0.187 C 
ATOM     19  C1* UNL     1     -36.512  25.317   2.212  0.00  0.00    +0.225 C 
ATOM     20  C3* UNL     1     -36.005  25.820   4.483  0.00  0.00    +0.171 C 
ATOM     21  C4* UNL     1     -35.301  26.795   3.555  0.00  0.00    +0.175 C 
BRANCH  18  22
ATOM     22  O2* UNL     1     -38.255  26.177   3.639  0.00  0.00    -0.378 OA
ATOM     23  H2* UNL     1     -38.095  26.887   4.280  0.00  0.00    +0.211 HD
ENDBRANCH  18  22
BRANCH  20  24
ATOM     24  O3* UNL     1     -36.453  26.444   5.668  0.00  0.00    -0.379 OA
ATOM     25  H3* UNL     1     -35.697  26.610   6.252  0.00  0.00    +0.211 HD
ENDBRANCH  20  24
BRANCH  21  26
ATOM     26  C5* UNL     1     -33.855  27.057   3.935  0.00  0.00    +0.169 C 
BRANCH  26  27
ATOM     27  O5* UNL     1     -33.764  27.139   5.346  0.00  0.00    -0.379 OA
ATOM     28  H5* UNL     1     -32.836  27.051   5.617  0.00  0.00    +0.211 HD
ENDBRANCH  26  27
ENDBRANCH  21  26
ENDBRANCH   1  19
BRANCH   4  29
ATOM     29  C   UNL     1     -36.577  18.412  -0.184  0.00  0.00    +0.123 C 
BRANCH  29  30
ATOM     30  C   UNL     1     -36.334  18.016  -1.604  0.00  0.00    -0.004 C 
ATOM     31  C   UNL     1     -35.671  16.912  -1.968  0.00  0.00    -0.003 C 
ENDBRANCH  29  30
ENDBRANCH   4  29
TORSDOF 8
ENDMDL
MODEL 5
REMARK VINA RESULT:      -5.6      3.267      7.200
REMARK  Name = 194405
REMARK  8 active torsions:
REMARK  status: ('A' for Active; 'I' for Inactive)
REMARK    1  A    between atoms: N_1  and  C1*_19
REMARK    2  A    between atoms: N_4  and  C_11
REMARK    3  A    between atoms: N_4  and  C_29
REMARK    4  A    between atoms: C2*_18  and  O2*_22
REMARK    5  A    between atoms: C3*_20  and  O3*_24
REMARK    6  A    between atoms: C4*_21  and  C5*_26
REMARK    7  A    between atoms: C5*_26  and  O5*_27
REMARK    8  A    between atoms: C_29  and  C_30
REMARK                            x       y       z     vdW  Elec       q    Type
REMARK                         _______ _______ _______ _____ _____    ______ ____
ROOT
ATOM      1  N   UNL     1     -33.152  27.275   3.438  0.00  0.00    -0.247 N 
ATOM      2  N   UNL     1     -33.993  25.299   4.041  0.00  0.00    -0.242 NA
ATOM      3  N   UNL     1     -35.051  28.181   2.222  0.00  0.00    -0.228 NA
ATOM      4  N   UNL     1     -36.820  24.479   3.278  0.00  0.00    -0.267 N 
ATOM      5  N   UNL     1     -36.923  26.616   2.206  0.00  0.00    -0.228 NA
ATOM      6  C   UNL     1     -34.423  27.234   2.936  0.00  0.00    +0.152 C 
ATOM      7  C   UNL     1     -32.942  26.090   4.093  0.00  0.00    +0.223 C 
ATOM      8  C   UNL     1     -34.927  26.002   3.321  0.00  0.00    +0.141 C 
ATOM      9  C   UNL     1     -36.228  25.705   2.929  0.00  0.00    +0.153 C 
ATOM     10  C   UNL     1     -36.300  27.780   1.902  0.00  0.00    +0.253 C 
ENDROOT
BRANCH   4  11
ATOM     11  C   UNL     1     -36.220  23.426   4.031  0.00  0.00    +0.053 C 
ATOM     12  C   UNL     1     -36.114  23.550   5.408  0.00  0.00    +0.015 C 
ATOM     13  C   UNL     1     -35.754  22.297   3.374  0.00  0.00    +0.015 C 
ATOM     14  C   UNL     1     -35.528  22.521   6.146  0.00  0.00    +0.001 C 
ATOM     15  C   UNL     1     -35.169  21.267   4.111  0.00  0.00    +0.001 C 
ATOM     16  C   UNL     1     -35.056  21.379   5.497  0.00  0.00    +0.000 C 
ENDBRANCH   4  11
BRANCH   1  19
ATOM     17  O4* UNL     1     -30.948  27.999   3.944  0.00  0.00    -0.333 OA
ATOM     18  C2* UNL     1     -32.662  29.680   3.944  0.00  0.00    +0.187 C 
ATOM     19  C1* UNL     1     -32.190  28.371   3.308  0.00  0.00    +0.225 C 
ATOM     20  C3* UNL     1     -31.868  29.732   5.235  0.00  0.00    +0.171 C 
ATOM     21  C4* UNL     1     -30.567  29.053   4.842  0.00  0.00    +0.175 C 
BRANCH  18  22
ATOM     22  O2* UNL     1     -32.323  30.768   3.085  0.00  0.00    -0.378 OA
ATOM     23  H2* UNL     1     -31.612  31.289   3.489  0.00  0.00    +0.211 HD
ENDBRANCH  18  22
BRANCH  20  24
ATOM     24  O3* UNL     1     -31.659  31.043   5.716  0.00  0.00    -0.379 OA
ATOM     25  H3* UNL     1     -32.313  31.242   6.404  0.00  0.00    +0.211 HD
ENDBRANCH  20  24
BRANCH  21  26
ATOM     26  C5* UNL     1     -29.806  28.473   6.022  0.00  0.00    +0.169 C 
BRANCH  26  27
ATOM     27  O5* UNL     1     -30.622  27.505   6.656  0.00  0.00    -0.379 OA
ATOM     28  H5* UNL     1     -30.452  27.515   7.612  0.00  0.00    +0.211 HD
ENDBRANCH  26  27
ENDBRANCH  21  26
ENDBRANCH   1  19
BRANCH   4  29
ATOM     29  C   UNL     1     -38.274  24.327   3.081  0.00  0.00    +0.123 C 
BRANCH  29  30
ATOM     30  C   UNL     1     -38.512  23.395   1.938  0.00  0.00    -0.004 C 
ATOM     31  C   UNL     1     -39.289  22.308   2.011  0.00  0.00    -0.003 C 
ENDBRANCH  29  30
ENDBRANCH   4  29
TORSDOF 8
ENDMDL
MODEL 6
REMARK VINA RESULT:      -5.6      1.935      3.776
REMARK  Name = 194405
REMARK  8 active torsions:
REMARK  status: ('A' for Active; 'I' for Inactive)
REMARK    1  A    between atoms: N_1  and  C1*_19
REMARK    2  A    between atoms: N_4  and  C_11
REMARK    3  A    between atoms: N_4  and  C_29
REMARK    4  A    between atoms: C2*_18  and  O2*_22
REMARK    5  A    between atoms: C3*_20  and  O3*_24
REMARK    6  A    between atoms: C4*_21  and  C5*_26
REMARK    7  A    between atoms: C5*_26  and  O5*_27
REMARK    8  A    between atoms: C_29  and  C_30
REMARK                            x       y       z     vdW  Elec       q    Type
REMARK                         _______ _______ _______ _____ _____    ______ ____
ROOT
ATOM      1  N   UNL     1     -36.320  25.869   3.612  0.00  0.00    -0.247 N 
ATOM      2  N   UNL     1     -35.178  27.352   2.398  0.00  0.00    -0.242 NA
ATOM      3  N   UNL     1     -34.901  25.766   5.582  0.00  0.00    -0.228 NA
ATOM      4  N   UNL     1     -32.601  28.597   3.426  0.00  0.00    -0.267 N 
ATOM      5  N   UNL     1     -32.972  27.246   5.366  0.00  0.00    -0.228 NA
ATOM      6  C   UNL     1     -35.231  26.217   4.362  0.00  0.00    +0.152 C 
ATOM      7  C   UNL     1     -36.242  26.578   2.441  0.00  0.00    +0.223 C 
ATOM      8  C   UNL     1     -34.537  27.137   3.592  0.00  0.00    +0.141 C 
ATOM      9  C   UNL     1     -33.367  27.657   4.136  0.00  0.00    +0.153 C 
ATOM     10  C   UNL     1     -33.753  26.340   6.002  0.00  0.00    +0.253 C 
ENDROOT
BRANCH   4  11
ATOM     11  C   UNL     1     -32.885  29.124   2.130  0.00  0.00    +0.053 C 
ATOM     12  C   UNL     1     -32.321  28.524   1.014  0.00  0.00    +0.015 C 
ATOM     13  C   UNL     1     -33.719  30.224   2.009  0.00  0.00    +0.015 C 
ATOM     14  C   UNL     1     -32.598  29.038  -0.253  0.00  0.00    +0.001 C 
ATOM     15  C   UNL     1     -33.998  30.737   0.742  0.00  0.00    +0.001 C 
ATOM     16  C   UNL     1     -33.437  30.144  -0.390  0.00  0.00    +0.000 C 
ENDBRANCH   4  11
BRANCH   1  19
ATOM     17  O4* UNL     1     -36.881  23.573   3.827  0.00  0.00    -0.333 OA
ATOM     18  C2* UNL     1     -38.638  25.051   3.127  0.00  0.00    +0.187 C 
ATOM     19  C1* UNL     1     -37.374  24.922   3.979  0.00  0.00    +0.225 C 
ATOM     20  C3* UNL     1     -38.526  23.872   2.179  0.00  0.00    +0.171 C 
ATOM     21  C4* UNL     1     -37.824  22.833   3.036  0.00  0.00    +0.175 C 
BRANCH  18  22
ATOM     22  O2* UNL     1     -39.784  24.931   3.967  0.00  0.00    -0.378 OA
ATOM     23  H2* UNL     1     -40.496  24.486   3.482  0.00  0.00    +0.211 HD
ENDBRANCH  18  22
BRANCH  20  24
ATOM     24  O3* UNL     1     -39.773  23.413   1.702  0.00  0.00    -0.379 OA
ATOM     25  H3* UNL     1     -39.786  23.460   0.733  0.00  0.00    +0.211 HD
ENDBRANCH  20  24
BRANCH  21  26
ATOM     26  C5* UNL     1     -37.097  21.772   2.228  0.00  0.00    +0.169 C 
BRANCH  26  27
ATOM     27  O5* UNL     1     -37.984  20.692   1.996  0.00  0.00    -0.379 OA
ATOM     28  H5* UNL     1     -37.963  20.088   2.756  0.00  0.00    +0.211 HD
ENDBRANCH  26  27
ENDBRANCH  21  26
ENDBRANCH   1  19
BRANCH   4  29
ATOM     29  C   UNL     1     -31.536  29.317   4.149  0.00  0.00    +0.123 C 
BRANCH  29  30
ATOM     30  C   UNL     1     -32.155  30.414   4.953  0.00  0.00    -0.004 C 
ATOM     31  C   UNL     1     -31.847  30.669   6.229  0.00  0.00    -0.003 C 
ENDBRANCH  29  30
ENDBRANCH   4  29
TORSDOF 8
ENDMDL
MODEL 7
REMARK VINA RESULT:      -5.6      4.921      8.891
REMARK  Name = 194405
REMARK  8 active torsions:
REMARK  status: ('A' for Active; 'I' for Inactive)
REMARK    1  A    between atoms: N_1  and  C1*_19
REMARK    2  A    between atoms: N_4  and  C_11
REMARK    3  A    between atoms: N_4  and  C_29
REMARK    4  A    between atoms: C2*_18  and  O2*_22
REMARK    5  A    between atoms: C3*_20  and  O3*_24
REMARK    6  A    between atoms: C4*_21  and  C5*_26
REMARK    7  A    between atoms: C5*_26  and  O5*_27
REMARK    8  A    between atoms: C_29  and  C_30
REMARK                            x       y       z     vdW  Elec       q    Type
REMARK                         _______ _______ _______ _____ _____    ______ ____
ROOT
ATOM      1  N   UNL     1     -36.547  22.867   2.586  0.00  0.00    -0.247 N 
ATOM      2  N   UNL     1     -34.959  21.543   1.750  0.00  0.00    -0.242 NA
ATOM      3  N   UNL     1     -38.505  21.875   1.542  0.00  0.00    -0.228 NA
ATOM      4  N   UNL     1     -35.629  19.257  -0.140  0.00  0.00    -0.267 N 
ATOM      5  N   UNL     1     -37.894  19.982   0.128  0.00  0.00    -0.228 NA
ATOM      6  C   UNL     1     -37.189  21.962   1.786  0.00  0.00    +0.152 C 
ATOM      7  C   UNL     1     -35.210  22.573   2.530  0.00  0.00    +0.223 C 
ATOM      8  C   UNL     1     -36.186  21.151   1.278  0.00  0.00    +0.141 C 
ATOM      9  C   UNL     1     -36.579  20.129   0.420  0.00  0.00    +0.153 C 
ATOM     10  C   UNL     1     -38.762  20.851   0.700  0.00  0.00    +0.253 C 
ENDROOT
BRANCH   4  11
ATOM     11  C   UNL     1     -34.219  19.285   0.070  0.00  0.00    +0.053 C 
ATOM     12  C   UNL     1     -33.441  20.180  -0.649  0.00  0.00    +0.015 C 
ATOM     13  C   UNL     1     -33.648  18.417   0.989  0.00  0.00    +0.015 C 
ATOM     14  C   UNL     1     -32.061  20.208  -0.444  0.00  0.00    +0.001 C 
ATOM     15  C   UNL     1     -32.269  18.446   1.195  0.00  0.00    +0.001 C 
ATOM     16  C   UNL     1     -31.475  19.341   0.479  0.00  0.00    +0.000 C 
ENDBRANCH   4  11
BRANCH   1  19
ATOM     17  O4* UNL     1     -37.793  24.884   2.457  0.00  0.00    -0.333 OA
ATOM     18  C2* UNL     1     -36.166  24.731   4.216  0.00  0.00    +0.187 C 
ATOM     19  C1* UNL     1     -37.162  23.948   3.358  0.00  0.00    +0.225 C 
ATOM     20  C3* UNL     1     -35.973  26.009   3.424  0.00  0.00    +0.171 C 
ATOM     21  C4* UNL     1     -37.338  26.206   2.787  0.00  0.00    +0.175 C 
BRANCH  18  22
ATOM     22  O2* UNL     1     -36.752  24.996   5.490  0.00  0.00    -0.378 OA
ATOM     23  H2* UNL     1     -37.506  24.403   5.629  0.00  0.00    +0.211 HD
ENDBRANCH  18  22
BRANCH  20  24
ATOM     24  O3* UNL     1     -35.594  27.113   4.220  0.00  0.00    -0.379 OA
ATOM     25  H3* UNL     1     -35.826  26.939   5.145  0.00  0.00    +0.211 HD
ENDBRANCH  20  24
BRANCH  21  26
ATOM     26  C5* UNL     1     -37.305  27.065   1.536  0.00  0.00    +0.169 C 
BRANCH  26  27
ATOM     27  O5* UNL     1     -36.688  28.301   1.851  0.00  0.00    -0.379 OA
ATOM     28  H5* UNL     1     -36.981  28.594   2.729  0.00  0.00    +0.211 HD
ENDBRANCH  26  27
ENDBRANCH  21  26
ENDBRANCH   1  19
BRANCH   4  29
ATOM     29  C   UNL     1     -36.115  18.037  -0.812  0.00  0.00    +0.123 C 
BRANCH  29  30
ATOM     30  C   UNL     1     -35.838  18.150  -2.276  0.00  0.00    -0.004 C 
ATOM     31  C   UNL     1     -36.669  18.727  -3.151  0.00  0.00    -0.003 C 
ENDBRANCH  29  30
ENDBRANCH   4  29
TORSDOF 8
ENDMDL
MODEL 8
REMARK VINA RESULT:      -5.5      4.972      7.812
REMARK  Name = 194405
REMARK  8 active torsions:
REMARK  status: ('A' for Active; 'I' for Inactive)
REMARK    1  A    between atoms: N_1  and  C1*_19
REMARK    2  A    between atoms: N_4  and  C_11
REMARK    3  A    between atoms: N_4  and  C_29
REMARK    4  A    between atoms: C2*_18  and  O2*_22
REMARK    5  A    between atoms: C3*_20  and  O3*_24
REMARK    6  A    between atoms: C4*_21  and  C5*_26
REMARK    7  A    between atoms: C5*_26  and  O5*_27
REMARK    8  A    between atoms: C_29  and  C_30
REMARK                            x       y       z     vdW  Elec       q    Type
REMARK                         _______ _______ _______ _____ _____    ______ ____
ROOT
ATOM      1  N   UNL     1     -40.087  24.933   2.340  0.00  0.00    -0.247 N 
ATOM      2  N   UNL     1     -38.004  24.864   3.135  0.00  0.00    -0.242 NA
ATOM      3  N   UNL     1     -40.299  22.650   1.534  0.00  0.00    -0.228 NA
ATOM      4  N   UNL     1     -36.333  22.327   2.992  0.00  0.00    -0.267 N 
ATOM      5  N   UNL     1     -38.256  21.375   1.933  0.00  0.00    -0.228 NA
ATOM      6  C   UNL     1     -39.636  23.662   2.114  0.00  0.00    +0.152 C 
ATOM      7  C   UNL     1     -39.070  25.616   2.954  0.00  0.00    +0.223 C 
ATOM      8  C   UNL     1     -38.344  23.640   2.615  0.00  0.00    +0.141 C 
ATOM      9  C   UNL     1     -37.649  22.440   2.509  0.00  0.00    +0.153 C 
ATOM     10  C   UNL     1     -39.525  21.545   1.488  0.00  0.00    +0.253 C 
ENDROOT
BRANCH   4  11
ATOM     11  C   UNL     1     -35.565  23.353   3.619  0.00  0.00    +0.053 C 
ATOM     12  C   UNL     1     -34.785  24.193   2.838  0.00  0.00    +0.015 C 
ATOM     13  C   UNL     1     -35.610  23.493   4.997  0.00  0.00    +0.015 C 
ATOM     14  C   UNL     1     -34.034  25.196   3.449  0.00  0.00    +0.001 C 
ATOM     15  C   UNL     1     -34.859  24.496   5.610  0.00  0.00    +0.001 C 
ATOM     16  C   UNL     1     -34.071  25.348   4.836  0.00  0.00    +0.000 C 
ENDBRANCH   4  11
BRANCH   1  19
ATOM     17  O4* UNL     1     -42.171  24.462   1.305  0.00  0.00    -0.333 OA
ATOM     18  C2* UNL     1     -41.342  26.704   1.088  0.00  0.00    +0.187 C 
ATOM     19  C1* UNL     1     -41.403  25.473   1.994  0.00  0.00    +0.225 C 
ATOM     20  C3* UNL     1     -41.711  26.141  -0.271  0.00  0.00    +0.171 C 
ATOM     21  C4* UNL     1     -42.685  25.033   0.091  0.00  0.00    +0.175 C 
BRANCH  18  22
ATOM     22  O2* UNL     1     -42.305  27.660   1.530  0.00  0.00    -0.378 OA
ATOM     23  H2* UNL     1     -41.856  28.371   2.013  0.00  0.00    +0.211 HD
ENDBRANCH  18  22
BRANCH  20  24
ATOM     24  O3* UNL     1     -42.288  27.095  -1.137  0.00  0.00    -0.379 OA
ATOM     25  H3* UNL     1     -43.024  26.688  -1.621  0.00  0.00    +0.211 HD
ENDBRANCH  20  24
BRANCH  21  26
ATOM     26  C5* UNL     1     -42.803  23.958  -0.974  0.00  0.00    +0.169 C 
BRANCH  26  27
ATOM     27  O5* UNL     1     -42.599  22.694  -0.367  0.00  0.00    -0.379 OA
ATOM     28  H5* UNL     1     -41.944  22.779   0.345  0.00  0.00    +0.211 HD
ENDBRANCH  26  27
ENDBRANCH  21  26
ENDBRANCH   1  19
BRANCH   4  29
ATOM     29  C   UNL     1     -35.747  20.979   3.106  0.00  0.00    +0.123 C 
BRANCH  29  30
ATOM     30  C   UNL     1     -34.797  20.768   1.972  0.00  0.00    -0.004 C 
ATOM     31  C   UNL     1     -34.767  19.663   1.219  0.00  0.00    -0.003 C 
ENDBRANCH  29  30
ENDBRANCH   4  29
TORSDOF 8
ENDMDL
MODEL 9
REMARK VINA RESULT:      -5.4      3.411      5.948
REMARK  Name = 194405
REMARK  8 active torsions:
REMARK  status: ('A' for Active; 'I' for Inactive)
REMARK    1  A    between atoms: N_1  and  C1*_19
REMARK    2  A    between atoms: N_4  and  C_11
REMARK    3  A    between atoms: N_4  and  C_29
REMARK    4  A    between atoms: C2*_18  and  O2*_22
REMARK    5  A    between atoms: C3*_20  and  O3*_24
REMARK    6  A    between atoms: C4*_21  and  C5*_26
REMARK    7  A    between atoms: C5*_26  and  O5*_27
REMARK    8  A    between atoms: C_29  and  C_30
REMARK                            x       y       z     vdW  Elec       q    Type
REMARK                         _______ _______ _______ _____ _____    ______ ____
ROOT
ATOM      1  N   UNL     1     -35.274  21.285   2.287  0.00  0.00    -0.247 N 
ATOM      2  N   UNL     1     -35.061  23.492   2.040  0.00  0.00    -0.242 NA
ATOM      3  N   UNL     1     -35.243  21.134   4.712  0.00  0.00    -0.228 NA
ATOM      4  N   UNL     1     -34.838  25.343   4.442  0.00  0.00    -0.267 N 
ATOM      5  N   UNL     1     -35.008  23.337   5.736  0.00  0.00    -0.228 NA
ATOM      6  C   UNL     1     -35.199  21.803   3.550  0.00  0.00    +0.152 C 
ATOM      7  C   UNL     1     -35.186  22.339   1.416  0.00  0.00    +0.223 C 
ATOM      8  C   UNL     1     -35.068  23.172   3.375  0.00  0.00    +0.141 C 
ATOM      9  C   UNL     1     -34.972  23.946   4.526  0.00  0.00    +0.153 C 
ATOM     10  C   UNL     1     -35.140  21.989   5.752  0.00  0.00    +0.253 C 
ENDROOT
BRANCH   4  11
ATOM     11  C   UNL     1     -34.785  26.124   3.250  0.00  0.00    +0.053 C 
ATOM     12  C   UNL     1     -33.563  26.331   2.626  0.00  0.00    +0.015 C 
ATOM     13  C   UNL     1     -35.953  26.663   2.734  0.00  0.00    +0.015 C 
ATOM     14  C   UNL     1     -33.510  27.094   1.459  0.00  0.00    +0.001 C 
ATOM     15  C   UNL     1     -35.901  27.425   1.567  0.00  0.00    +0.001 C 
ATOM     16  C   UNL     1     -34.679  27.641   0.929  0.00  0.00    +0.000 C 
ENDBRANCH   4  11
BRANCH   1  19
ATOM     17  O4* UNL     1     -34.130  19.227   1.983  0.00  0.00    -0.333 OA
ATOM     18  C2* UNL     1     -35.979  19.660   0.515  0.00  0.00    +0.187 C 
ATOM     19  C1* UNL     1     -35.419  19.874   1.923  0.00  0.00    +0.225 C 
ATOM     20  C3* UNL     1     -34.747  19.276  -0.282  0.00  0.00    +0.171 C 
ATOM     21  C4* UNL     1     -33.915  18.529   0.747  0.00  0.00    +0.175 C 
BRANCH  18  22
ATOM     22  O2* UNL     1     -36.927  18.594   0.545  0.00  0.00    -0.378 OA
ATOM     23  H2* UNL     1     -37.749  18.880   0.116  0.00  0.00    +0.211 HD
ENDBRANCH  18  22
BRANCH  20  24
ATOM     24  O3* UNL     1     -35.033  18.482  -1.414  0.00  0.00    -0.379 OA
ATOM     25  H3* UNL     1     -35.528  17.695  -1.139  0.00  0.00    +0.211 HD
ENDBRANCH  20  24
BRANCH  21  26
ATOM     26  C5* UNL     1     -32.432  18.500   0.422  0.00  0.00    +0.169 C 
BRANCH  26  27
ATOM     27  O5* UNL     1     -31.835  17.427   1.127  0.00  0.00    -0.379 OA
ATOM     28  H5* UNL     1     -31.623  17.711   2.031  0.00  0.00    +0.211 HD
ENDBRANCH  26  27
ENDBRANCH  21  26
ENDBRANCH   1  19
BRANCH   4  29
ATOM     29  C   UNL     1     -35.016  26.134   5.674  0.00  0.00    +0.123 C 
BRANCH  29  30
ATOM     30  C   UNL     1     -33.698  26.251   6.367  0.00  0.00    -0.004 C 
ATOM     31  C   UNL     1     -32.877  27.299   6.239  0.00  0.00    -0.003 C 
ENDBRANCH  29  30
ENDBRANCH   4  29
TORSDOF 8
ENDMDL
