MODEL 1
REMARK VINA RESULT:      -5.6      0.000      0.000
REMARK  Name = 21144901
REMARK  13 active torsions:
REMARK  status: ('A' for Active; 'I' for Inactive)
REMARK    1  A    between atoms: C_1  and  C_3
REMARK    2  A    between atoms: C_1  and  S_9
REMARK    3  A    between atoms: C_1  and  C_20
REMARK    4  A    between atoms: S_9  and  C_10
REMARK    5  A    between atoms: C_10  and  C_11
REMARK    6  A    between atoms: C_11  and  N_13
REMARK    7  A    between atoms: C_11  and  C_19
REMARK    8  A    between atoms: C_20  and  C_22
REMARK    9  A    between atoms: C_22  and  C_23
REMARK   10  A    between atoms: C_23  and  C_24
REMARK   11  A    between atoms: C_24  and  C_25
REMARK   12  A    between atoms: C_25  and  C_26
REMARK   13  A    between atoms: C_26  and  C_27
REMARK                            x       y       z     vdW  Elec       q    Type
REMARK                         _______ _______ _______ _____ _____    ______ ____
ROOT
ATOM      1  C   UNK A   1     -35.455  21.288   1.905  0.00  0.00    +0.078 C 
ENDROOT
BRANCH   1   3
ATOM      2 CL   UNK A   1     -33.894  23.081  -0.056  0.00  0.00    -0.083 Cl
ATOM      3  C   UNK A   1     -34.207  20.716   1.260  0.00  0.00    -0.001 C 
ATOM      4  C   UNK A   1     -33.460  21.467   0.371  0.00  0.00    +0.054 C 
ATOM      5  C   UNK A   1     -33.849  19.421   1.596  0.00  0.00    -0.003 C 
ATOM      6  C   UNK A   1     -32.318  20.906  -0.202  0.00  0.00    +0.011 C 
ATOM      7  C   UNK A   1     -32.708  18.861   1.023  0.00  0.00    -0.000 C 
ATOM      8  C   UNK A   1     -31.942  19.603   0.125  0.00  0.00    +0.001 C 
ENDBRANCH   1   3
BRANCH   1   9
ATOM      9  S   UNK A   1     -36.968  20.547   1.183  0.00  0.00    -0.134 S 
BRANCH   9  10
ATOM     10  C   UNK A   1     -37.556  22.005   0.295  0.00  0.00    +0.089 C 
BRANCH  10  11
ATOM     11  C   UNK A   1     -38.977  22.423   0.679  0.00  0.00    +0.187 C 
BRANCH  11  13
ATOM     12  O   UNK A   0     -40.606  24.811   0.958  0.00  0.00    -0.275 OA
ATOM     13  N   UNK A   1     -38.932  23.398   1.748  0.00  0.00    -0.296 N 
ATOM     14  C   UNK A   0     -39.754  24.509   1.790  0.00  0.00    +0.223 C 
ATOM     15  C   UNK A   0     -39.517  25.344   3.021  0.00  0.00    +0.095 C 
ATOM     16  H   UNK A   1     -38.286  23.264   2.479  0.00  0.00    +0.150 HD
ENDBRANCH  11  13
BRANCH  11  19
ATOM     17  O   UNK A   1     -40.341  21.154   2.155  0.00  0.00    -0.244 OA
ATOM     18  O   UNK A   1     -40.297  20.580  -0.051  0.00  0.00    -0.244 OA
ATOM     19  C   UNK A   1     -39.977  21.281   0.951  0.00  0.00    +0.383 C 
ENDBRANCH  11  19
ENDBRANCH  10  11
ENDBRANCH   9  10
ENDBRANCH   1   9
BRANCH   1  20
ATOM     20  C   UNK A   1     -35.495  21.113   3.432  0.00  0.00    +0.080 C 
BRANCH  20  22
ATOM     21  O   UNK A   1     -37.007  22.950   3.842  0.00  0.00    -0.296 OA
ATOM     22  C   UNK A   1     -35.964  22.372   4.149  0.00  0.00    +0.152 C 
BRANCH  22  23
ATOM     23  C   UNK A   1     -35.068  22.923   5.241  0.00  0.00    +0.065 C 
BRANCH  23  24
ATOM     24  C   UNK A   1     -34.292  24.157   4.793  0.00  0.00    +0.008 C 
BRANCH  24  25
ATOM     25  C   UNK A   1     -34.619  25.397   5.632  0.00  0.00    +0.000 C 
BRANCH  25  26
ATOM     26  C   UNK A   1     -35.873  26.102   5.112  0.00  0.00    +0.000 C 
BRANCH  26  27
ATOM     27  C   UNK A   1     -35.887  26.267   3.591  0.00  0.00    +0.000 C 
ATOM     28  C   UNK A   1     -35.066  27.451   3.101  0.00  0.00    +0.000 C 
ENDBRANCH  26  27
ENDBRANCH  25  26
ENDBRANCH  24  25
ENDBRANCH  23  24
ENDBRANCH  22  23
ENDBRANCH  20  22
ENDBRANCH   1  20
TORSDOF 13
ENDMDL
MODEL 2
REMARK VINA RESULT:      -5.5      1.552      2.349
REMARK  Name = 21144901
REMARK  13 active torsions:
REMARK  status: ('A' for Active; 'I' for Inactive)
REMARK    1  A    between atoms: C_1  and  C_3
REMARK    2  A    between atoms: C_1  and  S_9
REMARK    3  A    between atoms: C_1  and  C_20
REMARK    4  A    between atoms: S_9  and  C_10
REMARK    5  A    between atoms: C_10  and  C_11
REMARK    6  A    between atoms: C_11  and  N_13
REMARK    7  A    between atoms: C_11  and  C_19
REMARK    8  A    between atoms: C_20  and  C_22
REMARK    9  A    between atoms: C_22  and  C_23
REMARK   10  A    between atoms: C_23  and  C_24
REMARK   11  A    between atoms: C_24  and  C_25
REMARK   12  A    between atoms: C_25  and  C_26
REMARK   13  A    between atoms: C_26  and  C_27
REMARK                            x       y       z     vdW  Elec       q    Type
REMARK                         _______ _______ _______ _____ _____    ______ ____
ROOT
ATOM      1  C   UNK A   1     -34.992  21.290   0.693  0.00  0.00    +0.078 C 
ENDROOT
BRANCH   1   3
ATOM      2 CL   UNK A   1     -32.465  22.230  -0.801  0.00  0.00    -0.083 Cl
ATOM      3  C   UNK A   1     -33.780  20.379   0.707  0.00  0.00    -0.001 C 
ATOM      4  C   UNK A   1     -32.613  20.740   0.056  0.00  0.00    +0.054 C 
ATOM      5  C   UNK A   1     -33.887  19.180   1.392  0.00  0.00    -0.003 C 
ATOM      6  C   UNK A   1     -31.520  19.875   0.092  0.00  0.00    +0.011 C 
ATOM      7  C   UNK A   1     -32.794  18.316   1.427  0.00  0.00    -0.000 C 
ATOM      8  C   UNK A   1     -31.610  18.664   0.777  0.00  0.00    +0.001 C 
ENDBRANCH   1   3
BRANCH   1   9
ATOM      9  S   UNK A   1     -36.543  20.325   0.846  0.00  0.00    -0.134 S 
BRANCH   9  10
ATOM     10  C   UNK A   1     -37.500  21.544   1.772  0.00  0.00    +0.089 C 
BRANCH  10  11
ATOM     11  C   UNK A   1     -38.557  22.261   0.929  0.00  0.00    +0.187 C 
BRANCH  11  13
ATOM     12  O   UNK A   0     -38.736  23.956   3.280  0.00  0.00    -0.275 OA
ATOM     13  N   UNK A   1     -38.355  23.692   0.998  0.00  0.00    -0.296 N 
ATOM     14  C   UNK A   0     -38.463  24.414   2.174  0.00  0.00    +0.223 C 
ATOM     15  C   UNK A   0     -38.180  25.879   1.969  0.00  0.00    +0.095 C 
ATOM     16  H   UNK A   1     -38.130  24.175   0.170  0.00  0.00    +0.150 HD
ENDBRANCH  11  13
BRANCH  11  19
ATOM     17  O   UNK A   1     -40.863  22.326   0.358  0.00  0.00    -0.244 OA
ATOM     18  O   UNK A   1     -40.227  21.111   2.179  0.00  0.00    -0.244 OA
ATOM     19  C   UNK A   1     -40.023  21.850   1.174  0.00  0.00    +0.383 C 
ENDBRANCH  11  19
ENDBRANCH  10  11
ENDBRANCH   9  10
ENDBRANCH   1   9
BRANCH   1  20
ATOM     20  C   UNK A   1     -34.966  22.367   1.790  0.00  0.00    +0.080 C 
BRANCH  20  22
ATOM     21  O   UNK A   1     -35.348  24.074   0.126  0.00  0.00    -0.296 OA
ATOM     22  C   UNK A   1     -34.868  23.776   1.220  0.00  0.00    +0.152 C 
BRANCH  22  23
ATOM     23  C   UNK A   1     -34.110  24.803   2.038  0.00  0.00    +0.065 C 
BRANCH  23  24
ATOM     24  C   UNK A   1     -34.878  25.243   3.280  0.00  0.00    +0.008 C 
BRANCH  24  25
ATOM     25  C   UNK A   1     -34.031  25.169   4.555  0.00  0.00    +0.000 C 
BRANCH  25  26
ATOM     26  C   UNK A   1     -34.818  24.538   5.706  0.00  0.00    +0.000 C 
BRANCH  26  27
ATOM     27  C   UNK A   1     -35.541  23.250   5.309  0.00  0.00    +0.000 C 
ATOM     28  C   UNK A   1     -35.411  22.138   6.339  0.00  0.00    +0.000 C 
ENDBRANCH  26  27
ENDBRANCH  25  26
ENDBRANCH  24  25
ENDBRANCH  23  24
ENDBRANCH  22  23
ENDBRANCH  20  22
ENDBRANCH   1  20
TORSDOF 13
ENDMDL
MODEL 3
REMARK VINA RESULT:      -5.5      2.751      4.558
REMARK  Name = 21144901
REMARK  13 active torsions:
REMARK  status: ('A' for Active; 'I' for Inactive)
REMARK    1  A    between atoms: C_1  and  C_3
REMARK    2  A    between atoms: C_1  and  S_9
REMARK    3  A    between atoms: C_1  and  C_20
REMARK    4  A    between atoms: S_9  and  C_10
REMARK    5  A    between atoms: C_10  and  C_11
REMARK    6  A    between atoms: C_11  and  N_13
REMARK    7  A    between atoms: C_11  and  C_19
REMARK    8  A    between atoms: C_20  and  C_22
REMARK    9  A    between atoms: C_22  and  C_23
REMARK   10  A    between atoms: C_23  and  C_24
REMARK   11  A    between atoms: C_24  and  C_25
REMARK   12  A    between atoms: C_25  and  C_26
REMARK   13  A    between atoms: C_26  and  C_27
REMARK                            x       y       z     vdW  Elec       q    Type
REMARK                         _______ _______ _______ _____ _____    ______ ____
ROOT
ATOM      1  C   UNK A   1     -36.413  24.942   3.539  0.00  0.00    +0.078 C 
ENDROOT
BRANCH   1   3
ATOM      2 CL   UNK A   1     -36.020  22.470   1.741  0.00  0.00    -0.083 Cl
ATOM      3  C   UNK A   1     -35.942  23.657   4.193  0.00  0.00    -0.001 C 
ATOM      4  C   UNK A   1     -35.745  22.511   3.443  0.00  0.00    +0.054 C 
ATOM      5  C   UNK A   1     -35.718  23.678   5.559  0.00  0.00    -0.003 C 
ATOM      6  C   UNK A   1     -35.311  21.349   4.080  0.00  0.00    +0.011 C 
ATOM      7  C   UNK A   1     -35.285  22.516   6.195  0.00  0.00    -0.000 C 
ATOM      8  C   UNK A   1     -35.081  21.351   5.456  0.00  0.00    +0.001 C 
ENDBRANCH   1   3
BRANCH   1   9
ATOM      9  S   UNK A   1     -38.235  25.109   3.653  0.00  0.00    -0.134 S 
BRANCH   9  10
ATOM     10  C   UNK A   1     -38.619  24.784   1.919  0.00  0.00    +0.089 C 
BRANCH  10  11
ATOM     11  C   UNK A   1     -39.864  23.916   1.721  0.00  0.00    +0.187 C 
BRANCH  11  13
ATOM     12  O   UNK A   0     -40.248  21.065   2.112  0.00  0.00    -0.275 OA
ATOM     13  N   UNK A   1     -39.579  22.853   0.780  0.00  0.00    -0.296 N 
ATOM     14  C   UNK A   0     -39.798  21.517   1.063  0.00  0.00    +0.223 C 
ATOM     15  C   UNK A   0     -39.439  20.626  -0.097  0.00  0.00    +0.095 C 
ATOM     16  H   UNK A   1     -39.212  23.093  -0.101  0.00  0.00    +0.150 HD
ENDBRANCH  11  13
BRANCH  11  19
ATOM     17  O   UNK A   1     -41.305  25.792   1.956  0.00  0.00    -0.244 OA
ATOM     18  O   UNK A   1     -41.990  24.050   0.655  0.00  0.00    -0.244 OA
ATOM     19  C   UNK A   1     -41.176  24.662   1.403  0.00  0.00    +0.383 C 
ENDBRANCH  11  19
ENDBRANCH  10  11
ENDBRANCH   9  10
ENDBRANCH   1   9
BRANCH   1  20
ATOM     20  C   UNK A   1     -35.760  26.206   4.123  0.00  0.00    +0.080 C 
BRANCH  20  22
ATOM     21  O   UNK A   1     -34.136  26.354   2.342  0.00  0.00    -0.296 OA
ATOM     22  C   UNK A   1     -34.375  26.464   3.546  0.00  0.00    +0.152 C 
BRANCH  22  23
ATOM     23  C   UNK A   1     -33.273  26.825   4.523  0.00  0.00    +0.065 C 
BRANCH  23  24
ATOM     24  C   UNK A   1     -33.677  26.579   5.974  0.00  0.00    +0.008 C 
BRANCH  24  25
ATOM     25  C   UNK A   1     -32.665  27.151   6.973  0.00  0.00    +0.000 C 
BRANCH  25  26
ATOM     26  C   UNK A   1     -31.710  28.133   6.292  0.00  0.00    +0.000 C 
BRANCH  26  27
ATOM     27  C   UNK A   1     -31.722  29.526   6.924  0.00  0.00    +0.000 C 
ATOM     28  C   UNK A   1     -31.974  30.645   5.926  0.00  0.00    +0.000 C 
ENDBRANCH  26  27
ENDBRANCH  25  26
ENDBRANCH  24  25
ENDBRANCH  23  24
ENDBRANCH  22  23
ENDBRANCH  20  22
ENDBRANCH   1  20
TORSDOF 13
ENDMDL
MODEL 4
REMARK VINA RESULT:      -5.4      1.378      2.431
REMARK  Name = 21144901
REMARK  13 active torsions:
REMARK  status: ('A' for Active; 'I' for Inactive)
REMARK    1  A    between atoms: C_1  and  C_3
REMARK    2  A    between atoms: C_1  and  S_9
REMARK    3  A    between atoms: C_1  and  C_20
REMARK    4  A    between atoms: S_9  and  C_10
REMARK    5  A    between atoms: C_10  and  C_11
REMARK    6  A    between atoms: C_11  and  N_13
REMARK    7  A    between atoms: C_11  and  C_19
REMARK    8  A    between atoms: C_20  and  C_22
REMARK    9  A    between atoms: C_22  and  C_23
REMARK   10  A    between atoms: C_23  and  C_24
REMARK   11  A    between atoms: C_24  and  C_25
REMARK   12  A    between atoms: C_25  and  C_26
REMARK   13  A    between atoms: C_26  and  C_27
REMARK                            x       y       z     vdW  Elec       q    Type
REMARK                         _______ _______ _______ _____ _____    ______ ____
ROOT
ATOM      1  C   UNK A   1     -34.890  21.109   1.383  0.00  0.00    +0.078 C 
ENDROOT
BRANCH   1   3
ATOM      2 CL   UNK A   1     -32.759  22.447  -0.396  0.00  0.00    -0.083 Cl
ATOM      3  C   UNK A   1     -33.659  20.300   1.021  0.00  0.00    -0.001 C 
ATOM      4  C   UNK A   1     -32.664  20.840   0.226  0.00  0.00    +0.054 C 
ATOM      5  C   UNK A   1     -33.572  19.009   1.515  0.00  0.00    -0.003 C 
ATOM      6  C   UNK A   1     -31.547  20.066  -0.086  0.00  0.00    +0.011 C 
ATOM      7  C   UNK A   1     -32.456  18.235   1.202  0.00  0.00    -0.000 C 
ATOM      8  C   UNK A   1     -31.442  18.763   0.403  0.00  0.00    +0.001 C 
ENDBRANCH   1   3
BRANCH   1   9
ATOM      9  S   UNK A   1     -36.080  21.156  -0.011  0.00  0.00    -0.134 S 
BRANCH   9  10
ATOM     10  C   UNK A   1     -36.736  22.812   0.283  0.00  0.00    +0.089 C 
BRANCH  10  11
ATOM     11  C   UNK A   1     -38.062  22.818   1.048  0.00  0.00    +0.187 C 
BRANCH  11  13
ATOM     12  O   UNK A   0     -40.335  21.051   1.429  0.00  0.00    -0.275 OA
ATOM     13  N   UNK A   1     -39.159  22.587   0.133  0.00  0.00    -0.296 N 
ATOM     14  C   UNK A   0     -40.201  21.720   0.408  0.00  0.00    +0.223 C 
ATOM     15  C   UNK A   0     -41.219  21.686  -0.702  0.00  0.00    +0.095 C 
ATOM     16  H   UNK A   1     -39.164  23.069  -0.725  0.00  0.00    +0.150 HD
ENDBRANCH  11  13
BRANCH  11  19
ATOM     17  O   UNK A   1     -38.572  23.719   3.188  0.00  0.00    -0.244 OA
ATOM     18  O   UNK A   1     -38.246  25.158   1.450  0.00  0.00    -0.244 OA
ATOM     19  C   UNK A   1     -38.306  24.016   1.988  0.00  0.00    +0.383 C 
ENDBRANCH  11  19
ENDBRANCH  10  11
ENDBRANCH   9  10
ENDBRANCH   1   9
BRANCH   1  20
ATOM     20  C   UNK A   1     -35.615  20.598   2.639  0.00  0.00    +0.080 C 
BRANCH  20  22
ATOM     21  O   UNK A   1     -35.134  20.896   4.986  0.00  0.00    -0.296 OA
ATOM     22  C   UNK A   1     -35.276  21.415   3.879  0.00  0.00    +0.152 C 
BRANCH  22  23
ATOM     23  C   UNK A   1     -35.159  22.918   3.708  0.00  0.00    +0.065 C 
BRANCH  23  24
ATOM     24  C   UNK A   1     -34.909  23.637   5.030  0.00  0.00    +0.008 C 
BRANCH  24  25
ATOM     25  C   UNK A   1     -36.029  24.620   5.388  0.00  0.00    +0.000 C 
BRANCH  25  26
ATOM     26  C   UNK A   1     -35.484  26.038   5.566  0.00  0.00    +0.000 C 
BRANCH  26  27
ATOM     27  C   UNK A   1     -33.972  26.137   5.351  0.00  0.00    +0.000 C 
ATOM     28  C   UNK A   1     -33.224  26.704   6.548  0.00  0.00    +0.000 C 
ENDBRANCH  26  27
ENDBRANCH  25  26
ENDBRANCH  24  25
ENDBRANCH  23  24
ENDBRANCH  22  23
ENDBRANCH  20  22
ENDBRANCH   1  20
TORSDOF 13
ENDMDL
MODEL 5
REMARK VINA RESULT:      -5.4      3.138      4.660
REMARK  Name = 21144901
REMARK  13 active torsions:
REMARK  status: ('A' for Active; 'I' for Inactive)
REMARK    1  A    between atoms: C_1  and  C_3
REMARK    2  A    between atoms: C_1  and  S_9
REMARK    3  A    between atoms: C_1  and  C_20
REMARK    4  A    between atoms: S_9  and  C_10
REMARK    5  A    between atoms: C_10  and  C_11
REMARK    6  A    between atoms: C_11  and  N_13
REMARK    7  A    between atoms: C_11  and  C_19
REMARK    8  A    between atoms: C_20  and  C_22
REMARK    9  A    between atoms: C_22  and  C_23
REMARK   10  A    between atoms: C_23  and  C_24
REMARK   11  A    between atoms: C_24  and  C_25
REMARK   12  A    between atoms: C_25  and  C_26
REMARK   13  A    between atoms: C_26  and  C_27
REMARK                            x       y       z     vdW  Elec       q    Type
REMARK                         _______ _______ _______ _____ _____    ______ ____
ROOT
ATOM      1  C   UNK A   1     -35.279  20.595   0.556  0.00  0.00    +0.078 C 
ENDROOT
BRANCH   1   3
ATOM      2 CL   UNK A   1     -33.020  22.155  -0.845  0.00  0.00    -0.083 Cl
ATOM      3  C   UNK A   1     -33.883  20.003   0.588  0.00  0.00    -0.001 C 
ATOM      4  C   UNK A   1     -32.823  20.652  -0.021  0.00  0.00    +0.054 C 
ATOM      5  C   UNK A   1     -33.713  18.797   1.247  0.00  0.00    -0.003 C 
ATOM      6  C   UNK A   1     -31.554  20.077   0.030  0.00  0.00    +0.011 C 
ATOM      7  C   UNK A   1     -32.444  18.222   1.296  0.00  0.00    -0.000 C 
ATOM      8  C   UNK A   1     -31.364  18.862   0.689  0.00  0.00    +0.001 C 
ENDBRANCH   1   3
BRANCH   1   9
ATOM      9  S   UNK A   1     -36.214  19.997  -0.903  0.00  0.00    -0.134 S 
BRANCH   9  10
ATOM     10  C   UNK A   1     -37.396  18.953  -0.025  0.00  0.00    +0.089 C 
BRANCH  10  11
ATOM     11  C   UNK A   1     -37.135  17.454  -0.198  0.00  0.00    +0.187 C 
BRANCH  11  13
ATOM     12  O   UNK A   0     -34.890  15.627   0.019  0.00  0.00    -0.275 OA
ATOM     13  N   UNK A   1     -36.074  17.247  -1.160  0.00  0.00    -0.296 N 
ATOM     14  C   UNK A   0     -35.041  16.348  -0.962  0.00  0.00    +0.223 C 
ATOM     15  C   UNK A   0     -34.088  16.313  -2.128  0.00  0.00    +0.095 C 
ATOM     16  H   UNK A   1     -36.086  17.772  -1.993  0.00  0.00    +0.150 HD
ENDBRANCH  11  13
BRANCH  11  19
ATOM     17  O   UNK A   1     -39.353  17.160  -1.001  0.00  0.00    -0.244 OA
ATOM     18  O   UNK A   1     -38.275  15.366  -0.098  0.00  0.00    -0.244 OA
ATOM     19  C   UNK A   1     -38.370  16.571  -0.468  0.00  0.00    +0.383 C 
ENDBRANCH  11  19
ENDBRANCH  10  11
ENDBRANCH   9  10
ENDBRANCH   1   9
BRANCH   1  20
ATOM     20  C   UNK A   1     -36.099  20.308   1.824  0.00  0.00    +0.080 C 
BRANCH  20  22
ATOM     21  O   UNK A   1     -37.437  22.149   2.632  0.00  0.00    -0.296 OA
ATOM     22  C   UNK A   1     -36.354  21.564   2.648  0.00  0.00    +0.152 C 
BRANCH  22  23
ATOM     23  C   UNK A   1     -35.196  22.101   3.468  0.00  0.00    +0.065 C 
BRANCH  23  24
ATOM     24  C   UNK A   1     -35.441  21.984   4.969  0.00  0.00    +0.008 C 
BRANCH  24  25
ATOM     25  C   UNK A   1     -35.195  23.302   5.712  0.00  0.00    +0.000 C 
BRANCH  25  26
ATOM     26  C   UNK A   1     -35.974  24.451   5.070  0.00  0.00    +0.000 C 
BRANCH  26  27
ATOM     27  C   UNK A   1     -35.681  25.811   5.707  0.00  0.00    +0.000 C 
ATOM     28  C   UNK A   1     -34.197  26.118   5.827  0.00  0.00    +0.000 C 
ENDBRANCH  26  27
ENDBRANCH  25  26
ENDBRANCH  24  25
ENDBRANCH  23  24
ENDBRANCH  22  23
ENDBRANCH  20  22
ENDBRANCH   1  20
TORSDOF 13
ENDMDL
MODEL 6
REMARK VINA RESULT:      -5.3      3.827      6.742
REMARK  Name = 21144901
REMARK  13 active torsions:
REMARK  status: ('A' for Active; 'I' for Inactive)
REMARK    1  A    between atoms: C_1  and  C_3
REMARK    2  A    between atoms: C_1  and  S_9
REMARK    3  A    between atoms: C_1  and  C_20
REMARK    4  A    between atoms: S_9  and  C_10
REMARK    5  A    between atoms: C_10  and  C_11
REMARK    6  A    between atoms: C_11  and  N_13
REMARK    7  A    between atoms: C_11  and  C_19
REMARK    8  A    between atoms: C_20  and  C_22
REMARK    9  A    between atoms: C_22  and  C_23
REMARK   10  A    between atoms: C_23  and  C_24
REMARK   11  A    between atoms: C_24  and  C_25
REMARK   12  A    between atoms: C_25  and  C_26
REMARK   13  A    between atoms: C_26  and  C_27
REMARK                            x       y       z     vdW  Elec       q    Type
REMARK                         _______ _______ _______ _____ _____    ______ ____
ROOT
ATOM      1  C   UNK A   1     -35.759  25.027   2.849  0.00  0.00    +0.078 C 
ENDROOT
BRANCH   1   3
ATOM      2 CL   UNK A   1     -35.829  25.620   5.873  0.00  0.00    -0.083 Cl
ATOM      3  C   UNK A   1     -35.591  23.861   3.804  0.00  0.00    -0.001 C 
ATOM      4  C   UNK A   1     -35.613  24.058   5.174  0.00  0.00    +0.054 C 
ATOM      5  C   UNK A   1     -35.417  22.602   3.255  0.00  0.00    -0.003 C 
ATOM      6  C   UNK A   1     -35.456  22.961   6.020  0.00  0.00    +0.011 C 
ATOM      7  C   UNK A   1     -35.260  21.507   4.102  0.00  0.00    -0.000 C 
ATOM      8  C   UNK A   1     -35.280  21.685   5.485  0.00  0.00    +0.001 C 
ENDBRANCH   1   3
BRANCH   1   9
ATOM      9  S   UNK A   1     -34.306  25.185   1.742  0.00  0.00    -0.134 S 
BRANCH   9  10
ATOM     10  C   UNK A   1     -34.050  26.963   1.925  0.00  0.00    +0.089 C 
BRANCH  10  11
ATOM     11  C   UNK A   1     -34.401  27.492   3.317  0.00  0.00    +0.187 C 
BRANCH  11  13
ATOM     12  O   UNK A   0     -33.846  29.774   1.611  0.00  0.00    -0.275 OA
ATOM     13  N   UNK A   1     -35.172  28.711   3.201  0.00  0.00    -0.296 N 
ATOM     14  C   UNK A   0     -34.823  29.747   2.355  0.00  0.00    +0.223 C 
ATOM     15  C   UNK A   0     -35.809  30.884   2.411  0.00  0.00    +0.095 C 
ATOM     16  H   UNK A   1     -35.983  28.808   3.751  0.00  0.00    +0.150 HD
ENDBRANCH  11  13
BRANCH  11  19
ATOM     17  O   UNK A   1     -32.895  28.793   4.616  0.00  0.00    -0.244 OA
ATOM     18  O   UNK A   1     -32.726  26.522   4.705  0.00  0.00    -0.244 OA
ATOM     19  C   UNK A   1     -33.235  27.612   4.319  0.00  0.00    +0.383 C 
ENDBRANCH  11  19
ENDBRANCH  10  11
ENDBRANCH   9  10
ENDBRANCH   1   9
BRANCH   1  20
ATOM     20  C   UNK A   1     -37.031  24.943   1.990  0.00  0.00    +0.080 C 
BRANCH  20  22
ATOM     21  O   UNK A   1     -37.610  27.280   1.807  0.00  0.00    -0.296 OA
ATOM     22  C   UNK A   1     -37.939  26.152   2.176  0.00  0.00    +0.152 C 
BRANCH  22  23
ATOM     23  C   UNK A   1     -39.262  25.923   2.880  0.00  0.00    +0.065 C 
BRANCH  23  24
ATOM     24  C   UNK A   1     -39.684  24.457   2.867  0.00  0.00    +0.008 C 
BRANCH  24  25
ATOM     25  C   UNK A   1     -40.554  24.104   1.655  0.00  0.00    +0.000 C 
BRANCH  25  26
ATOM     26  C   UNK A   1     -40.052  22.834   0.966  0.00  0.00    +0.000 C 
BRANCH  26  27
ATOM     27  C   UNK A   1     -39.328  21.876   1.915  0.00  0.00    +0.000 C 
ATOM     28  C   UNK A   1     -38.112  21.208   1.292  0.00  0.00    +0.000 C 
ENDBRANCH  26  27
ENDBRANCH  25  26
ENDBRANCH  24  25
ENDBRANCH  23  24
ENDBRANCH  22  23
ENDBRANCH  20  22
ENDBRANCH   1  20
TORSDOF 13
ENDMDL
MODEL 7
REMARK VINA RESULT:      -5.3      4.113      7.503
REMARK  Name = 21144901
REMARK  13 active torsions:
REMARK  status: ('A' for Active; 'I' for Inactive)
REMARK    1  A    between atoms: C_1  and  C_3
REMARK    2  A    between atoms: C_1  and  S_9
REMARK    3  A    between atoms: C_1  and  C_20
REMARK    4  A    between atoms: S_9  and  C_10
REMARK    5  A    between atoms: C_10  and  C_11
REMARK    6  A    between atoms: C_11  and  N_13
REMARK    7  A    between atoms: C_11  and  C_19
REMARK    8  A    between atoms: C_20  and  C_22
REMARK    9  A    between atoms: C_22  and  C_23
REMARK   10  A    between atoms: C_23  and  C_24
REMARK   11  A    between atoms: C_24  and  C_25
REMARK   12  A    between atoms: C_25  and  C_26
REMARK   13  A    between atoms: C_26  and  C_27
REMARK                            x       y       z     vdW  Elec       q    Type
REMARK                         _______ _______ _______ _____ _____    ______ ____
ROOT
ATOM      1  C   UNK A   1     -35.840  25.413   2.970  0.00  0.00    +0.078 C 
ENDROOT
BRANCH   1   3
ATOM      2 CL   UNK A   1     -35.595  25.715   6.028  0.00  0.00    -0.083 Cl
ATOM      3  C   UNK A   1     -35.658  24.153   3.795  0.00  0.00    -0.001 C 
ATOM      4  C   UNK A   1     -35.541  24.218   5.172  0.00  0.00    +0.054 C 
ATOM      5  C   UNK A   1     -35.614  22.946   3.119  0.00  0.00    -0.003 C 
ATOM      6  C   UNK A   1     -35.375  23.038   5.896  0.00  0.00    +0.011 C 
ATOM      7  C   UNK A   1     -35.447  21.767   3.843  0.00  0.00    -0.000 C 
ATOM      8  C   UNK A   1     -35.329  21.812   5.232  0.00  0.00    +0.001 C 
ENDBRANCH   1   3
BRANCH   1   9
ATOM      9  S   UNK A   1     -34.249  25.958   2.240  0.00  0.00    -0.134 S 
BRANCH   9  10
ATOM     10  C   UNK A   1     -33.986  27.409   3.281  0.00  0.00    +0.089 C 
BRANCH  10  11
ATOM     11  C   UNK A   1     -32.558  27.523   3.822  0.00  0.00    +0.187 C 
BRANCH  11  13
ATOM     12  O   UNK A   0     -31.012  27.648   6.277  0.00  0.00    -0.275 OA
ATOM     13  N   UNK A   1     -32.470  28.629   4.751  0.00  0.00    -0.296 N 
ATOM     14  C   UNK A   0     -31.701  28.591   5.900  0.00  0.00    +0.223 C 
ATOM     15  C   UNK A   0     -31.770  29.882   6.672  0.00  0.00    +0.095 C 
ATOM     16  H   UNK A   1     -32.982  29.448   4.556  0.00  0.00    +0.150 HD
ENDBRANCH  11  13
BRANCH  11  19
ATOM     17  O   UNK A   1     -30.633  26.544   2.830  0.00  0.00    -0.244 OA
ATOM     18  O   UNK A   1     -31.398  28.525   2.000  0.00  0.00    -0.244 OA
ATOM     19  C   UNK A   1     -31.427  27.527   2.775  0.00  0.00    +0.383 C 
ENDBRANCH  11  19
ENDBRANCH  10  11
ENDBRANCH   9  10
ENDBRANCH   1   9
BRANCH   1  20
ATOM     20  C   UNK A   1     -36.879  25.270   1.846  0.00  0.00    +0.080 C 
BRANCH  20  22
ATOM     21  O   UNK A   1     -37.903  27.418   1.437  0.00  0.00    -0.296 OA
ATOM     22  C   UNK A   1     -37.994  26.302   1.950  0.00  0.00    +0.152 C 
BRANCH  22  23
ATOM     23  C   UNK A   1     -39.220  25.919   2.757  0.00  0.00    +0.065 C 
BRANCH  23  24
ATOM     24  C   UNK A   1     -39.371  24.408   2.908  0.00  0.00    +0.008 C 
BRANCH  24  25
ATOM     25  C   UNK A   1     -40.317  23.802   1.866  0.00  0.00    +0.000 C 
BRANCH  25  26
ATOM     26  C   UNK A   1     -39.598  22.762   1.005  0.00  0.00    +0.000 C 
BRANCH  26  27
ATOM     27  C   UNK A   1     -38.933  21.654   1.825  0.00  0.00    +0.000 C 
ATOM     28  C   UNK A   1     -37.850  20.903   1.065  0.00  0.00    +0.000 C 
ENDBRANCH  26  27
ENDBRANCH  25  26
ENDBRANCH  24  25
ENDBRANCH  23  24
ENDBRANCH  22  23
ENDBRANCH  20  22
ENDBRANCH   1  20
TORSDOF 13
ENDMDL
MODEL 8
REMARK VINA RESULT:      -5.3      2.684      3.730
REMARK  Name = 21144901
REMARK  13 active torsions:
REMARK  status: ('A' for Active; 'I' for Inactive)
REMARK    1  A    between atoms: C_1  and  C_3
REMARK    2  A    between atoms: C_1  and  S_9
REMARK    3  A    between atoms: C_1  and  C_20
REMARK    4  A    between atoms: S_9  and  C_10
REMARK    5  A    between atoms: C_10  and  C_11
REMARK    6  A    between atoms: C_11  and  N_13
REMARK    7  A    between atoms: C_11  and  C_19
REMARK    8  A    between atoms: C_20  and  C_22
REMARK    9  A    between atoms: C_22  and  C_23
REMARK   10  A    between atoms: C_23  and  C_24
REMARK   11  A    between atoms: C_24  and  C_25
REMARK   12  A    between atoms: C_25  and  C_26
REMARK   13  A    between atoms: C_26  and  C_27
REMARK                            x       y       z     vdW  Elec       q    Type
REMARK                         _______ _______ _______ _____ _____    ______ ____
ROOT
ATOM      1  C   UNK A   1     -36.570  22.638   2.834  0.00  0.00    +0.078 C 
ENDROOT
BRANCH   1   3
ATOM      2 CL   UNK A   1     -38.618  24.858   3.445  0.00  0.00    -0.083 Cl
ATOM      3  C   UNK A   1     -36.207  24.062   2.455  0.00  0.00    -0.001 C 
ATOM      4  C   UNK A   1     -37.081  25.106   2.701  0.00  0.00    +0.054 C 
ATOM      5  C   UNK A   1     -34.975  24.272   1.858  0.00  0.00    -0.003 C 
ATOM      6  C   UNK A   1     -36.712  26.401   2.339  0.00  0.00    +0.011 C 
ATOM      7  C   UNK A   1     -34.608  25.567   1.496  0.00  0.00    -0.000 C 
ATOM      8  C   UNK A   1     -35.475  26.632   1.737  0.00  0.00    +0.001 C 
ENDBRANCH   1   3
BRANCH   1   9
ATOM      9  S   UNK A   1     -37.204  21.713   1.384  0.00  0.00    -0.134 S 
BRANCH   9  10
ATOM     10  C   UNK A   1     -38.946  21.681   1.856  0.00  0.00    +0.089 C 
BRANCH  10  11
ATOM     11  C   UNK A   1     -39.899  22.005   0.703  0.00  0.00    +0.187 C 
BRANCH  11  13
ATOM     12  O   UNK A   0     -39.971  24.817  -0.020  0.00  0.00    -0.275 OA
ATOM     13  N   UNK A   1     -40.864  22.998   1.127  0.00  0.00    -0.296 N 
ATOM     14  C   UNK A   0     -40.812  24.320   0.725  0.00  0.00    +0.223 C 
ATOM     15  C   UNK A   0     -41.948  25.130   1.290  0.00  0.00    +0.095 C 
ATOM     16  H   UNK A   1     -41.590  22.718   1.729  0.00  0.00    +0.150 HD
ENDBRANCH  11  13
BRANCH  11  19
ATOM     17  O   UNK A   1     -41.813  20.785  -0.000  0.00  0.00    -0.244 OA
ATOM     18  O   UNK A   1     -39.749  19.950  -0.491  0.00  0.00    -0.244 OA
ATOM     19  C   UNK A   1     -40.549  20.801  -0.008  0.00  0.00    +0.383 C 
ENDBRANCH  11  19
ENDBRANCH  10  11
ENDBRANCH   9  10
ENDBRANCH   1   9
BRANCH   1  20
ATOM     20  C   UNK A   1     -35.405  21.850   3.456  0.00  0.00    +0.080 C 
BRANCH  20  22
ATOM     21  O   UNK A   1     -35.240  20.895   5.667  0.00  0.00    -0.296 OA
ATOM     22  C   UNK A   1     -35.417  21.900   4.978  0.00  0.00    +0.152 C 
BRANCH  22  23
ATOM     23  C   UNK A   1     -35.703  23.242   5.625  0.00  0.00    +0.065 C 
BRANCH  23  24
ATOM     24  C   UNK A   1     -34.504  24.183   5.570  0.00  0.00    +0.008 C 
BRANCH  24  25
ATOM     25  C   UNK A   1     -34.911  25.660   5.606  0.00  0.00    +0.000 C 
BRANCH  25  26
ATOM     26  C   UNK A   1     -33.707  26.571   5.360  0.00  0.00    +0.000 C 
BRANCH  26  27
ATOM     27  C   UNK A   1     -32.970  26.960   6.643  0.00  0.00    +0.000 C 
ATOM     28  C   UNK A   1     -32.015  28.131   6.465  0.00  0.00    +0.000 C 
ENDBRANCH  26  27
ENDBRANCH  25  26
ENDBRANCH  24  25
ENDBRANCH  23  24
ENDBRANCH  22  23
ENDBRANCH  20  22
ENDBRANCH   1  20
TORSDOF 13
ENDMDL
MODEL 9
REMARK VINA RESULT:      -5.3      3.044      4.827
REMARK  Name = 21144901
REMARK  13 active torsions:
REMARK  status: ('A' for Active; 'I' for Inactive)
REMARK    1  A    between atoms: C_1  and  C_3
REMARK    2  A    between atoms: C_1  and  S_9
REMARK    3  A    between atoms: C_1  and  C_20
REMARK    4  A    between atoms: S_9  and  C_10
REMARK    5  A    between atoms: C_10  and  C_11
REMARK    6  A    between atoms: C_11  and  N_13
REMARK    7  A    between atoms: C_11  and  C_19
REMARK    8  A    between atoms: C_20  and  C_22
REMARK    9  A    between atoms: C_22  and  C_23
REMARK   10  A    between atoms: C_23  and  C_24
REMARK   11  A    between atoms: C_24  and  C_25
REMARK   12  A    between atoms: C_25  and  C_26
REMARK   13  A    between atoms: C_26  and  C_27
REMARK                            x       y       z     vdW  Elec       q    Type
REMARK                         _______ _______ _______ _____ _____    ______ ____
ROOT
ATOM      1  C   UNK A   1     -35.123  21.097   1.044  0.00  0.00    +0.078 C 
ENDROOT
BRANCH   1   3
ATOM      2 CL   UNK A   1     -32.914  22.360  -0.695  0.00  0.00    -0.083 Cl
ATOM      3  C   UNK A   1     -33.827  20.327   0.875  0.00  0.00    -0.001 C 
ATOM      4  C   UNK A   1     -32.795  20.837   0.107  0.00  0.00    +0.054 C 
ATOM      5  C   UNK A   1     -33.720  19.104   1.514  0.00  0.00    -0.003 C 
ATOM      6  C   UNK A   1     -31.618  20.100  -0.025  0.00  0.00    +0.011 C 
ATOM      7  C   UNK A   1     -32.544  18.368   1.381  0.00  0.00    -0.000 C 
ATOM      8  C   UNK A   1     -31.493  18.866   0.612  0.00  0.00    +0.001 C 
ENDBRANCH   1   3
BRANCH   1   9
ATOM      9  S   UNK A   1     -36.519  19.964   1.401  0.00  0.00    -0.134 S 
BRANCH   9  10
ATOM     10  C   UNK A   1     -36.835  19.423  -0.292  0.00  0.00    +0.089 C 
BRANCH  10  11
ATOM     11  C   UNK A   1     -37.002  17.908  -0.428  0.00  0.00    +0.187 C 
BRANCH  11  13
ATOM     12  O   UNK A   0     -36.146  15.216   0.247  0.00  0.00    -0.275 OA
ATOM     13  N   UNK A   1     -35.722  17.295  -0.712  0.00  0.00    -0.296 N 
ATOM     14  C   UNK A   0     -35.408  15.998  -0.346  0.00  0.00    +0.223 C 
ATOM     15  C   UNK A   0     -34.022  15.604  -0.784  0.00  0.00    +0.095 C 
ATOM     16  H   UNK A   1     -35.042  17.826  -1.187  0.00  0.00    +0.150 HD
ENDBRANCH  11  13
BRANCH  11  19
ATOM     17  O   UNK A   1     -37.813  17.371  -2.597  0.00  0.00    -0.244 OA
ATOM     18  O   UNK A   1     -39.230  17.166  -0.823  0.00  0.00    -0.244 OA
ATOM     19  C   UNK A   1     -38.122  17.424  -1.372  0.00  0.00    +0.383 C 
ENDBRANCH  11  19
ENDBRANCH  10  11
ENDBRANCH   9  10
ENDBRANCH   1   9
BRANCH   1  20
ATOM     20  C   UNK A   1     -35.062  22.172   2.141  0.00  0.00    +0.080 C 
BRANCH  20  22
ATOM     21  O   UNK A   1     -36.288  23.841   0.898  0.00  0.00    -0.296 OA
ATOM     22  C   UNK A   1     -36.129  23.244   1.964  0.00  0.00    +0.152 C 
BRANCH  22  23
ATOM     23  C   UNK A   1     -36.974  23.588   3.176  0.00  0.00    +0.065 C 
BRANCH  23  24
ATOM     24  C   UNK A   1     -36.614  24.945   3.773  0.00  0.00    +0.008 C 
BRANCH  24  25
ATOM     25  C   UNK A   1     -36.213  24.852   5.249  0.00  0.00    +0.000 C 
BRANCH  25  26
ATOM     26  C   UNK A   1     -35.026  23.906   5.441  0.00  0.00    +0.000 C 
BRANCH  26  27
ATOM     27  C   UNK A   1     -35.348  22.706   6.335  0.00  0.00    +0.000 C 
ATOM     28  C   UNK A   1     -35.044  21.365   5.684  0.00  0.00    +0.000 C 
ENDBRANCH  26  27
ENDBRANCH  25  26
ENDBRANCH  24  25
ENDBRANCH  23  24
ENDBRANCH  22  23
ENDBRANCH  20  22
ENDBRANCH   1  20
TORSDOF 13
ENDMDL
