MODEL 1
REMARK VINA RESULT:      -6.6      0.000      0.000
REMARK  Name = 52999
REMARK  5 active torsions:
REMARK  status: ('A' for Active; 'I' for Inactive)
REMARK    1  A    between atoms: N_2  and  S_14
REMARK    2  A    between atoms: C_10  and  O_27
REMARK    3  A    between atoms: S_14  and  C_17
REMARK    4  A    between atoms: C_18  and  C_24
REMARK    5  A    between atoms: C_24  and  O_25
REMARK                            x       y       z     vdW  Elec       q    Type
REMARK                         _______ _______ _______ _____ _____    ______ ____
ROOT
ATOM      1  O   UNL     1     -32.965  26.381   6.289  0.00  0.00    -0.250 OA
ATOM      2  N   UNL     1     -32.636  28.403   5.190  0.00  0.00    -0.168 N 
ATOM      3  N   UNL     1     -34.411  27.026   4.572  0.00  0.00    -0.191 N 
ATOM      4  N   UNL     1     -36.290  26.053   3.577  0.00  0.00    -0.264 NA
ATOM      5  N   UNL     1     -35.129  24.946   5.362  0.00  0.00    -0.229 NA
ATOM      6  N   UNL     1     -37.054  23.919   4.364  0.00  0.00    -0.247 NA
ATOM      7  C   UNL     1     -33.331  27.170   5.425  0.00  0.00    +0.333 C 
ATOM      8  C   UNL     1     -35.326  25.950   4.500  0.00  0.00    +0.229 C 
ATOM      9  C   UNL     1     -37.120  24.997   3.567  0.00  0.00    +0.142 C 
ATOM     10  C   UNL     1     -36.034  23.962   5.236  0.00  0.00    +0.331 C 
ATOM     11  C   UNL     1     -38.227  25.026   2.570  0.00  0.00    +0.145 C 
ATOM     12  H   UNL     1     -33.013  29.013   4.515  0.00  0.00    +0.178 HD
ATOM     13  H   UNL     1     -34.560  27.762   3.935  0.00  0.00    +0.170 HD
ENDROOT
BRANCH   2  14
ATOM     14  S   UNL     1     -31.205  28.900   5.989  0.00  0.00    +0.077 S 
ATOM     15  O   UNL     1     -30.175  27.892   5.781  0.00  0.00    -0.150 OA
ATOM     16  O   UNL     1     -31.543  29.321   7.340  0.00  0.00    -0.150 OA
BRANCH  14  17
ATOM     17  C   UNL     1     -30.778  30.337   5.084  0.00  0.00    +0.131 C 
ATOM     18  C   UNL     1     -29.468  30.815   5.055  0.00  0.00    +0.094 C 
ATOM     19  C   UNL     1     -31.781  31.007   4.383  0.00  0.00    +0.020 C 
ATOM     20  C   UNL     1     -29.160  31.962   4.325  0.00  0.00    +0.008 C 
ATOM     21  C   UNL     1     -31.473  32.155   3.652  0.00  0.00    +0.001 C 
ATOM     22  C   UNL     1     -30.163  32.633   3.624  0.00  0.00    +0.000 C 
BRANCH  18  24
ATOM     23  O   UNL     1     -27.592  29.357   5.257  0.00  0.00    -0.245 OA
ATOM     24  C   UNL     1     -28.395  30.142   5.775  0.00  0.00    +0.343 C 
BRANCH  24  25
ATOM     25  O   UNL     1     -28.387  30.488   7.098  0.00  0.00    -0.441 OA
ATOM     26  C   UNL     1     -27.995  29.471   8.028  0.00  0.00    +0.256 C 
ENDBRANCH  24  25
ENDBRANCH  18  24
ENDBRANCH  14  17
ENDBRANCH   2  14
BRANCH  10  27
ATOM     27  O   UNL     1     -35.903  22.890   6.088  0.00  0.00    -0.395 OA
ATOM     28  C   UNL     1     -35.142  21.790   5.611  0.00  0.00    +0.271 C 
ENDBRANCH  10  27
TORSDOF 5
ENDMDL
MODEL 2
REMARK VINA RESULT:      -6.6      4.622      7.988
REMARK  Name = 52999
REMARK  5 active torsions:
REMARK  status: ('A' for Active; 'I' for Inactive)
REMARK    1  A    between atoms: N_2  and  S_14
REMARK    2  A    between atoms: C_10  and  O_27
REMARK    3  A    between atoms: S_14  and  C_17
REMARK    4  A    between atoms: C_18  and  C_24
REMARK    5  A    between atoms: C_24  and  O_25
REMARK                            x       y       z     vdW  Elec       q    Type
REMARK                         _______ _______ _______ _____ _____    ______ ____
ROOT
ATOM      1  O   UNL     1     -38.620  24.563   1.802  0.00  0.00    -0.250 OA
ATOM      2  N   UNL     1     -37.071  25.751   3.064  0.00  0.00    -0.168 N 
ATOM      3  N   UNL     1     -39.329  26.314   3.175  0.00  0.00    -0.191 N 
ATOM      4  N   UNL     1     -41.410  27.272   3.645  0.00  0.00    -0.264 NA
ATOM      5  N   UNL     1     -41.217  25.433   2.115  0.00  0.00    -0.229 NA
ATOM      6  N   UNL     1     -43.368  26.392   2.574  0.00  0.00    -0.247 NA
ATOM      7  C   UNL     1     -38.399  25.463   2.604  0.00  0.00    +0.333 C 
ATOM      8  C   UNL     1     -40.728  26.341   2.967  0.00  0.00    +0.229 C 
ATOM      9  C   UNL     1     -42.729  27.238   3.398  0.00  0.00    +0.142 C 
ATOM     10  C   UNL     1     -42.549  25.518   1.967  0.00  0.00    +0.331 C 
ATOM     11  C   UNL     1     -43.569  28.240   4.112  0.00  0.00    +0.145 C 
ATOM     12  H   UNL     1     -36.971  26.455   3.745  0.00  0.00    +0.178 HD
ATOM     13  H   UNL     1     -38.973  26.984   3.803  0.00  0.00    +0.170 HD
ENDROOT
BRANCH   2  14
ATOM     14  S   UNL     1     -35.645  24.970   2.524  0.00  0.00    +0.077 S 
ATOM     15  O   UNL     1     -34.535  25.908   2.603  0.00  0.00    -0.150 OA
ATOM     16  O   UNL     1     -35.929  24.289   1.270  0.00  0.00    -0.150 OA
BRANCH  14  17
ATOM     17  C   UNL     1     -35.433  23.740   3.752  0.00  0.00    +0.131 C 
ATOM     18  C   UNL     1     -35.106  24.074   5.065  0.00  0.00    +0.094 C 
ATOM     19  C   UNL     1     -35.597  22.402   3.393  0.00  0.00    +0.020 C 
ATOM     20  C   UNL     1     -34.943  23.071   6.021  0.00  0.00    +0.008 C 
ATOM     21  C   UNL     1     -35.434  21.398   4.348  0.00  0.00    +0.001 C 
ATOM     22  C   UNL     1     -35.107  21.733   5.662  0.00  0.00    +0.000 C 
BRANCH  18  24
ATOM     23  O   UNL     1     -35.853  26.233   5.750  0.00  0.00    -0.245 OA
ATOM     24  C   UNL     1     -34.926  25.460   5.478  0.00  0.00    +0.343 C 
BRANCH  24  25
ATOM     25  O   UNL     1     -33.603  25.800   5.527  0.00  0.00    -0.441 OA
ATOM     26  C   UNL     1     -33.211  26.719   6.553  0.00  0.00    +0.256 C 
ENDBRANCH  24  25
ENDBRANCH  18  24
ENDBRANCH  14  17
ENDBRANCH   2  14
BRANCH  10  27
ATOM     27  O   UNL     1     -43.134  24.618   1.107  0.00  0.00    -0.395 OA
ATOM     28  C   UNL     1     -44.552  24.642   1.030  0.00  0.00    +0.271 C 
ENDBRANCH  10  27
TORSDOF 5
ENDMDL
MODEL 3
REMARK VINA RESULT:      -6.5      1.518      2.035
REMARK  Name = 52999
REMARK  5 active torsions:
REMARK  status: ('A' for Active; 'I' for Inactive)
REMARK    1  A    between atoms: N_2  and  S_14
REMARK    2  A    between atoms: C_10  and  O_27
REMARK    3  A    between atoms: S_14  and  C_17
REMARK    4  A    between atoms: C_18  and  C_24
REMARK    5  A    between atoms: C_24  and  O_25
REMARK                            x       y       z     vdW  Elec       q    Type
REMARK                         _______ _______ _______ _____ _____    ______ ____
ROOT
ATOM      1  O   UNL     1     -33.021  26.358   6.380  0.00  0.00    -0.250 OA
ATOM      2  N   UNL     1     -32.628  28.329   5.213  0.00  0.00    -0.168 N 
ATOM      3  N   UNL     1     -34.343  26.905   4.535  0.00  0.00    -0.191 N 
ATOM      4  N   UNL     1     -36.137  25.866   3.454  0.00  0.00    -0.264 NA
ATOM      5  N   UNL     1     -35.101  24.858   5.370  0.00  0.00    -0.229 NA
ATOM      6  N   UNL     1     -36.941  23.763   4.285  0.00  0.00    -0.247 NA
ATOM      7  C   UNL     1     -33.328  27.101   5.456  0.00  0.00    +0.333 C 
ATOM      8  C   UNL     1     -35.242  25.817   4.448  0.00  0.00    +0.229 C 
ATOM      9  C   UNL     1     -36.955  24.802   3.434  0.00  0.00    +0.142 C 
ATOM     10  C   UNL     1     -35.987  23.859   5.225  0.00  0.00    +0.331 C 
ATOM     11  C   UNL     1     -37.987  24.771   2.359  0.00  0.00    +0.145 C 
ATOM     12  H   UNL     1     -32.959  28.902   4.484  0.00  0.00    +0.178 HD
ATOM     13  H   UNL     1     -34.450  27.609   3.854  0.00  0.00    +0.170 HD
ENDROOT
BRANCH   2  14
ATOM     14  S   UNL     1     -31.262  28.879   6.088  0.00  0.00    +0.077 S 
ATOM     15  O   UNL     1     -30.425  27.735   6.423  0.00  0.00    -0.150 OA
ATOM     16  O   UNL     1     -31.710  29.780   7.140  0.00  0.00    -0.150 OA
BRANCH  14  17
ATOM     17  C   UNL     1     -30.439  29.847   4.884  0.00  0.00    +0.131 C 
ATOM     18  C   UNL     1     -29.838  29.262   3.770  0.00  0.00    +0.094 C 
ATOM     19  C   UNL     1     -30.391  31.230   5.057  0.00  0.00    +0.020 C 
ATOM     20  C   UNL     1     -29.189  30.060   2.828  0.00  0.00    +0.008 C 
ATOM     21  C   UNL     1     -29.742  32.029   4.115  0.00  0.00    +0.001 C 
ATOM     22  C   UNL     1     -29.141  31.443   3.001  0.00  0.00    +0.000 C 
BRANCH  18  24
ATOM     23  O   UNL     1     -30.821  27.208   3.063  0.00  0.00    -0.245 OA
ATOM     24  C   UNL     1     -29.867  27.821   3.556  0.00  0.00    +0.343 C 
BRANCH  24  25
ATOM     25  O   UNL     1     -28.704  27.231   3.968  0.00  0.00    -0.441 OA
ATOM     26  C   UNL     1     -28.039  26.387   3.021  0.00  0.00    +0.256 C 
ENDBRANCH  24  25
ENDBRANCH  18  24
ENDBRANCH  14  17
ENDBRANCH   2  14
BRANCH  10  27
ATOM     27  O   UNL     1     -35.911  22.830   6.135  0.00  0.00    -0.395 OA
ATOM     28  C   UNL     1     -35.108  21.716   5.768  0.00  0.00    +0.271 C 
ENDBRANCH  10  27
TORSDOF 5
ENDMDL
MODEL 4
REMARK VINA RESULT:      -6.4      4.251      7.357
REMARK  Name = 52999
REMARK  5 active torsions:
REMARK  status: ('A' for Active; 'I' for Inactive)
REMARK    1  A    between atoms: N_2  and  S_14
REMARK    2  A    between atoms: C_10  and  O_27
REMARK    3  A    between atoms: S_14  and  C_17
REMARK    4  A    between atoms: C_18  and  C_24
REMARK    5  A    between atoms: C_24  and  O_25
REMARK                            x       y       z     vdW  Elec       q    Type
REMARK                         _______ _______ _______ _____ _____    ______ ____
ROOT
ATOM      1  O   UNL     1     -38.278  23.634   3.138  0.00  0.00    -0.250 OA
ATOM      2  N   UNL     1     -37.091  25.018   4.580  0.00  0.00    -0.168 N 
ATOM      3  N   UNL     1     -39.069  25.780   3.611  0.00  0.00    -0.191 N 
ATOM      4  N   UNL     1     -40.936  27.012   2.930  0.00  0.00    -0.264 NA
ATOM      5  N   UNL     1     -40.574  24.778   2.129  0.00  0.00    -0.229 NA
ATOM      6  N   UNL     1     -42.501  26.014   1.410  0.00  0.00    -0.247 NA
ATOM      7  C   UNL     1     -38.187  24.716   3.705  0.00  0.00    +0.333 C 
ATOM      8  C   UNL     1     -40.257  25.861   2.848  0.00  0.00    +0.229 C 
ATOM      9  C   UNL     1     -42.050  27.016   2.181  0.00  0.00    +0.142 C 
ATOM     10  C   UNL     1     -41.713  24.928   1.432  0.00  0.00    +0.331 C 
ATOM     11  C   UNL     1     -42.871  28.259   2.211  0.00  0.00    +0.145 C 
ATOM     12  H   UNL     1     -37.107  25.887   5.042  0.00  0.00    +0.178 HD
ATOM     13  H   UNL     1     -38.839  26.579   4.139  0.00  0.00    +0.170 HD
ENDROOT
BRANCH   2  14
ATOM     14  S   UNL     1     -35.758  23.987   4.887  0.00  0.00    +0.077 S 
ATOM     15  O   UNL     1     -36.254  22.705   5.367  0.00  0.00    -0.150 OA
ATOM     16  O   UNL     1     -34.769  24.718   5.666  0.00  0.00    -0.150 OA
BRANCH  14  17
ATOM     17  C   UNL     1     -35.103  23.772   3.278  0.00  0.00    +0.131 C 
ATOM     18  C   UNL     1     -34.473  24.818   2.605  0.00  0.00    +0.094 C 
ATOM     19  C   UNL     1     -35.221  22.522   2.670  0.00  0.00    +0.020 C 
ATOM     20  C   UNL     1     -33.962  24.615   1.323  0.00  0.00    +0.008 C 
ATOM     21  C   UNL     1     -34.710  22.318   1.389  0.00  0.00    +0.001 C 
ATOM     22  C   UNL     1     -34.080  23.365   0.715  0.00  0.00    +0.000 C 
BRANCH  18  24
ATOM     23  O   UNL     1     -35.240  26.974   3.276  0.00  0.00    -0.245 OA
ATOM     24  C   UNL     1     -34.331  26.137   3.207  0.00  0.00    +0.343 C 
BRANCH  24  25
ATOM     25  O   UNL     1     -33.067  26.335   3.687  0.00  0.00    -0.441 OA
ATOM     26  C   UNL     1     -32.877  27.450   4.565  0.00  0.00    +0.256 C 
ENDBRANCH  24  25
ENDBRANCH  18  24
ENDBRANCH  14  17
ENDBRANCH   2  14
BRANCH  10  27
ATOM     27  O   UNL     1     -42.111  23.858   0.665  0.00  0.00    -0.395 OA
ATOM     28  C   UNL     1     -41.161  23.353  -0.263  0.00  0.00    +0.271 C 
ENDBRANCH  10  27
TORSDOF 5
ENDMDL
MODEL 5
REMARK VINA RESULT:      -6.3      6.457      9.021
REMARK  Name = 52999
REMARK  5 active torsions:
REMARK  status: ('A' for Active; 'I' for Inactive)
REMARK    1  A    between atoms: N_2  and  S_14
REMARK    2  A    between atoms: C_10  and  O_27
REMARK    3  A    between atoms: S_14  and  C_17
REMARK    4  A    between atoms: C_18  and  C_24
REMARK    5  A    between atoms: C_24  and  O_25
REMARK                            x       y       z     vdW  Elec       q    Type
REMARK                         _______ _______ _______ _____ _____    ______ ____
ROOT
ATOM      1  O   UNL     1     -40.825  25.006   2.447  0.00  0.00    -0.250 OA
ATOM      2  N   UNL     1     -38.874  25.713   3.494  0.00  0.00    -0.168 N 
ATOM      3  N   UNL     1     -40.839  26.934   3.764  0.00  0.00    -0.191 N 
ATOM      4  N   UNL     1     -42.482  28.491   4.351  0.00  0.00    -0.264 NA
ATOM      5  N   UNL     1     -43.000  26.629   2.927  0.00  0.00    -0.229 NA
ATOM      6  N   UNL     1     -44.711  28.208   3.509  0.00  0.00    -0.247 NA
ATOM      7  C   UNL     1     -40.266  25.824   3.168  0.00  0.00    +0.333 C 
ATOM      8  C   UNL     1     -42.180  27.375   3.675  0.00  0.00    +0.229 C 
ATOM      9  C   UNL     1     -43.770  28.848   4.220  0.00  0.00    +0.142 C 
ATOM     10  C   UNL     1     -44.255  27.108   2.889  0.00  0.00    +0.331 C 
ATOM     11  C   UNL     1     -44.198  30.081   4.940  0.00  0.00    +0.145 C 
ATOM     12  H   UNL     1     -38.501  26.376   4.118  0.00  0.00    +0.178 HD
ATOM     13  H   UNL     1     -40.239  27.487   4.315  0.00  0.00    +0.170 HD
ENDROOT
BRANCH   2  14
ATOM     14  S   UNL     1     -37.807  24.519   2.883  0.00  0.00    +0.077 S 
ATOM     15  O   UNL     1     -37.449  24.863   1.514  0.00  0.00    -0.150 OA
ATOM     16  O   UNL     1     -38.354  23.204   3.179  0.00  0.00    -0.150 OA
BRANCH  14  17
ATOM     17  C   UNL     1     -36.404  24.746   3.905  0.00  0.00    +0.131 C 
ATOM     18  C   UNL     1     -35.271  23.945   3.770  0.00  0.00    +0.094 C 
ATOM     19  C   UNL     1     -36.436  25.752   4.871  0.00  0.00    +0.020 C 
ATOM     20  C   UNL     1     -34.169  24.149   4.600  0.00  0.00    +0.008 C 
ATOM     21  C   UNL     1     -35.334  25.957   5.702  0.00  0.00    +0.001 C 
ATOM     22  C   UNL     1     -34.201  25.155   5.566  0.00  0.00    +0.000 C 
BRANCH  18  24
ATOM     23  O   UNL     1     -34.823  23.046   1.607  0.00  0.00    -0.245 OA
ATOM     24  C   UNL     1     -35.200  22.884   2.774  0.00  0.00    +0.343 C 
BRANCH  24  25
ATOM     25  O   UNL     1     -35.604  21.684   3.291  0.00  0.00    -0.441 OA
ATOM     26  C   UNL     1     -35.422  20.531   2.462  0.00  0.00    +0.256 C 
ENDBRANCH  24  25
ENDBRANCH  18  24
ENDBRANCH  14  17
ENDBRANCH   2  14
BRANCH  10  27
ATOM     27  O   UNL     1     -45.164  26.397   2.140  0.00  0.00    -0.395 OA
ATOM     28  C   UNL     1     -45.710  25.232   2.742  0.00  0.00    +0.271 C 
ENDBRANCH  10  27
TORSDOF 5
ENDMDL
MODEL 6
REMARK VINA RESULT:      -6.3      6.188     10.938
REMARK  Name = 52999
REMARK  5 active torsions:
REMARK  status: ('A' for Active; 'I' for Inactive)
REMARK    1  A    between atoms: N_2  and  S_14
REMARK    2  A    between atoms: C_10  and  O_27
REMARK    3  A    between atoms: S_14  and  C_17
REMARK    4  A    between atoms: C_18  and  C_24
REMARK    5  A    between atoms: C_24  and  O_25
REMARK                            x       y       z     vdW  Elec       q    Type
REMARK                         _______ _______ _______ _____ _____    ______ ____
ROOT
ATOM      1  O   UNL     1     -39.138  26.855   1.712  0.00  0.00    -0.250 OA
ATOM      2  N   UNL     1     -41.011  26.140   2.887  0.00  0.00    -0.168 N 
ATOM      3  N   UNL     1     -38.895  25.400   3.522  0.00  0.00    -0.191 N 
ATOM      4  N   UNL     1     -37.063  24.376   4.552  0.00  0.00    -0.264 NA
ATOM      5  N   UNL     1     -36.763  25.831   2.667  0.00  0.00    -0.229 NA
ATOM      6  N   UNL     1     -34.860  24.796   3.699  0.00  0.00    -0.247 NA
ATOM      7  C   UNL     1     -39.601  26.186   2.628  0.00  0.00    +0.333 C 
ATOM      8  C   UNL     1     -37.498  25.191   3.583  0.00  0.00    +0.229 C 
ATOM      9  C   UNL     1     -35.728  24.225   4.548  0.00  0.00    +0.142 C 
ATOM     10  C   UNL     1     -35.448  25.585   2.786  0.00  0.00    +0.331 C 
ATOM     11  C   UNL     1     -35.153  23.333   5.594  0.00  0.00    +0.145 C 
ATOM     12  H   UNL     1     -41.311  25.621   3.668  0.00  0.00    +0.178 HD
ATOM     13  H   UNL     1     -39.432  24.927   4.199  0.00  0.00    +0.170 HD
ENDROOT
BRANCH   2  14
ATOM     14  S   UNL     1     -42.216  26.914   1.946  0.00  0.00    +0.077 S 
ATOM     15  O   UNL     1     -42.403  26.165   0.712  0.00  0.00    -0.150 OA
ATOM     16  O   UNL     1     -41.926  28.338   1.892  0.00  0.00    -0.150 OA
BRANCH  14  17
ATOM     17  C   UNL     1     -43.634  26.706   2.951  0.00  0.00    +0.131 C 
ATOM     18  C   UNL     1     -43.835  27.482   4.092  0.00  0.00    +0.094 C 
ATOM     19  C   UNL     1     -44.573  25.739   2.591  0.00  0.00    +0.020 C 
ATOM     20  C   UNL     1     -44.975  27.292   4.873  0.00  0.00    +0.008 C 
ATOM     21  C   UNL     1     -45.713  25.548   3.372  0.00  0.00    +0.001 C 
ATOM     22  C   UNL     1     -45.914  26.325   4.513  0.00  0.00    +0.000 C 
BRANCH  18  24
ATOM     23  O   UNL     1     -41.695  28.272   4.787  0.00  0.00    -0.245 OA
ATOM     24  C   UNL     1     -42.877  28.500   4.501  0.00  0.00    +0.343 C 
BRANCH  24  25
ATOM     25  O   UNL     1     -43.448  29.743   4.527  0.00  0.00    -0.441 OA
ATOM     26  C   UNL     1     -43.543  30.381   5.806  0.00  0.00    +0.256 C 
ENDBRANCH  24  25
ENDBRANCH  18  24
ENDBRANCH  14  17
ENDBRANCH   2  14
BRANCH  10  27
ATOM     27  O   UNL     1     -34.620  26.206   1.880  0.00  0.00    -0.395 OA
ATOM     28  C   UNL     1     -35.230  27.132   0.992  0.00  0.00    +0.271 C 
ENDBRANCH  10  27
TORSDOF 5
ENDMDL
MODEL 7
REMARK VINA RESULT:      -6.3      2.100      3.550
REMARK  Name = 52999
REMARK  5 active torsions:
REMARK  status: ('A' for Active; 'I' for Inactive)
REMARK    1  A    between atoms: N_2  and  S_14
REMARK    2  A    between atoms: C_10  and  O_27
REMARK    3  A    between atoms: S_14  and  C_17
REMARK    4  A    between atoms: C_18  and  C_24
REMARK    5  A    between atoms: C_24  and  O_25
REMARK                            x       y       z     vdW  Elec       q    Type
REMARK                         _______ _______ _______ _____ _____    ______ ____
ROOT
ATOM      1  O   UNL     1     -34.476  27.867   3.697  0.00  0.00    -0.250 OA
ATOM      2  N   UNL     1     -32.492  28.119   4.881  0.00  0.00    -0.168 N 
ATOM      3  N   UNL     1     -33.723  26.152   5.091  0.00  0.00    -0.191 N 
ATOM      4  N   UNL     1     -34.543  24.037   5.657  0.00  0.00    -0.264 NA
ATOM      5  N   UNL     1     -35.734  25.452   4.127  0.00  0.00    -0.229 NA
ATOM      6  N   UNL     1     -36.605  23.287   4.686  0.00  0.00    -0.247 NA
ATOM      7  C   UNL     1     -33.664  27.394   4.482  0.00  0.00    +0.333 C 
ATOM      8  C   UNL     1     -34.721  25.160   4.951  0.00  0.00    +0.229 C 
ATOM      9  C   UNL     1     -35.528  23.143   5.475  0.00  0.00    +0.142 C 
ATOM     10  C   UNL     1     -36.642  24.466   4.044  0.00  0.00    +0.331 C 
ATOM     11  C   UNL     1     -35.414  21.859   6.222  0.00  0.00    +0.145 C 
ATOM     12  H   UNL     1     -31.856  27.660   5.476  0.00  0.00    +0.178 HD
ATOM     13  H   UNL     1     -32.979  25.933   5.699  0.00  0.00    +0.170 HD
ENDROOT
BRANCH   2  14
ATOM     14  S   UNL     1     -32.110  29.720   4.405  0.00  0.00    +0.077 S 
ATOM     15  O   UNL     1     -33.102  30.627   4.963  0.00  0.00    -0.150 OA
ATOM     16  O   UNL     1     -31.841  29.733   2.975  0.00  0.00    -0.150 OA
BRANCH  14  17
ATOM     17  C   UNL     1     -30.586  29.976   5.227  0.00  0.00    +0.131 C 
ATOM     18  C   UNL     1     -29.735  31.022   4.870  0.00  0.00    +0.094 C 
ATOM     19  C   UNL     1     -30.228  29.107   6.258  0.00  0.00    +0.020 C 
ATOM     20  C   UNL     1     -28.527  31.200   5.543  0.00  0.00    +0.008 C 
ATOM     21  C   UNL     1     -29.019  29.285   6.932  0.00  0.00    +0.001 C 
ATOM     22  C   UNL     1     -28.169  30.332   6.574  0.00  0.00    +0.000 C 
BRANCH  18  24
ATOM     23  O   UNL     1     -30.921  32.847   3.894  0.00  0.00    -0.245 OA
ATOM     24  C   UNL     1     -30.075  31.949   3.798  0.00  0.00    +0.343 C 
BRANCH  24  25
ATOM     25  O   UNL     1     -29.339  31.704   2.672  0.00  0.00    -0.441 OA
ATOM     26  C   UNL     1     -29.828  32.264   1.448  0.00  0.00    +0.256 C 
ENDBRANCH  24  25
ENDBRANCH  18  24
ENDBRANCH  14  17
ENDBRANCH   2  14
BRANCH  10  27
ATOM     27  O   UNL     1     -37.718  24.686   3.216  0.00  0.00    -0.395 OA
ATOM     28  C   UNL     1     -37.822  25.981   2.641  0.00  0.00    +0.271 C 
ENDBRANCH  10  27
TORSDOF 5
ENDMDL
MODEL 8
REMARK VINA RESULT:      -6.3      1.400      2.777
REMARK  Name = 52999
REMARK  5 active torsions:
REMARK  status: ('A' for Active; 'I' for Inactive)
REMARK    1  A    between atoms: N_2  and  S_14
REMARK    2  A    between atoms: C_10  and  O_27
REMARK    3  A    between atoms: S_14  and  C_17
REMARK    4  A    between atoms: C_18  and  C_24
REMARK    5  A    between atoms: C_24  and  O_25
REMARK                            x       y       z     vdW  Elec       q    Type
REMARK                         _______ _______ _______ _____ _____    ______ ____
ROOT
ATOM      1  O   UNL     1     -33.017  26.455   6.436  0.00  0.00    -0.250 OA
ATOM      2  N   UNL     1     -32.520  28.368   5.214  0.00  0.00    -0.168 N 
ATOM      3  N   UNL     1     -34.172  26.908   4.458  0.00  0.00    -0.191 N 
ATOM      4  N   UNL     1     -35.867  25.814   3.276  0.00  0.00    -0.264 NA
ATOM      5  N   UNL     1     -35.003  24.902   5.322  0.00  0.00    -0.229 NA
ATOM      6  N   UNL     1     -36.743  23.752   4.135  0.00  0.00    -0.247 NA
ATOM      7  C   UNL     1     -33.241  27.151   5.454  0.00  0.00    +0.333 C 
ATOM      8  C   UNL     1     -35.062  25.815   4.346  0.00  0.00    +0.229 C 
ATOM      9  C   UNL     1     -36.682  24.748   3.237  0.00  0.00    +0.142 C 
ATOM     10  C   UNL     1     -35.875  23.895   5.149  0.00  0.00    +0.331 C 
ATOM     11  C   UNL     1     -37.616  24.663   2.079  0.00  0.00    +0.145 C 
ATOM     12  H   UNL     1     -32.785  28.904   4.432  0.00  0.00    +0.178 HD
ATOM     13  H   UNL     1     -34.218  27.578   3.737  0.00  0.00    +0.170 HD
ENDROOT
BRANCH   2  14
ATOM     14  S   UNL     1     -31.235  28.963   6.177  0.00  0.00    +0.077 S 
ATOM     15  O   UNL     1     -30.239  27.913   6.335  0.00  0.00    -0.150 OA
ATOM     16  O   UNL     1     -31.792  29.614   7.354  0.00  0.00    -0.150 OA
BRANCH  14  17
ATOM     17  C   UNL     1     -30.575  30.216   5.148  0.00  0.00    +0.131 C 
ATOM     18  C   UNL     1     -31.356  30.846   4.180  0.00  0.00    +0.094 C 
ATOM     19  C   UNL     1     -29.238  30.580   5.312  0.00  0.00    +0.020 C 
ATOM     20  C   UNL     1     -30.801  31.840   3.375  0.00  0.00    +0.008 C 
ATOM     21  C   UNL     1     -28.682  31.574   4.507  0.00  0.00    +0.001 C 
ATOM     22  C   UNL     1     -29.464  32.205   3.538  0.00  0.00    +0.000 C 
BRANCH  18  24
ATOM     23  O   UNL     1     -33.684  30.889   4.693  0.00  0.00    -0.245 OA
ATOM     24  C   UNL     1     -32.755  30.493   3.979  0.00  0.00    +0.343 C 
BRANCH  24  25
ATOM     25  O   UNL     1     -32.913  29.667   2.901  0.00  0.00    -0.441 OA
ATOM     26  C   UNL     1     -34.140  29.786   2.172  0.00  0.00    +0.256 C 
ENDBRANCH  24  25
ENDBRANCH  18  24
ENDBRANCH  14  17
ENDBRANCH   2  14
BRANCH  10  27
ATOM     27  O   UNL     1     -35.880  22.911   6.111  0.00  0.00    -0.395 OA
ATOM     28  C   UNL     1     -35.131  21.739   5.823  0.00  0.00    +0.271 C 
ENDBRANCH  10  27
TORSDOF 5
ENDMDL
MODEL 9
REMARK VINA RESULT:      -6.3      6.411      9.262
REMARK  Name = 52999
REMARK  5 active torsions:
REMARK  status: ('A' for Active; 'I' for Inactive)
REMARK    1  A    between atoms: N_2  and  S_14
REMARK    2  A    between atoms: C_10  and  O_27
REMARK    3  A    between atoms: S_14  and  C_17
REMARK    4  A    between atoms: C_18  and  C_24
REMARK    5  A    between atoms: C_24  and  O_25
REMARK                            x       y       z     vdW  Elec       q    Type
REMARK                         _______ _______ _______ _____ _____    ______ ____
ROOT
ATOM      1  O   UNL     1     -38.499  26.772   1.983  0.00  0.00    -0.250 OA
ATOM      2  N   UNL     1     -37.937  25.418   3.786  0.00  0.00    -0.168 N 
ATOM      3  N   UNL     1     -40.161  26.025   3.444  0.00  0.00    -0.191 N 
ATOM      4  N   UNL     1     -42.476  26.328   3.566  0.00  0.00    -0.264 NA
ATOM      5  N   UNL     1     -41.191  27.342   1.811  0.00  0.00    -0.229 NA
ATOM      6  N   UNL     1     -43.565  27.675   1.906  0.00  0.00    -0.247 NA
ATOM      7  C   UNL     1     -38.866  26.143   2.968  0.00  0.00    +0.333 C 
ATOM      8  C   UNL     1     -41.339  26.597   2.911  0.00  0.00    +0.229 C 
ATOM      9  C   UNL     1     -43.551  26.903   3.004  0.00  0.00    +0.142 C 
ATOM     10  C   UNL     1     -42.350  27.852   1.363  0.00  0.00    +0.331 C 
ATOM     11  C   UNL     1     -44.863  26.658   3.667  0.00  0.00    +0.145 C 
ATOM     12  H   UNL     1     -38.306  24.894   4.534  0.00  0.00    +0.178 HD
ATOM     13  H   UNL     1     -40.275  25.477   4.254  0.00  0.00    +0.170 HD
ENDROOT
BRANCH   2  14
ATOM     14  S   UNL     1     -36.239  25.389   3.568  0.00  0.00    +0.077 S 
ATOM     15  O   UNL     1     -35.644  26.457   4.359  0.00  0.00    -0.150 OA
ATOM     16  O   UNL     1     -35.950  25.297   2.144  0.00  0.00    -0.150 OA
BRANCH  14  17
ATOM     17  C   UNL     1     -35.817  23.851   4.289  0.00  0.00    +0.131 C 
ATOM     18  C   UNL     1     -36.060  22.648   3.627  0.00  0.00    +0.094 C 
ATOM     19  C   UNL     1     -35.228  23.845   5.554  0.00  0.00    +0.020 C 
ATOM     20  C   UNL     1     -35.713  21.439   4.229  0.00  0.00    +0.008 C 
ATOM     21  C   UNL     1     -34.880  22.636   6.156  0.00  0.00    +0.001 C 
ATOM     22  C   UNL     1     -35.123  21.433   5.493  0.00  0.00    +0.000 C 
BRANCH  18  24
ATOM     23  O   UNL     1     -36.050  22.457   1.251  0.00  0.00    -0.245 OA
ATOM     24  C   UNL     1     -36.674  22.614   2.307  0.00  0.00    +0.343 C 
BRANCH  24  25
ATOM     25  O   UNL     1     -38.029  22.778   2.381  0.00  0.00    -0.441 OA
ATOM     26  C   UNL     1     -38.836  21.667   1.973  0.00  0.00    +0.256 C 
ENDBRANCH  24  25
ENDBRANCH  18  24
ENDBRANCH  14  17
ENDBRANCH   2  14
BRANCH  10  27
ATOM     27  O   UNL     1     -42.285  28.632   0.232  0.00  0.00    -0.395 OA
ATOM     28  C   UNL     1     -41.892  29.985   0.416  0.00  0.00    +0.271 C 
ENDBRANCH  10  27
TORSDOF 5
ENDMDL
