MODEL 1
REMARK VINA RESULT:      -5.2      0.000      0.000
REMARK  Name = 5340
REMARK  3 active torsions:
REMARK  status: ('A' for Active; 'I' for Inactive)
REMARK    1  A    between atoms: S_1  and  N_5
REMARK    2  A    between atoms: S_1  and  C_11
REMARK    3  A    between atoms: C_14  and  N_17
REMARK                            x       y       z     vdW  Elec       q    Type
REMARK                         _______ _______ _______ _____ _____    ______ ____
ROOT
ATOM      1  S   UNL     1     -35.674  21.444   2.704  0.00  0.00    +0.075 S 
ATOM      2  O   UNL     1     -35.224  20.441   3.660  0.00  0.00    -0.150 OA
ATOM      3  O   UNL     1     -34.850  21.718   1.533  0.00  0.00    -0.150 OA
ENDROOT
BRANCH   1   5
ATOM      4  S   UNL     1     -38.699  20.456  -0.106  0.00  0.00    -0.050 S 
ATOM      5  N   UNL     1     -37.269  21.029   2.202  0.00  0.00    -0.194 N 
ATOM      6  N   UNL     1     -36.586  19.226   0.734  0.00  0.00    -0.221 NA
ATOM      7  C   UNL     1     -37.418  20.215   1.026  0.00  0.00    +0.179 C 
ATOM      8  C   UNL     1     -38.100  19.155  -1.049  0.00  0.00    +0.059 C 
ATOM      9  C   UNL     1     -36.977  18.625  -0.447  0.00  0.00    +0.108 C 
ATOM     10  H   UNL     1     -38.055  21.340   2.706  0.00  0.00    +0.176 HD
ENDBRANCH   1   5
BRANCH   1  11
ATOM     11  C   UNL     1     -35.918  22.938   3.575  0.00  0.00    +0.125 C 
ATOM     12  C   UNL     1     -35.082  23.268   4.641  0.00  0.00    +0.021 C 
ATOM     13  C   UNL     1     -36.952  23.799   3.207  0.00  0.00    +0.021 C 
ATOM     14  C   UNL     1     -36.310  25.323   4.970  0.00  0.00    +0.042 C 
ATOM     15  C   UNL     1     -35.277  24.461   5.339  0.00  0.00    +0.015 C 
ATOM     16  C   UNL     1     -37.147  24.992   3.904  0.00  0.00    +0.015 C 
BRANCH  14  17
ATOM     17  N   UNL     1     -36.507  26.529   5.673  0.00  0.00    -0.357 N 
ATOM     18  H   UNL     1     -37.045  27.250   5.273  0.00  0.00    +0.142 HD
ATOM     19  H   UNL     1     -36.108  26.649   6.565  0.00  0.00    +0.142 HD
ENDBRANCH  14  17
ENDBRANCH   1  11
TORSDOF 3
ENDMDL
MODEL 2
REMARK VINA RESULT:      -5.2      5.064      8.419
REMARK  Name = 5340
REMARK  3 active torsions:
REMARK  status: ('A' for Active; 'I' for Inactive)
REMARK    1  A    between atoms: S_1  and  N_5
REMARK    2  A    between atoms: S_1  and  C_11
REMARK    3  A    between atoms: C_14  and  N_17
REMARK                            x       y       z     vdW  Elec       q    Type
REMARK                         _______ _______ _______ _____ _____    ______ ____
ROOT
ATOM      1  S   UNL     1     -33.739  27.132   3.851  0.00  0.00    +0.075 S 
ATOM      2  O   UNL     1     -34.862  28.049   3.704  0.00  0.00    -0.150 OA
ATOM      3  O   UNL     1     -32.770  27.030   2.767  0.00  0.00    -0.150 OA
ENDROOT
BRANCH   1   5
ATOM      4  S   UNL     1     -30.602  28.748   6.211  0.00  0.00    -0.050 S 
ATOM      5  N   UNL     1     -32.923  27.516   5.319  0.00  0.00    -0.194 N 
ATOM      6  N   UNL     1     -32.421  29.808   4.711  0.00  0.00    -0.221 NA
ATOM      7  C   UNL     1     -32.095  28.692   5.346  0.00  0.00    +0.179 C 
ATOM      8  C   UNL     1     -30.378  30.371   5.702  0.00  0.00    +0.059 C 
ATOM      9  C   UNL     1     -31.442  30.761   4.917  0.00  0.00    +0.108 C 
ATOM     10  H   UNL     1     -33.021  26.947   6.116  0.00  0.00    +0.176 HD
ENDBRANCH   1   5
BRANCH   1  11
ATOM     11  C   UNL     1     -34.388  25.543   4.173  0.00  0.00    +0.125 C 
ATOM     12  C   UNL     1     -34.688  25.165   5.481  0.00  0.00    +0.021 C 
ATOM     13  C   UNL     1     -34.603  24.652   3.122  0.00  0.00    +0.021 C 
ATOM     14  C   UNL     1     -35.422  23.003   4.688  0.00  0.00    +0.042 C 
ATOM     15  C   UNL     1     -35.205  23.895   5.740  0.00  0.00    +0.015 C 
ATOM     16  C   UNL     1     -35.121  23.382   3.380  0.00  0.00    +0.015 C 
BRANCH  14  17
ATOM     17  N   UNL     1     -35.945  21.720   4.949  0.00  0.00    -0.357 N 
ATOM     18  H   UNL     1     -35.742  20.973   4.341  0.00  0.00    +0.142 HD
ATOM     19  H   UNL     1     -36.513  21.572   5.739  0.00  0.00    +0.142 HD
ENDBRANCH  14  17
ENDBRANCH   1  11
TORSDOF 3
ENDMDL
MODEL 3
REMARK VINA RESULT:      -5.0      4.504      7.625
REMARK  Name = 5340
REMARK  3 active torsions:
REMARK  status: ('A' for Active; 'I' for Inactive)
REMARK    1  A    between atoms: S_1  and  N_5
REMARK    2  A    between atoms: S_1  and  C_11
REMARK    3  A    between atoms: C_14  and  N_17
REMARK                            x       y       z     vdW  Elec       q    Type
REMARK                         _______ _______ _______ _____ _____    ______ ____
ROOT
ATOM      1  S   UNL     1     -34.420  26.135   5.037  0.00  0.00    +0.075 S 
ATOM      2  O   UNL     1     -33.800  25.985   6.348  0.00  0.00    -0.150 OA
ATOM      3  O   UNL     1     -35.577  27.010   4.903  0.00  0.00    -0.150 OA
ENDROOT
BRANCH   1   5
ATOM      4  S   UNL     1     -32.347  28.864   2.531  0.00  0.00    -0.050 S 
ATOM      5  N   UNL     1     -33.199  26.618   3.920  0.00  0.00    -0.194 N 
ATOM      6  N   UNL     1     -32.606  28.654   5.095  0.00  0.00    -0.221 NA
ATOM      7  C   UNL     1     -32.747  27.983   3.961  0.00  0.00    +0.179 C 
ATOM      8  C   UNL     1     -31.962  30.232   3.492  0.00  0.00    +0.059 C 
ATOM      9  C   UNL     1     -32.159  29.933   4.824  0.00  0.00    +0.108 C 
ATOM     10  H   UNL     1     -32.823  25.979   3.274  0.00  0.00    +0.176 HD
ENDBRANCH   1   5
BRANCH   1  11
ATOM     11  C   UNL     1     -34.855  24.542   4.469  0.00  0.00    +0.125 C 
ATOM     12  C   UNL     1     -35.157  23.534   5.385  0.00  0.00    +0.021 C 
ATOM     13  C   UNL     1     -34.899  24.277   3.100  0.00  0.00    +0.021 C 
ATOM     14  C   UNL     1     -35.550  21.996   3.563  0.00  0.00    +0.042 C 
ATOM     15  C   UNL     1     -35.504  22.261   4.932  0.00  0.00    +0.015 C 
ATOM     16  C   UNL     1     -35.247  23.004   2.647  0.00  0.00    +0.015 C 
BRANCH  14  17
ATOM     17  N   UNL     1     -35.902  20.710   3.105  0.00  0.00    -0.357 N 
ATOM     18  H   UNL     1     -35.236  19.984   3.115  0.00  0.00    +0.142 HD
ATOM     19  H   UNL     1     -36.814  20.537   2.776  0.00  0.00    +0.142 HD
ENDBRANCH  14  17
ENDBRANCH   1  11
TORSDOF 3
ENDMDL
MODEL 4
REMARK VINA RESULT:      -5.0      3.673      4.388
REMARK  Name = 5340
REMARK  3 active torsions:
REMARK  status: ('A' for Active; 'I' for Inactive)
REMARK    1  A    between atoms: S_1  and  N_5
REMARK    2  A    between atoms: S_1  and  C_11
REMARK    3  A    between atoms: C_14  and  N_17
REMARK                            x       y       z     vdW  Elec       q    Type
REMARK                         _______ _______ _______ _____ _____    ______ ____
ROOT
ATOM      1  S   UNL     1     -36.493  23.997   3.768  0.00  0.00    +0.075 S 
ATOM      2  O   UNL     1     -36.420  22.858   4.674  0.00  0.00    -0.150 OA
ATOM      3  O   UNL     1     -36.324  23.768   2.339  0.00  0.00    -0.150 OA
ENDROOT
BRANCH   1   5
ATOM      4  S   UNL     1     -40.110  25.918   2.648  0.00  0.00    -0.050 S 
ATOM      5  N   UNL     1     -37.987  24.810   4.050  0.00  0.00    -0.194 N 
ATOM      6  N   UNL     1     -39.272  23.478   2.485  0.00  0.00    -0.221 NA
ATOM      7  C   UNL     1     -39.044  24.634   3.090  0.00  0.00    +0.179 C 
ATOM      8  C   UNL     1     -40.928  24.858   1.575  0.00  0.00    +0.059 C 
ATOM      9  C   UNL     1     -40.344  23.610   1.624  0.00  0.00    +0.108 C 
ATOM     10  H   UNL     1     -38.112  25.377   4.844  0.00  0.00    +0.176 HD
ENDBRANCH   1   5
BRANCH   1  11
ATOM     11  C   UNL     1     -35.310  25.170   4.290  0.00  0.00    +0.125 C 
ATOM     12  C   UNL     1     -34.733  26.037   3.363  0.00  0.00    +0.021 C 
ATOM     13  C   UNL     1     -34.940  25.238   5.633  0.00  0.00    +0.021 C 
ATOM     14  C   UNL     1     -33.417  27.043   5.122  0.00  0.00    +0.042 C 
ATOM     15  C   UNL     1     -33.786  26.974   3.778  0.00  0.00    +0.015 C 
ATOM     16  C   UNL     1     -33.994  26.175   6.049  0.00  0.00    +0.015 C 
BRANCH  14  17
ATOM     17  N   UNL     1     -32.461  27.991   5.543  0.00  0.00    -0.357 N 
ATOM     18  H   UNL     1     -31.714  27.714   6.122  0.00  0.00    +0.142 HD
ATOM     19  H   UNL     1     -32.540  28.930   5.256  0.00  0.00    +0.142 HD
ENDBRANCH  14  17
ENDBRANCH   1  11
TORSDOF 3
ENDMDL
MODEL 5
REMARK VINA RESULT:      -5.0      3.985      4.878
REMARK  Name = 5340
REMARK  3 active torsions:
REMARK  status: ('A' for Active; 'I' for Inactive)
REMARK    1  A    between atoms: S_1  and  N_5
REMARK    2  A    between atoms: S_1  and  C_11
REMARK    3  A    between atoms: C_14  and  N_17
REMARK                            x       y       z     vdW  Elec       q    Type
REMARK                         _______ _______ _______ _____ _____    ______ ____
ROOT
ATOM      1  S   UNL     1     -36.453  25.858   2.959  0.00  0.00    +0.075 S 
ATOM      2  O   UNL     1     -36.484  25.530   1.540  0.00  0.00    -0.150 OA
ATOM      3  O   UNL     1     -35.586  26.939   3.411  0.00  0.00    -0.150 OA
ENDROOT
BRANCH   1   5
ATOM      4  S   UNL     1     -40.648  26.274   2.455  0.00  0.00    -0.050 S 
ATOM      5  N   UNL     1     -38.069  26.162   3.474  0.00  0.00    -0.194 N 
ATOM      6  N   UNL     1     -39.037  24.256   2.333  0.00  0.00    -0.221 NA
ATOM      7  C   UNL     1     -39.138  25.500   2.775  0.00  0.00    +0.179 C 
ATOM      8  C   UNL     1     -41.201  24.851   1.672  0.00  0.00    +0.059 C 
ATOM      9  C   UNL     1     -40.213  23.890   1.706  0.00  0.00    +0.108 C 
ATOM     10  H   UNL     1     -38.255  26.771   4.224  0.00  0.00    +0.176 HD
ENDBRANCH   1   5
BRANCH   1  11
ATOM     11  C   UNL     1     -36.035  24.405   3.833  0.00  0.00    +0.125 C 
ATOM     12  C   UNL     1     -35.842  24.454   5.213  0.00  0.00    +0.021 C 
ATOM     13  C   UNL     1     -35.893  23.197   3.151  0.00  0.00    +0.021 C 
ATOM     14  C   UNL     1     -35.365  22.085   5.230  0.00  0.00    +0.042 C 
ATOM     15  C   UNL     1     -35.507  23.294   5.913  0.00  0.00    +0.015 C 
ATOM     16  C   UNL     1     -35.559  22.036   3.849  0.00  0.00    +0.015 C 
BRANCH  14  17
ATOM     17  N   UNL     1     -35.028  20.912   5.936  0.00  0.00    -0.357 N 
ATOM     18  H   UNL     1     -35.735  20.370   6.357  0.00  0.00    +0.142 HD
ATOM     19  H   UNL     1     -34.086  20.634   6.007  0.00  0.00    +0.142 HD
ENDBRANCH  14  17
ENDBRANCH   1  11
TORSDOF 3
ENDMDL
MODEL 6
REMARK VINA RESULT:      -5.0      2.121      2.874
REMARK  Name = 5340
REMARK  3 active torsions:
REMARK  status: ('A' for Active; 'I' for Inactive)
REMARK    1  A    between atoms: S_1  and  N_5
REMARK    2  A    between atoms: S_1  and  C_11
REMARK    3  A    between atoms: C_14  and  N_17
REMARK                            x       y       z     vdW  Elec       q    Type
REMARK                         _______ _______ _______ _____ _____    ______ ____
ROOT
ATOM      1  S   UNL     1     -35.858  21.295   2.658  0.00  0.00    +0.075 S 
ATOM      2  O   UNL     1     -37.153  20.945   2.090  0.00  0.00    -0.150 OA
ATOM      3  O   UNL     1     -35.201  20.345   3.546  0.00  0.00    -0.150 OA
ENDROOT
BRANCH   1   5
ATOM      4  S   UNL     1     -32.577  20.707   0.029  0.00  0.00    -0.050 S 
ATOM      5  N   UNL     1     -34.797  21.703   1.363  0.00  0.00    -0.194 N 
ATOM      6  N   UNL     1     -34.852  19.514   0.323  0.00  0.00    -0.221 NA
ATOM      7  C   UNL     1     -34.199  20.630   0.614  0.00  0.00    +0.179 C 
ATOM      8  C   UNL     1     -32.759  19.145  -0.657  0.00  0.00    +0.059 C 
ATOM      9  C   UNL     1     -34.029  18.672  -0.400  0.00  0.00    +0.108 C 
ATOM     10  H   UNL     1     -34.607  22.643   1.142  0.00  0.00    +0.176 HD
ENDBRANCH   1   5
BRANCH   1  11
ATOM     11  C   UNL     1     -36.040  22.814   3.502  0.00  0.00    +0.125 C 
ATOM     12  C   UNL     1     -36.919  23.781   3.014  0.00  0.00    +0.021 C 
ATOM     13  C   UNL     1     -35.306  23.060   4.662  0.00  0.00    +0.021 C 
ATOM     14  C   UNL     1     -36.330  25.241   4.848  0.00  0.00    +0.042 C 
ATOM     15  C   UNL     1     -37.064  24.995   3.687  0.00  0.00    +0.015 C 
ATOM     16  C   UNL     1     -35.451  24.273   5.335  0.00  0.00    +0.015 C 
BRANCH  14  17
ATOM     17  N   UNL     1     -36.478  26.466   5.528  0.00  0.00    -0.357 N 
ATOM     18  H   UNL     1     -35.721  27.095   5.581  0.00  0.00    +0.142 HD
ATOM     19  H   UNL     1     -37.338  26.694   5.951  0.00  0.00    +0.142 HD
ENDBRANCH  14  17
ENDBRANCH   1  11
TORSDOF 3
ENDMDL
MODEL 7
REMARK VINA RESULT:      -5.0      2.734      3.392
REMARK  Name = 5340
REMARK  3 active torsions:
REMARK  status: ('A' for Active; 'I' for Inactive)
REMARK    1  A    between atoms: S_1  and  N_5
REMARK    2  A    between atoms: S_1  and  C_11
REMARK    3  A    between atoms: C_14  and  N_17
REMARK                            x       y       z     vdW  Elec       q    Type
REMARK                         _______ _______ _______ _____ _____    ______ ____
ROOT
ATOM      1  S   UNL     1     -37.620  24.131   3.080  0.00  0.00    +0.075 S 
ATOM      2  O   UNL     1     -37.504  24.404   1.653  0.00  0.00    -0.150 OA
ATOM      3  O   UNL     1     -38.879  24.426   3.752  0.00  0.00    -0.150 OA
ENDROOT
BRANCH   1   5
ATOM      4  S   UNL     1     -36.408  20.227   1.933  0.00  0.00    -0.050 S 
ATOM      5  N   UNL     1     -37.198  22.482   3.345  0.00  0.00    -0.194 N 
ATOM      6  N   UNL     1     -35.219  22.522   1.947  0.00  0.00    -0.221 NA
ATOM      7  C   UNL     1     -36.259  21.869   2.444  0.00  0.00    +0.179 C 
ATOM      8  C   UNL     1     -34.989  20.402   0.985  0.00  0.00    +0.059 C 
ATOM      9  C   UNL     1     -34.499  21.684   1.118  0.00  0.00    +0.108 C 
ATOM     10  H   UNL     1     -37.588  21.974   4.092  0.00  0.00    +0.176 HD
ENDBRANCH   1   5
BRANCH   1  11
ATOM     11  C   UNL     1     -36.338  24.994   3.893  0.00  0.00    +0.125 C 
ATOM     12  C   UNL     1     -35.759  26.111   3.290  0.00  0.00    +0.021 C 
ATOM     13  C   UNL     1     -35.892  24.567   5.143  0.00  0.00    +0.021 C 
ATOM     14  C   UNL     1     -34.288  26.374   5.190  0.00  0.00    +0.042 C 
ATOM     15  C   UNL     1     -34.734  26.801   3.939  0.00  0.00    +0.015 C 
ATOM     16  C   UNL     1     -34.868  25.257   5.792  0.00  0.00    +0.015 C 
BRANCH  14  17
ATOM     17  N   UNL     1     -33.254  27.071   5.846  0.00  0.00    -0.357 N 
ATOM     18  H   UNL     1     -33.361  28.027   6.057  0.00  0.00    +0.142 HD
ATOM     19  H   UNL     1     -32.424  26.602   6.095  0.00  0.00    +0.142 HD
ENDBRANCH  14  17
ENDBRANCH   1  11
TORSDOF 3
ENDMDL
MODEL 8
REMARK VINA RESULT:      -5.0      3.043      6.716
REMARK  Name = 5340
REMARK  3 active torsions:
REMARK  status: ('A' for Active; 'I' for Inactive)
REMARK    1  A    between atoms: S_1  and  N_5
REMARK    2  A    between atoms: S_1  and  C_11
REMARK    3  A    between atoms: C_14  and  N_17
REMARK                            x       y       z     vdW  Elec       q    Type
REMARK                         _______ _______ _______ _____ _____    ______ ____
ROOT
ATOM      1  S   UNL     1     -35.714  23.744   4.636  0.00  0.00    +0.075 S 
ATOM      2  O   UNL     1     -35.199  23.042   5.804  0.00  0.00    -0.150 OA
ATOM      3  O   UNL     1     -36.772  24.730   4.819  0.00  0.00    -0.150 OA
ENDROOT
BRANCH   1   5
ATOM      4  S   UNL     1     -33.221  26.961   3.427  0.00  0.00    -0.050 S 
ATOM      5  N   UNL     1     -34.383  24.472   3.818  0.00  0.00    -0.194 N 
ATOM      6  N   UNL     1     -33.663  25.816   5.702  0.00  0.00    -0.221 NA
ATOM      7  C   UNL     1     -33.798  25.653   4.394  0.00  0.00    +0.179 C 
ATOM      8  C   UNL     1     -32.762  27.801   4.850  0.00  0.00    +0.059 C 
ATOM      9  C   UNL     1     -33.072  27.039   5.957  0.00  0.00    +0.108 C 
ATOM     10  H   UNL     1     -34.033  24.089   2.982  0.00  0.00    +0.176 HD
ENDBRANCH   1   5
BRANCH   1  11
ATOM     11  C   UNL     1     -36.262  22.544   3.492  0.00  0.00    +0.125 C 
ATOM     12  C   UNL     1     -37.481  22.712   2.836  0.00  0.00    +0.021 C 
ATOM     13  C   UNL     1     -35.482  21.416   3.236  0.00  0.00    +0.021 C 
ATOM     14  C   UNL     1     -37.140  20.626   1.665  0.00  0.00    +0.042 C 
ATOM     15  C   UNL     1     -37.920  21.754   1.922  0.00  0.00    +0.015 C 
ATOM     16  C   UNL     1     -35.921  20.457   2.323  0.00  0.00    +0.015 C 
BRANCH  14  17
ATOM     17  N   UNL     1     -37.582  19.657   0.741  0.00  0.00    -0.357 N 
ATOM     18  H   UNL     1     -36.991  19.368   0.009  0.00  0.00    +0.142 HD
ATOM     19  H   UNL     1     -38.483  19.269   0.829  0.00  0.00    +0.142 HD
ENDBRANCH  14  17
ENDBRANCH   1  11
TORSDOF 3
ENDMDL
MODEL 9
REMARK VINA RESULT:      -4.9      2.579      6.449
REMARK  Name = 5340
REMARK  3 active torsions:
REMARK  status: ('A' for Active; 'I' for Inactive)
REMARK    1  A    between atoms: S_1  and  N_5
REMARK    2  A    between atoms: S_1  and  C_11
REMARK    3  A    between atoms: C_14  and  N_17
REMARK                            x       y       z     vdW  Elec       q    Type
REMARK                         _______ _______ _______ _____ _____    ______ ____
ROOT
ATOM      1  S   UNL     1     -36.372  21.355   1.780  0.00  0.00    +0.075 S 
ATOM      2  O   UNL     1     -37.768  20.945   1.699  0.00  0.00    -0.150 OA
ATOM      3  O   UNL     1     -35.948  22.546   1.054  0.00  0.00    -0.150 OA
ENDROOT
BRANCH   1   5
ATOM      4  S   UNL     1     -34.944  23.392   5.220  0.00  0.00    -0.050 S 
ATOM      5  N   UNL     1     -35.956  21.515   3.444  0.00  0.00    -0.194 N 
ATOM      6  N   UNL     1     -37.055  23.653   3.752  0.00  0.00    -0.221 NA
ATOM      7  C   UNL     1     -36.074  22.815   4.050  0.00  0.00    +0.179 C 
ATOM      8  C   UNL     1     -35.824  24.860   5.334  0.00  0.00    +0.059 C 
ATOM      9  C   UNL     1     -36.910  24.815   4.484  0.00  0.00    +0.108 C 
ATOM     10  H   UNL     1     -35.648  20.740   3.965  0.00  0.00    +0.176 HD
ENDBRANCH   1   5
BRANCH   1  11
ATOM     11  C   UNL     1     -35.390  20.007   1.263  0.00  0.00    +0.125 C 
ATOM     12  C   UNL     1     -34.141  19.792   1.845  0.00  0.00    +0.021 C 
ATOM     13  C   UNL     1     -35.852  19.148   0.267  0.00  0.00    +0.021 C 
ATOM     14  C   UNL     1     -33.817  17.855   0.437  0.00  0.00    +0.042 C 
ATOM     15  C   UNL     1     -33.354  18.716   1.433  0.00  0.00    +0.015 C 
ATOM     16  C   UNL     1     -35.066  18.071  -0.146  0.00  0.00    +0.015 C 
BRANCH  14  17
ATOM     17  N   UNL     1     -33.024  16.767   0.021  0.00  0.00    -0.357 N 
ATOM     18  H   UNL     1     -32.098  16.680   0.345  0.00  0.00    +0.142 HD
ATOM     19  H   UNL     1     -33.396  16.092  -0.593  0.00  0.00    +0.142 HD
ENDBRANCH  14  17
ENDBRANCH   1  11
TORSDOF 3
ENDMDL
