MODEL 1
REMARK VINA RESULT:      -5.2      0.000      0.000
REMARK  Name = 194592
REMARK  6 active torsions:
REMARK  status: ('A' for Active; 'I' for Inactive)
REMARK    1  A    between atoms: C_2  and  N_10
REMARK    2  A    between atoms: C_3  and  O_13
REMARK    3  A    between atoms: C_4  and  O_17
REMARK    4  A    between atoms: C_5  and  O_11
REMARK    5  A    between atoms: O_13  and  C_15
REMARK    6  A    between atoms: O_17  and  C_19
REMARK                            x       y       z     vdW  Elec       q    Type
REMARK                         _______ _______ _______ _____ _____    ______ ____
ROOT
ATOM      1  O   UNL     1     -36.389  23.899   1.691  0.00  0.00    -0.324 OA
ATOM      2  C   UNL     1     -35.723  25.306   4.141  0.00  0.00    +0.223 C 
ATOM      3  C   UNL     1     -35.216  23.879   3.840  0.00  0.00    +0.253 C 
ATOM      4  C   UNL     1     -36.935  25.679   3.269  0.00  0.00    +0.227 C 
ATOM      5  C   UNL     1     -35.160  23.561   2.339  0.00  0.00    +0.279 C 
ATOM      6  C   UNL     1     -36.740  25.277   1.808  0.00  0.00    +0.191 C 
ATOM      7  C   UNL     1     -35.989  25.541   5.633  0.00  0.00    +0.037 C 
ENDROOT
BRANCH   2  10
ATOM      8  O   UNL     1     -34.948  27.263   3.147  0.00  0.00    -0.131 OA
ATOM      9  O   UNL     1     -33.497  25.974   4.191  0.00  0.00    -0.131 OA
ATOM     10  N   UNL     1     -34.629  26.260   3.791  0.00  0.00    +0.038 N 
ENDBRANCH   2  10
BRANCH   5  11
ATOM     11  O   UNL     1     -34.039  24.201   1.739  0.00  0.00    -0.325 OA
ATOM     12  C   UNL     1     -33.745  23.643   0.467  0.00  0.00    +0.177 C 
ENDBRANCH   5  11
BRANCH   3  13
ATOM     13  O   UNL     1     -36.091  22.913   4.429  0.00  0.00    -0.445 OA
BRANCH  13  15
ATOM     14  O   UNL     1     -35.177  20.792   4.372  0.00  0.00    -0.250 OA
ATOM     15  C   UNL     1     -35.482  21.817   4.968  0.00  0.00    +0.318 C 
ATOM     16  C   UNL     1     -35.229  22.046   6.427  0.00  0.00    +0.121 C 
ENDBRANCH  13  15
ENDBRANCH   3  13
BRANCH   4  17
ATOM     17  O   UNL     1     -38.098  25.010   3.764  0.00  0.00    -0.447 OA
BRANCH  17  19
ATOM     18  O   UNL     1     -39.733  26.448   2.991  0.00  0.00    -0.250 OA
ATOM     19  C   UNL     1     -39.274  25.324   3.141  0.00  0.00    +0.318 C 
ATOM     20  C   UNL     1     -39.939  24.073   2.652  0.00  0.00    +0.121 C 
ENDBRANCH  17  19
ENDBRANCH   4  17
TORSDOF 6
ENDMDL
MODEL 2
REMARK VINA RESULT:      -5.1      2.289      4.576
REMARK  Name = 194592
REMARK  6 active torsions:
REMARK  status: ('A' for Active; 'I' for Inactive)
REMARK    1  A    between atoms: C_2  and  N_10
REMARK    2  A    between atoms: C_3  and  O_13
REMARK    3  A    between atoms: C_4  and  O_17
REMARK    4  A    between atoms: C_5  and  O_11
REMARK    5  A    between atoms: O_13  and  C_15
REMARK    6  A    between atoms: O_17  and  C_19
REMARK                            x       y       z     vdW  Elec       q    Type
REMARK                         _______ _______ _______ _____ _____    ______ ____
ROOT
ATOM      1  O   UNL     1     -38.739  24.583   3.725  0.00  0.00    -0.324 OA
ATOM      2  C   UNL     1     -36.481  23.621   2.175  0.00  0.00    +0.223 C 
ATOM      3  C   UNL     1     -37.944  23.322   1.782  0.00  0.00    +0.253 C 
ATOM      4  C   UNL     1     -36.360  24.047   3.649  0.00  0.00    +0.227 C 
ATOM      5  C   UNL     1     -38.940  24.357   2.327  0.00  0.00    +0.279 C 
ATOM      6  C   UNL     1     -37.433  25.058   4.048  0.00  0.00    +0.191 C 
ATOM      7  C   UNL     1     -35.525  22.475   1.822  0.00  0.00    +0.037 C 
ENDROOT
BRANCH   2  10
ATOM      8  O   UNL     1     -35.483  25.712   1.953  0.00  0.00    -0.131 OA
ATOM      9  O   UNL     1     -36.188  24.691   0.132  0.00  0.00    -0.131 OA
ATOM     10  N   UNL     1     -36.016  24.776   1.351  0.00  0.00    +0.038 N 
ENDBRANCH   2  10
BRANCH   5  11
ATOM     11  O   UNL     1     -38.869  25.559   1.569  0.00  0.00    -0.325 OA
ATOM     12  C   UNL     1     -39.633  25.464   0.377  0.00  0.00    +0.177 C 
ENDBRANCH   5  11
BRANCH   3  13
ATOM     13  O   UNL     1     -38.345  22.054   2.308  0.00  0.00    -0.445 OA
BRANCH  13  15
ATOM     14  O   UNL     1     -40.446  21.110   2.141  0.00  0.00    -0.250 OA
ATOM     15  C   UNL     1     -39.375  21.443   1.654  0.00  0.00    +0.318 C 
ATOM     16  C   UNL     1     -39.004  21.231   0.217  0.00  0.00    +0.121 C 
ENDBRANCH  13  15
ENDBRANCH   3  13
BRANCH   4  17
ATOM     17  O   UNL     1     -36.497  22.896   4.487  0.00  0.00    -0.447 OA
BRANCH  17  19
ATOM     18  O   UNL     1     -35.844  22.195   6.589  0.00  0.00    -0.250 OA
ATOM     19  C   UNL     1     -35.664  22.847   5.569  0.00  0.00    +0.318 C 
ATOM     20  C   UNL     1     -34.469  23.721   5.331  0.00  0.00    +0.121 C 
ENDBRANCH  17  19
ENDBRANCH   4  17
TORSDOF 6
ENDMDL
MODEL 3
REMARK VINA RESULT:      -4.9      2.561      3.466
REMARK  Name = 194592
REMARK  6 active torsions:
REMARK  status: ('A' for Active; 'I' for Inactive)
REMARK    1  A    between atoms: C_2  and  N_10
REMARK    2  A    between atoms: C_3  and  O_13
REMARK    3  A    between atoms: C_4  and  O_17
REMARK    4  A    between atoms: C_5  and  O_11
REMARK    5  A    between atoms: O_13  and  C_15
REMARK    6  A    between atoms: O_17  and  C_19
REMARK                            x       y       z     vdW  Elec       q    Type
REMARK                         _______ _______ _______ _____ _____    ______ ____
ROOT
ATOM      1  O   UNL     1     -36.587  20.340   2.250  0.00  0.00    -0.324 OA
ATOM      2  C   UNL     1     -36.272  23.203   1.891  0.00  0.00    +0.223 C 
ATOM      3  C   UNL     1     -35.510  22.414   2.979  0.00  0.00    +0.253 C 
ATOM      4  C   UNL     1     -37.496  22.428   1.374  0.00  0.00    +0.227 C 
ATOM      5  C   UNL     1     -35.343  20.925   2.641  0.00  0.00    +0.279 C 
ATOM      6  C   UNL     1     -37.179  20.958   1.108  0.00  0.00    +0.191 C 
ATOM      7  C   UNL     1     -36.630  24.628   2.331  0.00  0.00    +0.037 C 
ENDROOT
BRANCH   2  10
ATOM      8  O   UNL     1     -35.803  23.119  -0.388  0.00  0.00    -0.131 OA
ATOM      9  O   UNL     1     -34.213  23.790   0.982  0.00  0.00    -0.131 OA
ATOM     10  N   UNL     1     -35.350  23.380   0.729  0.00  0.00    +0.038 N 
ENDBRANCH   2  10
BRANCH   5  11
ATOM     11  O   UNL     1     -34.330  20.752   1.656  0.00  0.00    -0.325 OA
ATOM     12  C   UNL     1     -33.907  19.400   1.584  0.00  0.00    +0.177 C 
ENDBRANCH   5  11
BRANCH   3  13
ATOM     13  O   UNL     1     -36.223  22.474   4.217  0.00  0.00    -0.445 OA
BRANCH  13  15
ATOM     14  O   UNL     1     -35.018  24.041   5.412  0.00  0.00    -0.250 OA
ATOM     15  C   UNL     1     -35.508  22.927   5.288  0.00  0.00    +0.318 C 
ATOM     16  C   UNL     1     -35.404  21.845   6.319  0.00  0.00    +0.121 C 
ENDBRANCH  13  15
ENDBRANCH   3  13
BRANCH   4  17
ATOM     17  O   UNL     1     -38.541  22.490   2.348  0.00  0.00    -0.447 OA
BRANCH  17  19
ATOM     18  O   UNL     1     -40.429  21.171   2.160  0.00  0.00    -0.250 OA
ATOM     19  C   UNL     1     -39.794  22.183   1.896  0.00  0.00    +0.318 C 
ATOM     20  C   UNL     1     -40.298  23.283   1.010  0.00  0.00    +0.121 C 
ENDBRANCH  17  19
ENDBRANCH   4  17
TORSDOF 6
ENDMDL
MODEL 4
REMARK VINA RESULT:      -4.9      1.744      4.384
REMARK  Name = 194592
REMARK  6 active torsions:
REMARK  status: ('A' for Active; 'I' for Inactive)
REMARK    1  A    between atoms: C_2  and  N_10
REMARK    2  A    between atoms: C_3  and  O_13
REMARK    3  A    between atoms: C_4  and  O_17
REMARK    4  A    between atoms: C_5  and  O_11
REMARK    5  A    between atoms: O_13  and  C_15
REMARK    6  A    between atoms: O_17  and  C_19
REMARK                            x       y       z     vdW  Elec       q    Type
REMARK                         _______ _______ _______ _____ _____    ______ ____
ROOT
ATOM      1  O   UNL     1     -35.141  23.347   1.675  0.00  0.00    -0.324 OA
ATOM      2  C   UNL     1     -36.426  24.811   3.827  0.00  0.00    +0.223 C 
ATOM      3  C   UNL     1     -35.448  25.480   2.838  0.00  0.00    +0.253 C 
ATOM      4  C   UNL     1     -36.273  23.280   3.836  0.00  0.00    +0.227 C 
ATOM      5  C   UNL     1     -35.355  24.749   1.491  0.00  0.00    +0.279 C 
ATOM      6  C   UNL     1     -36.169  22.703   2.426  0.00  0.00    +0.191 C 
ATOM      7  C   UNL     1     -36.347  25.410   5.237  0.00  0.00    +0.037 C 
ENDROOT
BRANCH   2  10
ATOM      8  O   UNL     1     -38.626  24.177   3.406  0.00  0.00    -0.131 OA
ATOM      9  O   UNL     1     -38.040  26.260   2.989  0.00  0.00    -0.131 OA
ATOM     10  N   UNL     1     -37.814  25.105   3.363  0.00  0.00    +0.038 N 
ENDBRANCH   2  10
BRANCH   5  11
ATOM     11  O   UNL     1     -36.508  25.019   0.700  0.00  0.00    -0.325 OA
ATOM     12  C   UNL     1     -36.272  26.082  -0.210  0.00  0.00    +0.177 C 
ENDBRANCH   5  11
BRANCH   3  13
ATOM     13  O   UNL     1     -34.126  25.493   3.386  0.00  0.00    -0.445 OA
BRANCH  13  15
ATOM     14  O   UNL     1     -33.912  27.685   4.082  0.00  0.00    -0.250 OA
ATOM     15  C   UNL     1     -33.524  26.716   3.444  0.00  0.00    +0.318 C 
ATOM     16  C   UNL     1     -32.287  26.709   2.598  0.00  0.00    +0.121 C 
ENDBRANCH  13  15
ENDBRANCH   3  13
BRANCH   4  17
ATOM     17  O   UNL     1     -35.087  22.927   4.552  0.00  0.00    -0.447 OA
BRANCH  17  19
ATOM     18  O   UNL     1     -34.997  20.643   4.888  0.00  0.00    -0.250 OA
ATOM     19  C   UNL     1     -35.162  21.783   5.298  0.00  0.00    +0.318 C 
ATOM     20  C   UNL     1     -35.481  22.126   6.722  0.00  0.00    +0.121 C 
ENDBRANCH  17  19
ENDBRANCH   4  17
TORSDOF 6
ENDMDL
MODEL 5
REMARK VINA RESULT:      -4.8      1.603      4.616
REMARK  Name = 194592
REMARK  6 active torsions:
REMARK  status: ('A' for Active; 'I' for Inactive)
REMARK    1  A    between atoms: C_2  and  N_10
REMARK    2  A    between atoms: C_3  and  O_13
REMARK    3  A    between atoms: C_4  and  O_17
REMARK    4  A    between atoms: C_5  and  O_11
REMARK    5  A    between atoms: O_13  and  C_15
REMARK    6  A    between atoms: O_17  and  C_19
REMARK                            x       y       z     vdW  Elec       q    Type
REMARK                         _______ _______ _______ _____ _____    ______ ____
ROOT
ATOM      1  O   UNL     1     -36.282  25.622   4.467  0.00  0.00    -0.324 OA
ATOM      2  C   UNL     1     -36.317  23.651   2.336  0.00  0.00    +0.223 C 
ATOM      3  C   UNL     1     -37.448  24.685   2.528  0.00  0.00    +0.253 C 
ATOM      4  C   UNL     1     -35.470  23.486   3.609  0.00  0.00    +0.227 C 
ATOM      5  C   UNL     1     -36.991  25.950   3.269  0.00  0.00    +0.279 C 
ATOM      6  C   UNL     1     -35.117  24.830   4.245  0.00  0.00    +0.191 C 
ATOM      7  C   UNL     1     -36.826  22.307   1.800  0.00  0.00    +0.037 C 
ENDROOT
BRANCH   2  10
ATOM      8  O   UNL     1     -34.205  24.236   1.552  0.00  0.00    -0.131 OA
ATOM      9  O   UNL     1     -35.926  24.469   0.195  0.00  0.00    -0.131 OA
ATOM     10  N   UNL     1     -35.405  24.168   1.272  0.00  0.00    +0.038 N 
ENDBRANCH   2  10
BRANCH   5  11
ATOM     11  O   UNL     1     -36.231  26.784   2.402  0.00  0.00    -0.325 OA
ATOM     12  C   UNL     1     -37.064  27.458   1.472  0.00  0.00    +0.177 C 
ENDBRANCH   5  11
BRANCH   3  13
ATOM     13  O   UNL     1     -38.506  24.116   3.305  0.00  0.00    -0.445 OA
BRANCH  13  15
ATOM     14  O   UNL     1     -40.252  23.133   2.155  0.00  0.00    -0.250 OA
ATOM     15  C   UNL     1     -39.732  24.094   2.705  0.00  0.00    +0.318 C 
ATOM     16  C   UNL     1     -40.372  25.445   2.817  0.00  0.00    +0.121 C 
ENDBRANCH  13  15
ENDBRANCH   3  13
BRANCH   4  17
ATOM     17  O   UNL     1     -36.201  22.717   4.568  0.00  0.00    -0.447 OA
BRANCH  17  19
ATOM     18  O   UNL     1     -35.096  20.691   4.678  0.00  0.00    -0.250 OA
ATOM     19  C   UNL     1     -35.498  21.725   5.193  0.00  0.00    +0.318 C 
ATOM     20  C   UNL     1     -35.280  22.086   6.632  0.00  0.00    +0.121 C 
ENDBRANCH  17  19
ENDBRANCH   4  17
TORSDOF 6
ENDMDL
MODEL 6
REMARK VINA RESULT:      -4.8      1.566      4.571
REMARK  Name = 194592
REMARK  6 active torsions:
REMARK  status: ('A' for Active; 'I' for Inactive)
REMARK    1  A    between atoms: C_2  and  N_10
REMARK    2  A    between atoms: C_3  and  O_13
REMARK    3  A    between atoms: C_4  and  O_17
REMARK    4  A    between atoms: C_5  and  O_11
REMARK    5  A    between atoms: O_13  and  C_15
REMARK    6  A    between atoms: O_17  and  C_19
REMARK                            x       y       z     vdW  Elec       q    Type
REMARK                         _______ _______ _______ _____ _____    ______ ____
ROOT
ATOM      1  O   UNL     1     -35.637  26.235   5.276  0.00  0.00    -0.324 OA
ATOM      2  C   UNL     1     -34.810  24.823   2.878  0.00  0.00    +0.223 C 
ATOM      3  C   UNL     1     -35.860  25.955   2.854  0.00  0.00    +0.253 C 
ATOM      4  C   UNL     1     -34.625  24.244   4.291  0.00  0.00    +0.227 C 
ATOM      5  C   UNL     1     -35.724  26.932   4.031  0.00  0.00    +0.279 C 
ATOM      6  C   UNL     1     -34.531  25.336   5.355  0.00  0.00    +0.191 C 
ATOM      7  C   UNL     1     -35.088  23.732   1.836  0.00  0.00    +0.037 C 
ENDROOT
BRANCH   2  10
ATOM      8  O   UNL     1     -33.427  25.896   1.344  0.00  0.00    -0.131 OA
ATOM      9  O   UNL     1     -32.597  25.382   3.319  0.00  0.00    -0.131 OA
ATOM     10  N   UNL     1     -33.498  25.412   2.477  0.00  0.00    +0.038 N 
ENDBRANCH   2  10
BRANCH   5  11
ATOM     11  O   UNL     1     -34.620  27.806   3.822  0.00  0.00    -0.325 OA
ATOM     12  C   UNL     1     -34.874  28.714   2.761  0.00  0.00    +0.177 C 
ENDBRANCH   5  11
BRANCH   3  13
ATOM     13  O   UNL     1     -37.178  25.403   2.932  0.00  0.00    -0.445 OA
BRANCH  13  15
ATOM     14  O   UNL     1     -38.023  27.108   1.622  0.00  0.00    -0.250 OA
ATOM     15  C   UNL     1     -38.171  26.170   2.393  0.00  0.00    +0.318 C 
ATOM     16  C   UNL     1     -39.502  25.690   2.886  0.00  0.00    +0.121 C 
ENDBRANCH  13  15
ENDBRANCH   3  13
BRANCH   4  17
ATOM     17  O   UNL     1     -35.740  23.407   4.609  0.00  0.00    -0.447 OA
BRANCH  17  19
ATOM     18  O   UNL     1     -35.251  21.175   4.265  0.00  0.00    -0.250 OA
ATOM     19  C   UNL     1     -35.434  22.134   5.003  0.00  0.00    +0.318 C 
ATOM     20  C   UNL     1     -35.349  22.071   6.498  0.00  0.00    +0.121 C 
ENDBRANCH  17  19
ENDBRANCH   4  17
TORSDOF 6
ENDMDL
MODEL 7
REMARK VINA RESULT:      -4.7      2.094      4.017
REMARK  Name = 194592
REMARK  6 active torsions:
REMARK  status: ('A' for Active; 'I' for Inactive)
REMARK    1  A    between atoms: C_2  and  N_10
REMARK    2  A    between atoms: C_3  and  O_13
REMARK    3  A    between atoms: C_4  and  O_17
REMARK    4  A    between atoms: C_5  and  O_11
REMARK    5  A    between atoms: O_13  and  C_15
REMARK    6  A    between atoms: O_17  and  C_19
REMARK                            x       y       z     vdW  Elec       q    Type
REMARK                         _______ _______ _______ _____ _____    ______ ____
ROOT
ATOM      1  O   UNL     1     -37.442  23.945   4.075  0.00  0.00    -0.324 OA
ATOM      2  C   UNL     1     -36.001  24.377   1.592  0.00  0.00    +0.223 C 
ATOM      3  C   UNL     1     -36.325  22.966   2.128  0.00  0.00    +0.253 C 
ATOM      4  C   UNL     1     -36.099  25.445   2.696  0.00  0.00    +0.227 C 
ATOM      5  C   UNL     1     -37.543  22.939   3.063  0.00  0.00    +0.279 C 
ATOM      6  C   UNL     1     -37.348  25.271   3.557  0.00  0.00    +0.191 C 
ATOM      7  C   UNL     1     -34.663  24.437   0.845  0.00  0.00    +0.037 C 
ENDROOT
BRANCH   2  10
ATOM      8  O   UNL     1     -37.566  25.828   0.661  0.00  0.00    -0.131 OA
ATOM      9  O   UNL     1     -37.247  23.873  -0.306  0.00  0.00    -0.131 OA
ATOM     10  N   UNL     1     -37.030  24.720   0.565  0.00  0.00    +0.038 N 
ENDBRANCH   2  10
BRANCH   5  11
ATOM     11  O   UNL     1     -38.747  23.046   2.312  0.00  0.00    -0.325 OA
ATOM     12  C   UNL     1     -39.214  21.771   1.901  0.00  0.00    +0.177 C 
ENDBRANCH   5  11
BRANCH   3  13
ATOM     13  O   UNL     1     -35.219  22.462   2.883  0.00  0.00    -0.445 OA
BRANCH  13  15
ATOM     14  O   UNL     1     -35.251  20.625   4.283  0.00  0.00    -0.250 OA
ATOM     15  C   UNL     1     -35.260  21.128   3.168  0.00  0.00    +0.318 C 
ATOM     16  C   UNL     1     -35.320  20.342   1.894  0.00  0.00    +0.121 C 
ENDBRANCH  13  15
ENDBRANCH   3  13
BRANCH   4  17
ATOM     17  O   UNL     1     -34.954  25.352   3.546  0.00  0.00    -0.447 OA
BRANCH  17  19
ATOM     18  O   UNL     1     -34.764  27.607   4.014  0.00  0.00    -0.250 OA
ATOM     19  C   UNL     1     -34.725  26.432   4.353  0.00  0.00    +0.318 C 
ATOM     20  C   UNL     1     -34.414  25.970   5.745  0.00  0.00    +0.121 C 
ENDBRANCH  17  19
ENDBRANCH   4  17
TORSDOF 6
ENDMDL
MODEL 8
REMARK VINA RESULT:      -4.6      1.906      4.502
REMARK  Name = 194592
REMARK  6 active torsions:
REMARK  status: ('A' for Active; 'I' for Inactive)
REMARK    1  A    between atoms: C_2  and  N_10
REMARK    2  A    between atoms: C_3  and  O_13
REMARK    3  A    between atoms: C_4  and  O_17
REMARK    4  A    between atoms: C_5  and  O_11
REMARK    5  A    between atoms: O_13  and  C_15
REMARK    6  A    between atoms: O_17  and  C_19
REMARK                            x       y       z     vdW  Elec       q    Type
REMARK                         _______ _______ _______ _____ _____    ______ ____
ROOT
ATOM      1  O   UNL     1     -35.188  24.865   1.522  0.00  0.00    -0.324 OA
ATOM      2  C   UNL     1     -35.736  25.101   4.363  0.00  0.00    +0.223 C 
ATOM      3  C   UNL     1     -36.849  24.851   3.322  0.00  0.00    +0.253 C 
ATOM      4  C   UNL     1     -34.457  25.655   3.713  0.00  0.00    +0.227 C 
ATOM      5  C   UNL     1     -36.336  24.184   2.037  0.00  0.00    +0.279 C 
ATOM      6  C   UNL     1     -34.090  24.907   2.432  0.00  0.00    +0.191 C 
ATOM      7  C   UNL     1     -36.208  25.961   5.541  0.00  0.00    +0.037 C 
ENDROOT
BRANCH   2  10
ATOM      8  O   UNL     1     -34.177  23.506   5.030  0.00  0.00    -0.131 OA
ATOM      9  O   UNL     1     -36.313  23.088   5.375  0.00  0.00    -0.131 OA
ATOM     10  N   UNL     1     -35.378  23.784   4.969  0.00  0.00    +0.038 N 
ENDBRANCH   2  10
BRANCH   5  11
ATOM     11  O   UNL     1     -36.088  22.801   2.261  0.00  0.00    -0.325 OA
ATOM     12  C   UNL     1     -37.279  22.038   2.144  0.00  0.00    +0.177 C 
ENDBRANCH   5  11
BRANCH   3  13
ATOM     13  O   UNL     1     -37.441  26.092   2.929  0.00  0.00    -0.445 OA
BRANCH  13  15
ATOM     14  O   UNL     1     -39.311  26.748   1.743  0.00  0.00    -0.250 OA
ATOM     15  C   UNL     1     -38.753  26.029   2.559  0.00  0.00    +0.318 C 
ATOM     16  C   UNL     1     -39.435  24.925   3.310  0.00  0.00    +0.121 C 
ENDBRANCH  13  15
ENDBRANCH   3  13
BRANCH   4  17
ATOM     17  O   UNL     1     -34.653  27.033   3.384  0.00  0.00    -0.447 OA
BRANCH  17  19
ATOM     18  O   UNL     1     -33.055  27.981   4.757  0.00  0.00    -0.250 OA
ATOM     19  C   UNL     1     -33.607  27.866   3.672  0.00  0.00    +0.318 C 
ATOM     20  C   UNL     1     -33.220  28.637   2.446  0.00  0.00    +0.121 C 
ENDBRANCH  17  19
ENDBRANCH   4  17
TORSDOF 6
ENDMDL
MODEL 9
REMARK VINA RESULT:      -4.6      2.017      3.992
REMARK  Name = 194592
REMARK  6 active torsions:
REMARK  status: ('A' for Active; 'I' for Inactive)
REMARK    1  A    between atoms: C_2  and  N_10
REMARK    2  A    between atoms: C_3  and  O_13
REMARK    3  A    between atoms: C_4  and  O_17
REMARK    4  A    between atoms: C_5  and  O_11
REMARK    5  A    between atoms: O_13  and  C_15
REMARK    6  A    between atoms: O_17  and  C_19
REMARK                            x       y       z     vdW  Elec       q    Type
REMARK                         _______ _______ _______ _____ _____    ______ ____
ROOT
ATOM      1  O   UNL     1     -37.409  24.793   4.459  0.00  0.00    -0.324 OA
ATOM      2  C   UNL     1     -36.049  23.611   2.183  0.00  0.00    +0.223 C 
ATOM      3  C   UNL     1     -35.291  24.126   3.425  0.00  0.00    +0.253 C 
ATOM      4  C   UNL     1     -37.467  24.200   2.092  0.00  0.00    +0.227 C 
ATOM      5  C   UNL     1     -36.155  24.147   4.695  0.00  0.00    +0.279 C 
ATOM      6  C   UNL     1     -38.190  24.174   3.438  0.00  0.00    +0.191 C 
ATOM      7  C   UNL     1     -35.258  23.802   0.883  0.00  0.00    +0.037 C 
ENDROOT
BRANCH   2  10
ATOM      8  O   UNL     1     -37.340  21.674   2.190  0.00  0.00    -0.131 OA
ATOM      9  O   UNL     1     -35.173  21.488   2.548  0.00  0.00    -0.131 OA
ATOM     10  N   UNL     1     -36.202  22.132   2.325  0.00  0.00    +0.038 N 
ENDBRANCH   2  10
BRANCH   5  11
ATOM     11  O   UNL     1     -36.314  22.828   5.207  0.00  0.00    -0.325 OA
ATOM     12  C   UNL     1     -35.203  22.446   6.002  0.00  0.00    +0.177 C 
ENDBRANCH   5  11
BRANCH   3  13
ATOM     13  O   UNL     1     -34.851  25.470   3.209  0.00  0.00    -0.445 OA
BRANCH  13  15
ATOM     14  O   UNL     1     -33.311  25.900   4.877  0.00  0.00    -0.250 OA
ATOM     15  C   UNL     1     -33.613  25.771   3.698  0.00  0.00    +0.318 C 
ATOM     16  C   UNL     1     -32.646  25.924   2.563  0.00  0.00    +0.121 C 
ENDBRANCH  13  15
ENDBRANCH   3  13
BRANCH   4  17
ATOM     17  O   UNL     1     -37.389  25.559   1.654  0.00  0.00    -0.447 OA
BRANCH  17  19
ATOM     18  O   UNL     1     -39.188  27.000   1.497  0.00  0.00    -0.250 OA
ATOM     19  C   UNL     1     -38.522  26.063   1.078  0.00  0.00    +0.318 C 
ATOM     20  C   UNL     1     -38.844  25.295  -0.168  0.00  0.00    +0.121 C 
ENDBRANCH  17  19
ENDBRANCH   4  17
TORSDOF 6
ENDMDL
