MODEL 1
REMARK VINA RESULT:      -6.1      0.000      0.000
REMARK  Name = 5352032
REMARK  6 active torsions:
REMARK  status: ('A' for Active; 'I' for Inactive)
REMARK    1  A    between atoms: C_5  and  C_12
REMARK    2  A    between atoms: C_6  and  O_20
REMARK    3  A    between atoms: C_8  and  O_24
REMARK    4  A    between atoms: C_10  and  O_22
REMARK    5  A    between atoms: C_11  and  O_26
REMARK    6  A    between atoms: C_17  and  O_18
REMARK                            x       y       z     vdW  Elec       q    Type
REMARK                         _______ _______ _______ _____ _____    ______ ____
ROOT
ATOM      1  O   UNL     1     -32.970  26.729   5.292  0.00  0.00    -0.450 OA
ATOM      2  O   UNL     1     -35.276  28.476   2.424  0.00  0.00    -0.283 OA
ATOM      3  C   UNL     1     -34.996  26.705   3.956  0.00  0.00    +0.113 A 
ATOM      4  C   UNL     1     -34.161  26.157   4.927  0.00  0.00    +0.155 A 
ATOM      5  C   UNL     1     -32.586  27.909   4.676  0.00  0.00    +0.182 A 
ATOM      6  C   UNL     1     -33.294  28.536   3.719  0.00  0.00    +0.212 A 
ATOM      7  C   UNL     1     -34.588  27.951   3.289  0.00  0.00    +0.238 A 
ATOM      8  C   UNL     1     -36.200  26.078   3.624  0.00  0.00    +0.177 C 
ATOM      9  C   UNL     1     -34.525  24.975   5.573  0.00  0.00    +0.078 C 
ATOM     10  C   UNL     1     -36.561  24.897   4.272  0.00  0.00    +0.206 C 
ATOM     11  C   UNL     1     -35.726  24.346   5.245  0.00  0.00    +0.174 C 
ENDROOT
BRANCH   5  12
ATOM     12  C   UNL     1     -31.289  28.414   5.159  0.00  0.00    +0.038 C 
ATOM     13  C   UNL     1     -30.144  28.262   4.376  0.00  0.00    +0.006 C 
ATOM     14  C   UNL     1     -31.205  29.048   6.400  0.00  0.00    +0.006 C 
ATOM     15  C   UNL     1     -28.917  28.740   4.835  0.00  0.00    +0.037 C 
ATOM     16  C   UNL     1     -29.977  29.526   6.857  0.00  0.00    +0.037 C 
ATOM     17  C   UNL     1     -28.833  29.372   6.075  0.00  0.00    +0.134 C 
BRANCH  17  18
ATOM     18  O   UNL     1     -27.635  29.839   6.521  0.00  0.00    -0.506 OA
ATOM     19  H   UNL     1     -26.841  29.413   6.264  0.00  0.00    +0.292 HD
ENDBRANCH  17  18
ENDBRANCH   5  12
BRANCH   6  20
ATOM     20  O   UNL     1     -32.868  29.692   3.102  0.00  0.00    -0.465 OA
ATOM     21  C   UNL     1     -33.379  30.833   3.763  0.00  0.00    +0.253 C 
ENDBRANCH   6  20
BRANCH  10  22
ATOM     22  O   UNL     1     -37.734  24.274   3.957  0.00  0.00    -0.465 OA
ATOM     23  C   UNL     1     -37.676  23.255   2.962  0.00  0.00    +0.253 C 
ENDBRANCH  10  22
BRANCH   8  24
ATOM     24  O   UNL     1     -37.043  26.583   2.680  0.00  0.00    -0.503 OA
ATOM     25  H   UNL     1     -37.874  26.179   2.529  0.00  0.00    +0.292 HD
ENDBRANCH   8  24
BRANCH  11  26
ATOM     26  O   UNL     1     -36.071  23.193   5.882  0.00  0.00    -0.503 OA
ATOM     27  H   UNL     1     -36.188  22.402   5.393  0.00  0.00    +0.292 HD
ENDBRANCH  11  26
TORSDOF 6
ENDMDL
MODEL 2
REMARK VINA RESULT:      -6.0      3.873      6.896
REMARK  Name = 5352032
REMARK  6 active torsions:
REMARK  status: ('A' for Active; 'I' for Inactive)
REMARK    1  A    between atoms: C_5  and  C_12
REMARK    2  A    between atoms: C_6  and  O_20
REMARK    3  A    between atoms: C_8  and  O_24
REMARK    4  A    between atoms: C_10  and  O_22
REMARK    5  A    between atoms: C_11  and  O_26
REMARK    6  A    between atoms: C_17  and  O_18
REMARK                            x       y       z     vdW  Elec       q    Type
REMARK                         _______ _______ _______ _____ _____    ______ ____
ROOT
ATOM      1  O   UNL     1     -35.245  22.140   2.487  0.00  0.00    -0.450 OA
ATOM      2  O   UNL     1     -39.260  21.999   1.806  0.00  0.00    -0.283 OA
ATOM      3  C   UNL     1     -37.136  21.050   1.424  0.00  0.00    +0.113 A 
ATOM      4  C   UNL     1     -35.772  21.154   1.693  0.00  0.00    +0.155 A 
ATOM      5  C   UNL     1     -36.107  23.065   3.054  0.00  0.00    +0.182 A 
ATOM      6  C   UNL     1     -37.440  23.081   2.867  0.00  0.00    +0.212 A 
ATOM      7  C   UNL     1     -38.054  22.036   2.012  0.00  0.00    +0.238 A 
ATOM      8  C   UNL     1     -37.617  20.024   0.606  0.00  0.00    +0.177 C 
ATOM      9  C   UNL     1     -34.881  20.232   1.145  0.00  0.00    +0.078 C 
ATOM     10  C   UNL     1     -36.723  19.103   0.061  0.00  0.00    +0.206 C 
ATOM     11  C   UNL     1     -35.357  19.206   0.330  0.00  0.00    +0.174 C 
ENDROOT
BRANCH   5  12
ATOM     12  C   UNL     1     -35.413  24.067   3.881  0.00  0.00    +0.038 C 
ATOM     13  C   UNL     1     -35.593  24.078   5.265  0.00  0.00    +0.006 C 
ATOM     14  C   UNL     1     -34.573  25.007   3.280  0.00  0.00    +0.006 C 
ATOM     15  C   UNL     1     -34.935  25.028   6.046  0.00  0.00    +0.037 C 
ATOM     16  C   UNL     1     -33.915  25.956   4.063  0.00  0.00    +0.037 C 
ATOM     17  C   UNL     1     -34.096  25.966   5.446  0.00  0.00    +0.134 C 
BRANCH  17  18
ATOM     18  O   UNL     1     -33.455  26.892   6.209  0.00  0.00    -0.506 OA
ATOM     19  H   UNL     1     -32.521  26.886   6.267  0.00  0.00    +0.292 HD
ENDBRANCH  17  18
ENDBRANCH   5  12
BRANCH   6  20
ATOM     20  O   UNL     1     -38.266  24.036   3.419  0.00  0.00    -0.465 OA
ATOM     21  C   UNL     1     -38.417  25.137   2.544  0.00  0.00    +0.253 C 
ENDBRANCH   6  20
BRANCH  10  22
ATOM     22  O   UNL     1     -37.180  18.096  -0.739  0.00  0.00    -0.465 OA
ATOM     23  C   UNL     1     -37.541  16.875  -0.097  0.00  0.00    +0.253 C 
ENDBRANCH  10  22
BRANCH   8  24
ATOM     24  O   UNL     1     -38.942  19.888   0.319  0.00  0.00    -0.503 OA
ATOM     25  H   UNL     1     -39.228  19.220  -0.272  0.00  0.00    +0.292 HD
ENDBRANCH   8  24
BRANCH  11  26
ATOM     26  O   UNL     1     -34.477  18.311  -0.199  0.00  0.00    -0.503 OA
ATOM     27  H   UNL     1     -33.618  18.589  -0.451  0.00  0.00    +0.292 HD
ENDBRANCH  11  26
TORSDOF 6
ENDMDL
MODEL 3
REMARK VINA RESULT:      -6.0      5.865      8.307
REMARK  Name = 5352032
REMARK  6 active torsions:
REMARK  status: ('A' for Active; 'I' for Inactive)
REMARK    1  A    between atoms: C_5  and  C_12
REMARK    2  A    between atoms: C_6  and  O_20
REMARK    3  A    between atoms: C_8  and  O_24
REMARK    4  A    between atoms: C_10  and  O_22
REMARK    5  A    between atoms: C_11  and  O_26
REMARK    6  A    between atoms: C_17  and  O_18
REMARK                            x       y       z     vdW  Elec       q    Type
REMARK                         _______ _______ _______ _____ _____    ______ ____
ROOT
ATOM      1  O   UNL     1     -35.177  21.953   2.117  0.00  0.00    -0.450 OA
ATOM      2  O   UNL     1     -38.754  20.655   0.662  0.00  0.00    -0.283 OA
ATOM      3  C   UNL     1     -37.587  22.216   1.989  0.00  0.00    +0.113 A 
ATOM      4  C   UNL     1     -36.333  22.608   2.455  0.00  0.00    +0.155 A 
ATOM      5  C   UNL     1     -35.258  20.862   1.267  0.00  0.00    +0.182 A 
ATOM      6  C   UNL     1     -36.405  20.376   0.756  0.00  0.00    +0.212 A 
ATOM      7  C   UNL     1     -37.681  21.050   1.097  0.00  0.00    +0.238 A 
ATOM      8  C   UNL     1     -38.732  22.921   2.368  0.00  0.00    +0.177 C 
ATOM      9  C   UNL     1     -36.217  23.709   3.303  0.00  0.00    +0.078 C 
ATOM     10  C   UNL     1     -38.612  24.022   3.216  0.00  0.00    +0.206 C 
ATOM     11  C   UNL     1     -37.358  24.416   3.683  0.00  0.00    +0.174 C 
ENDROOT
BRANCH   5  12
ATOM     12  C   UNL     1     -33.947  20.252   0.987  0.00  0.00    +0.038 C 
ATOM     13  C   UNL     1     -33.626  19.005   1.526  0.00  0.00    +0.006 C 
ATOM     14  C   UNL     1     -33.024  20.921   0.181  0.00  0.00    +0.006 C 
ATOM     15  C   UNL     1     -32.384  18.429   1.260  0.00  0.00    +0.037 C 
ATOM     16  C   UNL     1     -31.782  20.343  -0.085  0.00  0.00    +0.037 C 
ATOM     17  C   UNL     1     -31.462  19.098   0.455  0.00  0.00    +0.134 C 
BRANCH  17  18
ATOM     18  O   UNL     1     -30.251  18.535   0.196  0.00  0.00    -0.506 OA
ATOM     19  H   UNL     1     -29.464  18.988   0.429  0.00  0.00    +0.292 HD
ENDBRANCH  17  18
ENDBRANCH   5  12
BRANCH   6  20
ATOM     20  O   UNL     1     -36.455  19.267  -0.060  0.00  0.00    -0.465 OA
ATOM     21  C   UNL     1     -36.373  19.641  -1.422  0.00  0.00    +0.253 C 
ENDBRANCH   6  20
BRANCH  10  22
ATOM     22  O   UNL     1     -39.723  24.719   3.592  0.00  0.00    -0.465 OA
ATOM     23  C   UNL     1     -40.099  25.826   2.776  0.00  0.00    +0.253 C 
ENDBRANCH  10  22
BRANCH   8  24
ATOM     24  O   UNL     1     -39.975  22.569   1.934  0.00  0.00    -0.503 OA
ATOM     25  H   UNL     1     -40.655  22.393   2.554  0.00  0.00    +0.292 HD
ENDBRANCH   8  24
BRANCH  11  26
ATOM     26  O   UNL     1     -37.232  25.490   4.511  0.00  0.00    -0.503 OA
ATOM     27  H   UNL     1     -36.390  25.873   4.658  0.00  0.00    +0.292 HD
ENDBRANCH  11  26
TORSDOF 6
ENDMDL
MODEL 4
REMARK VINA RESULT:      -5.8      4.463      7.470
REMARK  Name = 5352032
REMARK  6 active torsions:
REMARK  status: ('A' for Active; 'I' for Inactive)
REMARK    1  A    between atoms: C_5  and  C_12
REMARK    2  A    between atoms: C_6  and  O_20
REMARK    3  A    between atoms: C_8  and  O_24
REMARK    4  A    between atoms: C_10  and  O_22
REMARK    5  A    between atoms: C_11  and  O_26
REMARK    6  A    between atoms: C_17  and  O_18
REMARK                            x       y       z     vdW  Elec       q    Type
REMARK                         _______ _______ _______ _____ _____    ______ ____
ROOT
ATOM      1  O   UNL     1     -34.937  21.542   2.335  0.00  0.00    -0.450 OA
ATOM      2  O   UNL     1     -38.844  21.039   1.296  0.00  0.00    -0.283 OA
ATOM      3  C   UNL     1     -36.619  20.276   1.127  0.00  0.00    +0.113 A 
ATOM      4  C   UNL     1     -35.301  20.503   1.517  0.00  0.00    +0.155 A 
ATOM      5  C   UNL     1     -35.924  22.394   2.802  0.00  0.00    +0.182 A 
ATOM      6  C   UNL     1     -37.230  22.291   2.494  0.00  0.00    +0.212 A 
ATOM      7  C   UNL     1     -37.670  21.185   1.609  0.00  0.00    +0.238 A 
ATOM      8  C   UNL     1     -36.932  19.201   0.291  0.00  0.00    +0.177 C 
ATOM      9  C   UNL     1     -34.286  19.657   1.072  0.00  0.00    +0.078 C 
ATOM     10  C   UNL     1     -35.915  18.356  -0.152  0.00  0.00    +0.206 C 
ATOM     11  C   UNL     1     -34.594  18.582   0.237  0.00  0.00    +0.174 C 
ENDROOT
BRANCH   5  12
ATOM     12  C   UNL     1     -35.398  23.464   3.667  0.00  0.00    +0.038 C 
ATOM     13  C   UNL     1     -34.728  24.552   3.106  0.00  0.00    +0.006 C 
ATOM     14  C   UNL     1     -35.571  23.391   5.051  0.00  0.00    +0.006 C 
ATOM     15  C   UNL     1     -34.230  25.563   3.927  0.00  0.00    +0.037 C 
ATOM     16  C   UNL     1     -35.073  24.404   5.871  0.00  0.00    +0.037 C 
ATOM     17  C   UNL     1     -34.402  25.490   5.309  0.00  0.00    +0.134 C 
BRANCH  17  18
ATOM     18  O   UNL     1     -33.916  26.478   6.108  0.00  0.00    -0.506 OA
ATOM     19  H   UNL     1     -34.501  26.979   6.642  0.00  0.00    +0.292 HD
ENDBRANCH  17  18
ENDBRANCH   5  12
BRANCH   6  20
ATOM     20  O   UNL     1     -38.183  23.176   2.949  0.00  0.00    -0.465 OA
ATOM     21  C   UNL     1     -38.374  24.229   2.025  0.00  0.00    +0.253 C 
ENDBRANCH   6  20
BRANCH  10  22
ATOM     22  O   UNL     1     -36.207  17.302  -0.969  0.00  0.00    -0.465 OA
ATOM     23  C   UNL     1     -36.468  16.050  -0.339  0.00  0.00    +0.253 C 
ENDBRANCH  10  22
BRANCH   8  24
ATOM     24  O   UNL     1     -38.208  18.945  -0.112  0.00  0.00    -0.503 OA
ATOM     25  H   UNL     1     -38.604  18.118   0.080  0.00  0.00    +0.292 HD
ENDBRANCH   8  24
BRANCH  11  26
ATOM     26  O   UNL     1     -33.594  17.762  -0.191  0.00  0.00    -0.503 OA
ATOM     27  H   UNL     1     -32.718  17.890   0.116  0.00  0.00    +0.292 HD
ENDBRANCH  11  26
TORSDOF 6
ENDMDL
MODEL 5
REMARK VINA RESULT:      -5.8      3.339      6.858
REMARK  Name = 5352032
REMARK  6 active torsions:
REMARK  status: ('A' for Active; 'I' for Inactive)
REMARK    1  A    between atoms: C_5  and  C_12
REMARK    2  A    between atoms: C_6  and  O_20
REMARK    3  A    between atoms: C_8  and  O_24
REMARK    4  A    between atoms: C_10  and  O_22
REMARK    5  A    between atoms: C_11  and  O_26
REMARK    6  A    between atoms: C_17  and  O_18
REMARK                            x       y       z     vdW  Elec       q    Type
REMARK                         _______ _______ _______ _____ _____    ______ ____
ROOT
ATOM      1  O   UNL     1     -35.031  26.292   3.250  0.00  0.00    -0.450 OA
ATOM      2  O   UNL     1     -38.373  27.184   1.097  0.00  0.00    -0.283 OA
ATOM      3  C   UNL     1     -36.257  27.874   1.877  0.00  0.00    +0.113 A 
ATOM      4  C   UNL     1     -35.142  27.509   2.629  0.00  0.00    +0.155 A 
ATOM      5  C   UNL     1     -36.068  25.382   3.114  0.00  0.00    +0.182 A 
ATOM      6  C   UNL     1     -37.200  25.613   2.425  0.00  0.00    +0.212 A 
ATOM      7  C   UNL     1     -37.366  26.918   1.739  0.00  0.00    +0.238 A 
ATOM      8  C   UNL     1     -36.315  29.129   1.266  0.00  0.00    +0.177 C 
ATOM      9  C   UNL     1     -34.078  28.398   2.776  0.00  0.00    +0.078 C 
ATOM     10  C   UNL     1     -35.249  30.016   1.414  0.00  0.00    +0.206 C 
ATOM     11  C   UNL     1     -34.133  29.652   2.167  0.00  0.00    +0.174 C 
ENDROOT
BRANCH   5  12
ATOM     12  C   UNL     1     -35.822  24.118   3.830  0.00  0.00    +0.038 C 
ATOM     13  C   UNL     1     -35.684  22.926   3.118  0.00  0.00    +0.006 C 
ATOM     14  C   UNL     1     -35.727  24.112   5.223  0.00  0.00    +0.006 C 
ATOM     15  C   UNL     1     -35.452  21.731   3.797  0.00  0.00    +0.037 C 
ATOM     16  C   UNL     1     -35.494  22.916   5.901  0.00  0.00    +0.037 C 
ATOM     17  C   UNL     1     -35.357  21.725   5.188  0.00  0.00    +0.134 C 
BRANCH  17  18
ATOM     18  O   UNL     1     -35.131  20.558   5.850  0.00  0.00    -0.506 OA
ATOM     19  H   UNL     1     -34.465  19.971   5.550  0.00  0.00    +0.292 HD
ENDBRANCH  17  18
ENDBRANCH   5  12
BRANCH   6  20
ATOM     20  O   UNL     1     -38.228  24.699   2.336  0.00  0.00    -0.465 OA
ATOM     21  C   UNL     1     -39.203  24.941   3.331  0.00  0.00    +0.253 C 
ENDBRANCH   6  20
BRANCH  10  22
ATOM     22  O   UNL     1     -35.294  31.245   0.823  0.00  0.00    -0.465 OA
ATOM     23  C   UNL     1     -35.883  32.303   1.575  0.00  0.00    +0.253 C 
ENDBRANCH  10  22
BRANCH   8  24
ATOM     24  O   UNL     1     -37.387  29.523   0.523  0.00  0.00    -0.503 OA
ATOM     25  H   UNL     1     -37.813  30.337   0.708  0.00  0.00    +0.292 HD
ENDBRANCH   8  24
BRANCH  11  26
ATOM     26  O   UNL     1     -33.087  30.512   2.317  0.00  0.00    -0.503 OA
ATOM     27  H   UNL     1     -32.942  31.190   1.685  0.00  0.00    +0.292 HD
ENDBRANCH  11  26
TORSDOF 6
ENDMDL
MODEL 6
REMARK VINA RESULT:      -5.8      2.362      8.077
REMARK  Name = 5352032
REMARK  6 active torsions:
REMARK  status: ('A' for Active; 'I' for Inactive)
REMARK    1  A    between atoms: C_5  and  C_12
REMARK    2  A    between atoms: C_6  and  O_20
REMARK    3  A    between atoms: C_8  and  O_24
REMARK    4  A    between atoms: C_10  and  O_22
REMARK    5  A    between atoms: C_11  and  O_26
REMARK    6  A    between atoms: C_17  and  O_18
REMARK                            x       y       z     vdW  Elec       q    Type
REMARK                         _______ _______ _______ _____ _____    ______ ____
ROOT
ATOM      1  O   UNL     1     -35.911  25.420   2.332  0.00  0.00    -0.450 OA
ATOM      2  O   UNL     1     -34.337  25.489   6.089  0.00  0.00    -0.283 OA
ATOM      3  C   UNL     1     -34.372  26.418   3.922  0.00  0.00    +0.113 A 
ATOM      4  C   UNL     1     -34.948  26.341   2.655  0.00  0.00    +0.155 A 
ATOM      5  C   UNL     1     -36.337  24.536   3.310  0.00  0.00    +0.182 A 
ATOM      6  C   UNL     1     -35.857  24.499   4.567  0.00  0.00    +0.212 A 
ATOM      7  C   UNL     1     -34.811  25.474   4.961  0.00  0.00    +0.238 A 
ATOM      8  C   UNL     1     -33.393  27.377   4.195  0.00  0.00    +0.177 C 
ATOM      9  C   UNL     1     -34.547  27.224   1.653  0.00  0.00    +0.078 C 
ATOM     10  C   UNL     1     -32.996  28.258   3.190  0.00  0.00    +0.206 C 
ATOM     11  C   UNL     1     -33.571  28.183   1.922  0.00  0.00    +0.174 C 
ENDROOT
BRANCH   5  12
ATOM     12  C   UNL     1     -37.371  23.603   2.831  0.00  0.00    +0.038 C 
ATOM     13  C   UNL     1     -38.710  23.994   2.808  0.00  0.00    +0.006 C 
ATOM     14  C   UNL     1     -37.012  22.325   2.399  0.00  0.00    +0.006 C 
ATOM     15  C   UNL     1     -39.688  23.110   2.355  0.00  0.00    +0.037 C 
ATOM     16  C   UNL     1     -37.991  21.441   1.945  0.00  0.00    +0.037 C 
ATOM     17  C   UNL     1     -39.329  21.833   1.923  0.00  0.00    +0.134 C 
BRANCH  17  18
ATOM     18  O   UNL     1     -40.284  20.971   1.481  0.00  0.00    -0.506 OA
ATOM     19  H   UNL     1     -41.185  21.122   1.689  0.00  0.00    +0.292 HD
ENDBRANCH  17  18
ENDBRANCH   5  12
BRANCH   6  20
ATOM     20  O   UNL     1     -36.279  23.584   5.507  0.00  0.00    -0.465 OA
ATOM     21  C   UNL     1     -35.343  22.532   5.640  0.00  0.00    +0.253 C 
ENDBRANCH   6  20
BRANCH  10  22
ATOM     22  O   UNL     1     -32.041  29.200   3.444  0.00  0.00    -0.465 OA
ATOM     23  C   UNL     1     -32.490  30.455   3.950  0.00  0.00    +0.253 C 
ENDBRANCH  10  22
BRANCH   8  24
ATOM     24  O   UNL     1     -32.806  27.484   5.420  0.00  0.00    -0.503 OA
ATOM     25  H   UNL     1     -31.875  27.418   5.502  0.00  0.00    +0.292 HD
ENDBRANCH   8  24
BRANCH  11  26
ATOM     26  O   UNL     1     -33.189  29.041   0.935  0.00  0.00    -0.503 OA
ATOM     27  H   UNL     1     -32.372  28.913   0.492  0.00  0.00    +0.292 HD
ENDBRANCH  11  26
TORSDOF 6
ENDMDL
MODEL 7
REMARK VINA RESULT:      -5.7      2.667      7.974
REMARK  Name = 5352032
REMARK  6 active torsions:
REMARK  status: ('A' for Active; 'I' for Inactive)
REMARK    1  A    between atoms: C_5  and  C_12
REMARK    2  A    between atoms: C_6  and  O_20
REMARK    3  A    between atoms: C_8  and  O_24
REMARK    4  A    between atoms: C_10  and  O_22
REMARK    5  A    between atoms: C_11  and  O_26
REMARK    6  A    between atoms: C_17  and  O_18
REMARK                            x       y       z     vdW  Elec       q    Type
REMARK                         _______ _______ _______ _____ _____    ______ ____
ROOT
ATOM      1  O   UNL     1     -34.377  24.152   2.177  0.00  0.00    -0.450 OA
ATOM      2  O   UNL     1     -34.830  25.274   6.068  0.00  0.00    -0.283 OA
ATOM      3  C   UNL     1     -33.924  25.754   3.944  0.00  0.00    +0.113 A 
ATOM      4  C   UNL     1     -33.805  25.314   2.627  0.00  0.00    +0.155 A 
ATOM      5  C   UNL     1     -35.115  23.389   3.068  0.00  0.00    +0.182 A 
ATOM      6  C   UNL     1     -35.299  23.696   4.365  0.00  0.00    +0.212 A 
ATOM      7  C   UNL     1     -34.696  24.942   4.898  0.00  0.00    +0.238 A 
ATOM      8  C   UNL     1     -33.319  26.947   4.347  0.00  0.00    +0.177 C 
ATOM      9  C   UNL     1     -33.077  26.065   1.704  0.00  0.00    +0.078 C 
ATOM     10  C   UNL     1     -32.593  27.696   3.422  0.00  0.00    +0.206 C 
ATOM     11  C   UNL     1     -32.472  27.257   2.103  0.00  0.00    +0.174 C 
ENDROOT
BRANCH   5  12
ATOM     12  C   UNL     1     -35.672  22.170   2.457  0.00  0.00    +0.038 C 
ATOM     13  C   UNL     1     -37.011  22.133   2.066  0.00  0.00    +0.006 C 
ATOM     14  C   UNL     1     -34.860  21.050   2.268  0.00  0.00    +0.006 C 
ATOM     15  C   UNL     1     -37.537  20.978   1.489  0.00  0.00    +0.037 C 
ATOM     16  C   UNL     1     -35.387  19.895   1.689  0.00  0.00    +0.037 C 
ATOM     17  C   UNL     1     -36.726  19.859   1.300  0.00  0.00    +0.134 C 
BRANCH  17  18
ATOM     18  O   UNL     1     -37.241  18.733   0.736  0.00  0.00    -0.506 OA
ATOM     19  H   UNL     1     -37.900  18.243   1.186  0.00  0.00    +0.292 HD
ENDBRANCH  17  18
ENDBRANCH   5  12
BRANCH   6  20
ATOM     20  O   UNL     1     -36.012  22.898   5.233  0.00  0.00    -0.465 OA
ATOM     21  C   UNL     1     -35.148  22.033   5.945  0.00  0.00    +0.253 C 
ENDBRANCH   6  20
BRANCH  10  22
ATOM     22  O   UNL     1     -31.997  28.863   3.803  0.00  0.00    -0.465 OA
ATOM     23  C   UNL     1     -32.762  30.056   3.657  0.00  0.00    +0.253 C 
ENDBRANCH  10  22
BRANCH   8  24
ATOM     24  O   UNL     1     -33.413  27.410   5.625  0.00  0.00    -0.503 OA
ATOM     25  H   UNL     1     -33.169  28.292   5.823  0.00  0.00    +0.292 HD
ENDBRANCH   8  24
BRANCH  11  26
ATOM     26  O   UNL     1     -31.764  27.983   1.193  0.00  0.00    -0.503 OA
ATOM     27  H   UNL     1     -31.918  28.903   1.105  0.00  0.00    +0.292 HD
ENDBRANCH  11  26
TORSDOF 6
ENDMDL
MODEL 8
REMARK VINA RESULT:      -5.6      5.491      9.030
REMARK  Name = 5352032
REMARK  6 active torsions:
REMARK  status: ('A' for Active; 'I' for Inactive)
REMARK    1  A    between atoms: C_5  and  C_12
REMARK    2  A    between atoms: C_6  and  O_20
REMARK    3  A    between atoms: C_8  and  O_24
REMARK    4  A    between atoms: C_10  and  O_22
REMARK    5  A    between atoms: C_11  and  O_26
REMARK    6  A    between atoms: C_17  and  O_18
REMARK                            x       y       z     vdW  Elec       q    Type
REMARK                         _______ _______ _______ _____ _____    ______ ____
ROOT
ATOM      1  O   UNL     1     -34.661  20.026   2.546  0.00  0.00    -0.450 OA
ATOM      2  O   UNL     1     -35.887  22.939  -0.025  0.00  0.00    -0.283 OA
ATOM      3  C   UNL     1     -35.640  22.221   2.208  0.00  0.00    +0.113 A 
ATOM      4  C   UNL     1     -35.204  21.186   3.033  0.00  0.00    +0.155 A 
ATOM      5  C   UNL     1     -34.530  19.881   1.174  0.00  0.00    +0.182 A 
ATOM      6  C   UNL     1     -34.919  20.798   0.269  0.00  0.00    +0.212 A 
ATOM      7  C   UNL     1     -35.516  22.068   0.750  0.00  0.00    +0.238 A 
ATOM      8  C   UNL     1     -36.186  23.382   2.760  0.00  0.00    +0.177 C 
ATOM      9  C   UNL     1     -35.312  21.307   4.419  0.00  0.00    +0.078 C 
ATOM     10  C   UNL     1     -36.292  23.499   4.146  0.00  0.00    +0.206 C 
ATOM     11  C   UNL     1     -35.856  22.465   4.974  0.00  0.00    +0.174 C 
ENDROOT
BRANCH   5  12
ATOM     12  C   UNL     1     -33.934  18.591   0.786  0.00  0.00    +0.038 C 
ATOM     13  C   UNL     1     -34.726  17.604   0.196  0.00  0.00    +0.006 C 
ATOM     14  C   UNL     1     -32.576  18.353   1.008  0.00  0.00    +0.006 C 
ATOM     15  C   UNL     1     -34.161  16.383  -0.170  0.00  0.00    +0.037 C 
ATOM     16  C   UNL     1     -32.012  17.132   0.641  0.00  0.00    +0.037 C 
ATOM     17  C   UNL     1     -32.804  16.146   0.052  0.00  0.00    +0.134 C 
BRANCH  17  18
ATOM     18  O   UNL     1     -32.254  14.954  -0.306  0.00  0.00    -0.506 OA
ATOM     19  H   UNL     1     -32.539  14.522  -1.087  0.00  0.00    +0.292 HD
ENDBRANCH  17  18
ENDBRANCH   5  12
BRANCH   6  20
ATOM     20  O   UNL     1     -34.806  20.608  -1.091  0.00  0.00    -0.465 OA
ATOM     21  C   UNL     1     -33.574  21.114  -1.568  0.00  0.00    +0.253 C 
ENDBRANCH   6  20
BRANCH  10  22
ATOM     22  O   UNL     1     -36.824  24.628   4.698  0.00  0.00    -0.465 OA
ATOM     23  C   UNL     1     -35.910  25.655   5.075  0.00  0.00    +0.253 C 
ENDBRANCH  10  22
BRANCH   8  24
ATOM     24  O   UNL     1     -36.624  24.415   1.987  0.00  0.00    -0.503 OA
ATOM     25  H   UNL     1     -37.005  25.171   2.387  0.00  0.00    +0.292 HD
ENDBRANCH   8  24
BRANCH  11  26
ATOM     26  O   UNL     1     -35.956  22.571   6.329  0.00  0.00    -0.503 OA
ATOM     27  H   UNL     1     -35.444  22.015   6.882  0.00  0.00    +0.292 HD
ENDBRANCH  11  26
TORSDOF 6
ENDMDL
MODEL 9
REMARK VINA RESULT:      -5.6      2.905      5.966
REMARK  Name = 5352032
REMARK  6 active torsions:
REMARK  status: ('A' for Active; 'I' for Inactive)
REMARK    1  A    between atoms: C_5  and  C_12
REMARK    2  A    between atoms: C_6  and  O_20
REMARK    3  A    between atoms: C_8  and  O_24
REMARK    4  A    between atoms: C_10  and  O_22
REMARK    5  A    between atoms: C_11  and  O_26
REMARK    6  A    between atoms: C_17  and  O_18
REMARK                            x       y       z     vdW  Elec       q    Type
REMARK                         _______ _______ _______ _____ _____    ______ ____
ROOT
ATOM      1  O   UNL     1     -37.599  25.802   3.286  0.00  0.00    -0.450 OA
ATOM      2  O   UNL     1     -37.827  21.873   2.233  0.00  0.00    -0.283 OA
ATOM      3  C   UNL     1     -38.878  23.983   2.314  0.00  0.00    +0.113 A 
ATOM      4  C   UNL     1     -38.738  25.315   2.699  0.00  0.00    +0.155 A 
ATOM      5  C   UNL     1     -36.538  24.936   3.494  0.00  0.00    +0.182 A 
ATOM      6  C   UNL     1     -36.547  23.628   3.178  0.00  0.00    +0.212 A 
ATOM      7  C   UNL     1     -37.760  23.055   2.544  0.00  0.00    +0.238 A 
ATOM      8  C   UNL     1     -40.063  23.541   1.720  0.00  0.00    +0.177 C 
ATOM      9  C   UNL     1     -39.784  26.214   2.493  0.00  0.00    +0.078 C 
ATOM     10  C   UNL     1     -41.106  24.443   1.515  0.00  0.00    +0.206 C 
ATOM     11  C   UNL     1     -40.968  25.777   1.900  0.00  0.00    +0.174 C 
ENDROOT
BRANCH   5  12
ATOM     12  C   UNL     1     -35.380  25.587   4.131  0.00  0.00    +0.038 C 
ATOM     13  C   UNL     1     -35.257  25.590   5.521  0.00  0.00    +0.006 C 
ATOM     14  C   UNL     1     -34.403  26.200   3.344  0.00  0.00    +0.006 C 
ATOM     15  C   UNL     1     -34.161  26.208   6.123  0.00  0.00    +0.037 C 
ATOM     16  C   UNL     1     -33.307  26.816   3.947  0.00  0.00    +0.037 C 
ATOM     17  C   UNL     1     -33.185  26.820   5.337  0.00  0.00    +0.134 C 
BRANCH  17  18
ATOM     18  O   UNL     1     -32.116  27.422   5.925  0.00  0.00    -0.506 OA
ATOM     19  H   UNL     1     -32.156  28.329   6.154  0.00  0.00    +0.292 HD
ENDBRANCH  17  18
ENDBRANCH   5  12
BRANCH   6  20
ATOM     20  O   UNL     1     -35.487  22.785   3.429  0.00  0.00    -0.465 OA
ATOM     21  C   UNL     1     -35.621  22.172   4.697  0.00  0.00    +0.253 C 
ENDBRANCH   6  20
BRANCH  10  22
ATOM     22  O   UNL     1     -42.269  24.024   0.936  0.00  0.00    -0.465 OA
ATOM     23  C   UNL     1     -42.340  24.085  -0.487  0.00  0.00    +0.253 C 
ENDBRANCH  10  22
BRANCH   8  24
ATOM     24  O   UNL     1     -40.238  22.247   1.330  0.00  0.00    -0.503 OA
ATOM     25  H   UNL     1     -39.569  21.613   1.496  0.00  0.00    +0.292 HD
ENDBRANCH   8  24
BRANCH  11  26
ATOM     26  O   UNL     1     -41.983  26.664   1.703  0.00  0.00    -0.503 OA
ATOM     27  H   UNL     1     -42.836  26.487   2.049  0.00  0.00    +0.292 HD
ENDBRANCH  11  26
TORSDOF 6
ENDMDL
