MODEL 1
REMARK VINA RESULT:      -6.8      0.000      0.000
REMARK  Name = 53297358
REMARK  9 active torsions:
REMARK  status: ('A' for Active; 'I' for Inactive)
REMARK    1  A    between atoms: C_7  and  C_27
REMARK    2  A    between atoms: C_8  and  C_21
REMARK    3  A    between atoms: C_10  and  O_16
REMARK    4  A    between atoms: C_13  and  O_18
REMARK    5  A    between atoms: C_21  and  C_22
REMARK    6  A    between atoms: C_22  and  C_24
REMARK    7  A    between atoms: C_24  and  C_25
REMARK    8  A    between atoms: C_27  and  C_29
REMARK    9  A    between atoms: C_29  and  O_30
REMARK                            x       y       z     vdW  Elec       q    Type
REMARK                         _______ _______ _______ _____ _____    ______ ____
ROOT
ATOM      1  O   UNL     1     -39.748  26.645   3.246  0.00  0.00    -0.286 OA
ATOM      2  C   UNL     1     -38.825  23.422   1.928  0.00  0.00    -0.012 C 
ATOM      3  C   UNL     1     -39.917  23.187   0.920  0.00  0.00    +0.053 C 
ATOM      4  C   UNL     1     -38.763  24.580   2.710  0.00  0.00    +0.069 C 
ATOM      5  C   UNL     1     -40.943  24.282   0.807  0.00  0.00    -0.012 C 
ATOM      6  C   UNL     1     -40.888  25.443   1.585  0.00  0.00    +0.069 C 
ATOM      7  C   UNL     1     -36.800  22.618   3.011  0.00  0.00    -0.006 C 
ATOM      8  C   UNL     1     -36.748  23.776   3.783  0.00  0.00    +0.065 C 
ATOM      9  C   UNL     1     -37.832  22.443   2.090  0.00  0.00    -0.007 C 
ATOM     10  C   UNL     1     -37.727  24.757   3.635  0.00  0.00    +0.139 C 
ATOM     11  C   UNL     1     -39.795  25.629   2.563  0.00  0.00    +0.201 C 
ATOM     12  C   UNL     1     -41.992  24.133  -0.113  0.00  0.00    -0.004 C 
ATOM     13  C   UNL     1     -41.865  26.438   1.446  0.00  0.00    +0.136 C 
ATOM     14  C   UNL     1     -42.965  25.123  -0.253  0.00  0.00    +0.003 C 
ATOM     15  C   UNL     1     -42.901  26.274   0.527  0.00  0.00    +0.037 C 
ENDROOT
BRANCH  10  16
ATOM     16  O   UNL     1     -37.633  25.875   4.415  0.00  0.00    -0.505 OA
ATOM     17  H   UNL     1     -36.860  26.403   4.386  0.00  0.00    +0.292 HD
ENDBRANCH  10  16
BRANCH  13  18
ATOM     18  O   UNL     1     -41.864  27.589   2.176  0.00  0.00    -0.505 OA
ATOM     19  H   UNL     1     -42.584  28.186   2.111  0.00  0.00    +0.292 HD
ENDBRANCH  13  18
BRANCH   8  21
ATOM     20  O   UNL     1     -35.763  23.481   5.893  0.00  0.00    -0.291 OA
ATOM     21  C   UNL     1     -35.667  23.957   4.748  0.00  0.00    +0.183 C 
BRANCH  21  22
ATOM     22  C   UNL     1     -34.428  24.766   4.351  0.00  0.00    +0.133 C 
BRANCH  22  24
ATOM     23  O   UNL     1     -34.786  27.152   4.287  0.00  0.00    -0.296 OA
ATOM     24  C   UNL     1     -34.327  26.183   4.890  0.00  0.00    +0.158 C 
BRANCH  24  25
ATOM     25  C   UNL     1     -33.669  26.321   6.254  0.00  0.00    +0.065 C 
ATOM     26  C   UNL     1     -32.617  27.415   6.291  0.00  0.00    +0.008 C 
ENDBRANCH  24  25
ENDBRANCH  22  24
ENDBRANCH  21  22
ENDBRANCH   8  21
BRANCH   7  27
ATOM     27  C   UNL     1     -35.767  21.547   3.146  0.00  0.00    +0.136 C 
BRANCH  27  29
ATOM     28  O   UNL     1     -35.279  20.397   1.056  0.00  0.00    -0.250 OA
ATOM     29  C   UNL     1     -35.900  20.451   2.109  0.00  0.00    +0.318 C 
BRANCH  29  30
ATOM     30  O   UNL     1     -36.807  19.510   2.482  0.00  0.00    -0.480 OA
ATOM     31  H   UNL     1     -36.521  18.646   2.704  0.00  0.00    +0.295 HD
ENDBRANCH  29  30
ENDBRANCH  27  29
ENDBRANCH   7  27
TORSDOF 9
ENDMDL
MODEL 2
REMARK VINA RESULT:      -6.8      4.183      7.716
REMARK  Name = 53297358
REMARK  9 active torsions:
REMARK  status: ('A' for Active; 'I' for Inactive)
REMARK    1  A    between atoms: C_7  and  C_27
REMARK    2  A    between atoms: C_8  and  C_21
REMARK    3  A    between atoms: C_10  and  O_16
REMARK    4  A    between atoms: C_13  and  O_18
REMARK    5  A    between atoms: C_21  and  C_22
REMARK    6  A    between atoms: C_22  and  C_24
REMARK    7  A    between atoms: C_24  and  C_25
REMARK    8  A    between atoms: C_27  and  C_29
REMARK    9  A    between atoms: C_29  and  O_30
REMARK                            x       y       z     vdW  Elec       q    Type
REMARK                         _______ _______ _______ _____ _____    ______ ____
ROOT
ATOM      1  O   UNL     1     -32.581  27.343   2.060  0.00  0.00    -0.286 OA
ATOM      2  C   UNL     1     -33.908  25.773   5.017  0.00  0.00    -0.012 C 
ATOM      3  C   UNL     1     -33.358  26.661   6.100  0.00  0.00    +0.053 C 
ATOM      4  C   UNL     1     -33.651  25.998   3.661  0.00  0.00    +0.069 C 
ATOM      5  C   UNL     1     -32.511  27.812   5.629  0.00  0.00    -0.012 C 
ATOM      6  C   UNL     1     -32.250  28.043   4.274  0.00  0.00    +0.069 C 
ATOM      7  C   UNL     1     -35.239  23.828   4.413  0.00  0.00    -0.006 C 
ATOM      8  C   UNL     1     -34.978  24.062   3.065  0.00  0.00    +0.065 C 
ATOM      9  C   UNL     1     -34.707  24.678   5.382  0.00  0.00    -0.007 C 
ATOM     10  C   UNL     1     -34.185  25.145   2.687  0.00  0.00    +0.139 C 
ATOM     11  C   UNL     1     -32.811  27.142   3.246  0.00  0.00    +0.201 C 
ATOM     12  C   UNL     1     -31.964  28.684   6.582  0.00  0.00    -0.004 C 
ATOM     13  C   UNL     1     -31.455  29.128   3.879  0.00  0.00    +0.136 C 
ATOM     14  C   UNL     1     -31.173  29.764   6.191  0.00  0.00    +0.003 C 
ATOM     15  C   UNL     1     -30.919  29.985   4.840  0.00  0.00    +0.037 C 
ENDROOT
BRANCH  10  16
ATOM     16  O   UNL     1     -33.956  25.333   1.353  0.00  0.00    -0.505 OA
ATOM     17  H   UNL     1     -33.825  24.594   0.792  0.00  0.00    +0.292 HD
ENDBRANCH  10  16
BRANCH  13  18
ATOM     18  O   UNL     1     -31.166  29.404   2.577  0.00  0.00    -0.505 OA
ATOM     19  H   UNL     1     -31.109  28.707   1.951  0.00  0.00    +0.292 HD
ENDBRANCH  13  18
BRANCH   8  21
ATOM     20  O   UNL     1     -36.712  23.307   1.678  0.00  0.00    -0.291 OA
ATOM     21  C   UNL     1     -35.534  23.171   2.052  0.00  0.00    +0.183 C 
BRANCH  21  22
ATOM     22  C   UNL     1     -34.667  22.047   1.475  0.00  0.00    +0.133 C 
BRANCH  22  24
ATOM     23  O   UNL     1     -35.941  20.368   2.650  0.00  0.00    -0.296 OA
ATOM     24  C   UNL     1     -34.977  20.632   1.933  0.00  0.00    +0.158 C 
BRANCH  24  25
ATOM     25  C   UNL     1     -34.048  19.552   1.400  0.00  0.00    +0.065 C 
ATOM     26  C   UNL     1     -32.911  20.115   0.566  0.00  0.00    +0.008 C 
ENDBRANCH  24  25
ENDBRANCH  22  24
ENDBRANCH  21  22
ENDBRANCH   8  21
BRANCH   7  27
ATOM     27  C   UNL     1     -36.084  22.677   4.852  0.00  0.00    +0.136 C 
BRANCH  27  29
ATOM     28  O   UNL     1     -35.231  22.140   7.069  0.00  0.00    -0.250 OA
ATOM     29  C   UNL     1     -35.421  21.813   5.905  0.00  0.00    +0.318 C 
BRANCH  29  30
ATOM     30  O   UNL     1     -35.050  20.605   5.406  0.00  0.00    -0.480 OA
ATOM     31  H   UNL     1     -34.896  19.886   5.986  0.00  0.00    +0.295 HD
ENDBRANCH  29  30
ENDBRANCH  27  29
ENDBRANCH   7  27
TORSDOF 9
ENDMDL
MODEL 3
REMARK VINA RESULT:      -6.8      2.988      7.655
REMARK  Name = 53297358
REMARK  9 active torsions:
REMARK  status: ('A' for Active; 'I' for Inactive)
REMARK    1  A    between atoms: C_7  and  C_27
REMARK    2  A    between atoms: C_8  and  C_21
REMARK    3  A    between atoms: C_10  and  O_16
REMARK    4  A    between atoms: C_13  and  O_18
REMARK    5  A    between atoms: C_21  and  C_22
REMARK    6  A    between atoms: C_22  and  C_24
REMARK    7  A    between atoms: C_24  and  C_25
REMARK    8  A    between atoms: C_27  and  C_29
REMARK    9  A    between atoms: C_29  and  O_30
REMARK                            x       y       z     vdW  Elec       q    Type
REMARK                         _______ _______ _______ _____ _____    ______ ____
ROOT
ATOM      1  O   UNL     1     -32.369  27.590   2.251  0.00  0.00    -0.286 OA
ATOM      2  C   UNL     1     -33.762  26.053   5.197  0.00  0.00    -0.012 C 
ATOM      3  C   UNL     1     -33.193  26.923   6.285  0.00  0.00    +0.053 C 
ATOM      4  C   UNL     1     -33.489  26.273   3.843  0.00  0.00    +0.069 C 
ATOM      5  C   UNL     1     -32.308  28.048   5.822  0.00  0.00    -0.012 C 
ATOM      6  C   UNL     1     -32.031  28.275   4.469  0.00  0.00    +0.069 C 
ATOM      7  C   UNL     1     -35.146  24.150   4.579  0.00  0.00    -0.006 C 
ATOM      8  C   UNL     1     -34.869  24.379   3.234  0.00  0.00    +0.065 C 
ATOM      9  C   UNL     1     -34.595  24.982   5.554  0.00  0.00    -0.007 C 
ATOM     10  C   UNL     1     -34.042  25.439   2.863  0.00  0.00    +0.139 C 
ATOM     11  C   UNL     1     -32.613  27.393   3.435  0.00  0.00    +0.201 C 
ATOM     12  C   UNL     1     -31.742  28.902   6.781  0.00  0.00    -0.004 C 
ATOM     13  C   UNL     1     -31.202  29.336   4.082  0.00  0.00    +0.136 C 
ATOM     14  C   UNL     1     -30.917  29.959   6.397  0.00  0.00    +0.003 C 
ATOM     15  C   UNL     1     -30.647  30.175   5.048  0.00  0.00    +0.037 C 
ENDROOT
BRANCH  10  16
ATOM     16  O   UNL     1     -33.799  25.623   1.532  0.00  0.00    -0.505 OA
ATOM     17  H   UNL     1     -32.958  25.413   1.176  0.00  0.00    +0.292 HD
ENDBRANCH  10  16
BRANCH  13  18
ATOM     18  O   UNL     1     -30.896  29.606   2.782  0.00  0.00    -0.505 OA
ATOM     19  H   UNL     1     -31.512  29.405   2.104  0.00  0.00    +0.292 HD
ENDBRANCH  13  18
BRANCH   8  21
ATOM     20  O   UNL     1     -34.825  22.502   1.827  0.00  0.00    -0.291 OA
ATOM     21  C   UNL     1     -35.445  23.507   2.215  0.00  0.00    +0.183 C 
BRANCH  21  22
ATOM     22  C   UNL     1     -36.805  23.857   1.602  0.00  0.00    +0.133 C 
BRANCH  22  24
ATOM     23  O   UNL     1     -38.304  22.130   2.375  0.00  0.00    -0.296 OA
ATOM     24  C   UNL     1     -38.039  23.330   2.315  0.00  0.00    +0.158 C 
BRANCH  24  25
ATOM     25  C   UNL     1     -38.900  24.381   3.000  0.00  0.00    +0.065 C 
ATOM     26  C   UNL     1     -38.304  25.775   2.914  0.00  0.00    +0.008 C 
ENDBRANCH  24  25
ENDBRANCH  22  24
ENDBRANCH  21  22
ENDBRANCH   8  21
BRANCH   7  27
ATOM     27  C   UNL     1     -36.027  23.023   5.010  0.00  0.00    +0.136 C 
BRANCH  27  29
ATOM     28  O   UNL     1     -34.550  21.563   6.282  0.00  0.00    -0.250 OA
ATOM     29  C   UNL     1     -35.268  21.747   5.308  0.00  0.00    +0.318 C 
BRANCH  29  30
ATOM     30  O   UNL     1     -35.474  20.803   4.351  0.00  0.00    -0.480 OA
ATOM     31  H   UNL     1     -36.145  20.925   3.709  0.00  0.00    +0.295 HD
ENDBRANCH  29  30
ENDBRANCH  27  29
ENDBRANCH   7  27
TORSDOF 9
ENDMDL
MODEL 4
REMARK VINA RESULT:      -6.7      1.890      2.755
REMARK  Name = 53297358
REMARK  9 active torsions:
REMARK  status: ('A' for Active; 'I' for Inactive)
REMARK    1  A    between atoms: C_7  and  C_27
REMARK    2  A    between atoms: C_8  and  C_21
REMARK    3  A    between atoms: C_10  and  O_16
REMARK    4  A    between atoms: C_13  and  O_18
REMARK    5  A    between atoms: C_21  and  C_22
REMARK    6  A    between atoms: C_22  and  C_24
REMARK    7  A    between atoms: C_24  and  C_25
REMARK    8  A    between atoms: C_27  and  C_29
REMARK    9  A    between atoms: C_29  and  O_30
REMARK                            x       y       z     vdW  Elec       q    Type
REMARK                         _______ _______ _______ _____ _____    ______ ____
ROOT
ATOM      1  O   UNL     1     -40.025  25.916   1.786  0.00  0.00    -0.286 OA
ATOM      2  C   UNL     1     -38.082  22.934   2.346  0.00  0.00    -0.012 C 
ATOM      3  C   UNL     1     -38.806  21.939   1.481  0.00  0.00    +0.053 C 
ATOM      4  C   UNL     1     -38.486  24.269   2.451  0.00  0.00    +0.069 C 
ATOM      5  C   UNL     1     -39.998  22.472   0.734  0.00  0.00    -0.012 C 
ATOM      6  C   UNL     1     -40.408  23.807   0.833  0.00  0.00    +0.069 C 
ATOM      7  C   UNL     1     -36.258  23.396   3.888  0.00  0.00    -0.006 C 
ATOM      8  C   UNL     1     -36.668  24.723   3.984  0.00  0.00    +0.065 C 
ATOM      9  C   UNL     1     -36.961  22.508   3.075  0.00  0.00    -0.007 C 
ATOM     10  C   UNL     1     -37.780  25.162   3.267  0.00  0.00    +0.139 C 
ATOM     11  C   UNL     1     -39.665  24.749   1.697  0.00  0.00    +0.201 C 
ATOM     12  C   UNL     1     -40.723  21.602  -0.094  0.00  0.00    -0.004 C 
ATOM     13  C   UNL     1     -41.524  24.262   0.118  0.00  0.00    +0.136 C 
ATOM     14  C   UNL     1     -41.834  22.053  -0.806  0.00  0.00    +0.003 C 
ATOM     15  C   UNL     1     -42.233  23.383  -0.699  0.00  0.00    +0.037 C 
ENDROOT
BRANCH  10  16
ATOM     16  O   UNL     1     -38.145  26.472   3.394  0.00  0.00    -0.505 OA
ATOM     17  H   UNL     1     -37.611  27.061   3.891  0.00  0.00    +0.292 HD
ENDBRANCH  10  16
BRANCH  13  18
ATOM     18  O   UNL     1     -41.971  25.548   0.176  0.00  0.00    -0.505 OA
ATOM     19  H   UNL     1     -41.454  26.241  -0.188  0.00  0.00    +0.292 HD
ENDBRANCH  13  18
BRANCH   8  21
ATOM     20  O   UNL     1     -36.313  25.870   6.000  0.00  0.00    -0.291 OA
ATOM     21  C   UNL     1     -35.932  25.651   4.837  0.00  0.00    +0.183 C 
BRANCH  21  22
ATOM     22  C   UNL     1     -34.704  26.379   4.279  0.00  0.00    +0.133 C 
BRANCH  22  24
ATOM     23  O   UNL     1     -35.347  27.482   2.231  0.00  0.00    -0.296 OA
ATOM     24  C   UNL     1     -34.666  26.617   2.779  0.00  0.00    +0.158 C 
BRANCH  24  25
ATOM     25  C   UNL     1     -33.686  25.751   2.002  0.00  0.00    +0.065 C 
ATOM     26  C   UNL     1     -34.378  24.766   1.077  0.00  0.00    +0.008 C 
ENDBRANCH  24  25
ENDBRANCH  22  24
ENDBRANCH  21  22
ENDBRANCH   8  21
BRANCH   7  27
ATOM     27  C   UNL     1     -35.071  22.893   4.643  0.00  0.00    +0.136 C 
BRANCH  27  29
ATOM     28  O   UNL     1     -35.978  22.160   6.781  0.00  0.00    -0.250 OA
ATOM     29  C   UNL     1     -35.425  21.891   5.723  0.00  0.00    +0.318 C 
BRANCH  29  30
ATOM     30  O   UNL     1     -35.054  20.629   5.381  0.00  0.00    -0.480 OA
ATOM     31  H   UNL     1     -34.334  20.495   4.796  0.00  0.00    +0.295 HD
ENDBRANCH  29  30
ENDBRANCH  27  29
ENDBRANCH   7  27
TORSDOF 9
ENDMDL
MODEL 5
REMARK VINA RESULT:      -6.6      3.070      7.094
REMARK  Name = 53297358
REMARK  9 active torsions:
REMARK  status: ('A' for Active; 'I' for Inactive)
REMARK    1  A    between atoms: C_7  and  C_27
REMARK    2  A    between atoms: C_8  and  C_21
REMARK    3  A    between atoms: C_10  and  O_16
REMARK    4  A    between atoms: C_13  and  O_18
REMARK    5  A    between atoms: C_21  and  C_22
REMARK    6  A    between atoms: C_22  and  C_24
REMARK    7  A    between atoms: C_24  and  C_25
REMARK    8  A    between atoms: C_27  and  C_29
REMARK    9  A    between atoms: C_29  and  O_30
REMARK                            x       y       z     vdW  Elec       q    Type
REMARK                         _______ _______ _______ _____ _____    ______ ____
ROOT
ATOM      1  O   UNL     1     -32.961  22.855  -0.265  0.00  0.00    -0.286 OA
ATOM      2  C   UNL     1     -35.539  21.182   1.615  0.00  0.00    -0.012 C 
ATOM      3  C   UNL     1     -34.937  19.815   1.795  0.00  0.00    +0.053 C 
ATOM      4  C   UNL     1     -34.880  22.205   0.926  0.00  0.00    +0.069 C 
ATOM      5  C   UNL     1     -33.577  19.617   1.184  0.00  0.00    -0.012 C 
ATOM      6  C   UNL     1     -32.911  20.636   0.493  0.00  0.00    +0.069 C 
ATOM      7  C   UNL     1     -37.403  22.693   2.016  0.00  0.00    -0.006 C 
ATOM      8  C   UNL     1     -36.737  23.705   1.329  0.00  0.00    +0.065 C 
ATOM      9  C   UNL     1     -36.807  21.440   2.158  0.00  0.00    -0.007 C 
ATOM     10  C   UNL     1     -35.477  23.464   0.784  0.00  0.00    +0.139 C 
ATOM     11  C   UNL     1     -33.542  21.964   0.341  0.00  0.00    +0.201 C 
ATOM     12  C   UNL     1     -32.953  18.367   1.312  0.00  0.00    -0.004 C 
ATOM     13  C   UNL     1     -31.644  20.408  -0.060  0.00  0.00    +0.136 C 
ATOM     14  C   UNL     1     -31.691  18.139   0.762  0.00  0.00    +0.003 C 
ATOM     15  C   UNL     1     -31.038  19.160   0.076  0.00  0.00    +0.037 C 
ENDROOT
BRANCH  10  16
ATOM     16  O   UNL     1     -34.864  24.487   0.118  0.00  0.00    -0.505 OA
ATOM     17  H   UNL     1     -34.038  24.813   0.419  0.00  0.00    +0.292 HD
ENDBRANCH  10  16
BRANCH  13  18
ATOM     18  O   UNL     1     -30.948  21.360  -0.743  0.00  0.00    -0.505 OA
ATOM     19  H   UNL     1     -30.506  22.043  -0.276  0.00  0.00    +0.292 HD
ENDBRANCH  13  18
BRANCH   8  21
ATOM     20  O   UNL     1     -37.957  25.311   0.130  0.00  0.00    -0.291 OA
ATOM     21  C   UNL     1     -37.362  25.016   1.181  0.00  0.00    +0.183 C 
BRANCH  21  22
ATOM     22  C   UNL     1     -37.253  26.038   2.317  0.00  0.00    +0.133 C 
BRANCH  22  24
ATOM     23  O   UNL     1     -34.934  26.138   2.980  0.00  0.00    -0.296 OA
ATOM     24  C   UNL     1     -36.095  25.871   3.287  0.00  0.00    +0.158 C 
BRANCH  24  25
ATOM     25  C   UNL     1     -36.472  25.402   4.684  0.00  0.00    +0.065 C 
ATOM     26  C   UNL     1     -35.776  24.112   5.078  0.00  0.00    +0.008 C 
ENDBRANCH  24  25
ENDBRANCH  22  24
ENDBRANCH  21  22
ENDBRANCH   8  21
BRANCH   7  27
ATOM     27  C   UNL     1     -38.754  22.918   2.612  0.00  0.00    +0.136 C 
BRANCH  27  29
ATOM     28  O   UNL     1     -40.474  22.826   0.891  0.00  0.00    -0.250 OA
ATOM     29  C   UNL     1     -39.876  22.288   1.812  0.00  0.00    +0.318 C 
BRANCH  29  30
ATOM     30  O   UNL     1     -40.154  21.028   2.240  0.00  0.00    -0.480 OA
ATOM     31  H   UNL     1     -40.855  20.882   2.843  0.00  0.00    +0.295 HD
ENDBRANCH  29  30
ENDBRANCH  27  29
ENDBRANCH   7  27
TORSDOF 9
ENDMDL
MODEL 6
REMARK VINA RESULT:      -6.5      1.795      2.255
REMARK  Name = 53297358
REMARK  9 active torsions:
REMARK  status: ('A' for Active; 'I' for Inactive)
REMARK    1  A    between atoms: C_7  and  C_27
REMARK    2  A    between atoms: C_8  and  C_21
REMARK    3  A    between atoms: C_10  and  O_16
REMARK    4  A    between atoms: C_13  and  O_18
REMARK    5  A    between atoms: C_21  and  C_22
REMARK    6  A    between atoms: C_22  and  C_24
REMARK    7  A    between atoms: C_24  and  C_25
REMARK    8  A    between atoms: C_27  and  C_29
REMARK    9  A    between atoms: C_29  and  O_30
REMARK                            x       y       z     vdW  Elec       q    Type
REMARK                         _______ _______ _______ _____ _____    ______ ____
ROOT
ATOM      1  O   UNL     1     -38.207  27.590   1.118  0.00  0.00    -0.286 OA
ATOM      2  C   UNL     1     -38.480  24.225   2.374  0.00  0.00    -0.012 C 
ATOM      3  C   UNL     1     -39.956  23.972   2.232  0.00  0.00    +0.053 C 
ATOM      4  C   UNL     1     -37.889  25.436   2.001  0.00  0.00    +0.069 C 
ATOM      5  C   UNL     1     -40.759  25.109   1.662  0.00  0.00    -0.012 C 
ATOM      6  C   UNL     1     -40.174  26.324   1.286  0.00  0.00    +0.069 C 
ATOM      7  C   UNL     1     -36.294  23.399   3.048  0.00  0.00    -0.006 C 
ATOM      8  C   UNL     1     -35.715  24.608   2.673  0.00  0.00    +0.065 C 
ATOM      9  C   UNL     1     -37.667  23.209   2.900  0.00  0.00    -0.007 C 
ATOM     10  C   UNL     1     -36.509  25.627   2.149  0.00  0.00    +0.139 C 
ATOM     11  C   UNL     1     -38.719  26.527   1.444  0.00  0.00    +0.201 C 
ATOM     12  C   UNL     1     -42.144  24.946   1.500  0.00  0.00    -0.004 C 
ATOM     13  C   UNL     1     -40.961  27.357   0.758  0.00  0.00    +0.136 C 
ATOM     14  C   UNL     1     -42.927  25.974   0.974  0.00  0.00    +0.003 C 
ATOM     15  C   UNL     1     -42.335  27.178   0.604  0.00  0.00    +0.037 C 
ENDROOT
BRANCH  10  16
ATOM     16  O   UNL     1     -35.896  26.796   1.795  0.00  0.00    -0.505 OA
ATOM     17  H   UNL     1     -35.743  26.989   0.892  0.00  0.00    +0.292 HD
ENDBRANCH  10  16
BRANCH  13  18
ATOM     18  O   UNL     1     -40.448  28.560   0.375  0.00  0.00    -0.505 OA
ATOM     19  H   UNL     1     -41.001  29.318   0.346  0.00  0.00    +0.292 HD
ENDBRANCH  13  18
BRANCH   8  21
ATOM     20  O   UNL     1     -33.529  24.777   1.837  0.00  0.00    -0.291 OA
ATOM     21  C   UNL     1     -34.277  24.806   2.829  0.00  0.00    +0.183 C 
BRANCH  21  22
ATOM     22  C   UNL     1     -33.692  25.016   4.230  0.00  0.00    +0.133 C 
BRANCH  22  24
ATOM     23  O   UNL     1     -34.282  27.356   4.229  0.00  0.00    -0.296 OA
ATOM     24  C   UNL     1     -33.909  26.376   4.871  0.00  0.00    +0.158 C 
BRANCH  24  25
ATOM     25  C   UNL     1     -33.688  26.434   6.375  0.00  0.00    +0.065 C 
ATOM     26  C   UNL     1     -32.562  27.375   6.767  0.00  0.00    +0.008 C 
ENDBRANCH  24  25
ENDBRANCH  22  24
ENDBRANCH  21  22
ENDBRANCH   8  21
BRANCH   7  27
ATOM     27  C   UNL     1     -35.472  22.286   3.613  0.00  0.00    +0.136 C 
BRANCH  27  29
ATOM     28  O   UNL     1     -35.937  23.043   5.881  0.00  0.00    -0.250 OA
ATOM     29  C   UNL     1     -35.598  22.149   5.116  0.00  0.00    +0.318 C 
BRANCH  29  30
ATOM     30  O   UNL     1     -35.286  20.895   5.537  0.00  0.00    -0.480 OA
ATOM     31  H   UNL     1     -35.753  20.157   5.198  0.00  0.00    +0.295 HD
ENDBRANCH  29  30
ENDBRANCH  27  29
ENDBRANCH   7  27
TORSDOF 9
ENDMDL
MODEL 7
REMARK VINA RESULT:      -6.5      2.474      7.777
REMARK  Name = 53297358
REMARK  9 active torsions:
REMARK  status: ('A' for Active; 'I' for Inactive)
REMARK    1  A    between atoms: C_7  and  C_27
REMARK    2  A    between atoms: C_8  and  C_21
REMARK    3  A    between atoms: C_10  and  O_16
REMARK    4  A    between atoms: C_13  and  O_18
REMARK    5  A    between atoms: C_21  and  C_22
REMARK    6  A    between atoms: C_22  and  C_24
REMARK    7  A    between atoms: C_24  and  C_25
REMARK    8  A    between atoms: C_27  and  C_29
REMARK    9  A    between atoms: C_29  and  O_30
REMARK                            x       y       z     vdW  Elec       q    Type
REMARK                         _______ _______ _______ _____ _____    ______ ____
ROOT
ATOM      1  O   UNL     1     -33.228  26.077   5.818  0.00  0.00    -0.286 OA
ATOM      2  C   UNL     1     -34.710  27.679   2.952  0.00  0.00    -0.012 C 
ATOM      3  C   UNL     1     -33.926  28.962   2.889  0.00  0.00    +0.053 C 
ATOM      4  C   UNL     1     -34.479  26.708   3.932  0.00  0.00    +0.069 C 
ATOM      5  C   UNL     1     -32.875  29.135   3.950  0.00  0.00    -0.012 C 
ATOM      6  C   UNL     1     -32.637  28.168   4.934  0.00  0.00    +0.069 C 
ATOM      7  C   UNL     1     -36.460  26.274   2.014  0.00  0.00    -0.006 C 
ATOM      8  C   UNL     1     -36.221  25.313   2.993  0.00  0.00    +0.065 C 
ATOM      9  C   UNL     1     -35.710  27.449   1.994  0.00  0.00    -0.007 C 
ATOM     10  C   UNL     1     -35.232  25.528   3.952  0.00  0.00    +0.139 C 
ATOM     11  C   UNL     1     -33.433  26.922   4.956  0.00  0.00    +0.201 C 
ATOM     12  C   UNL     1     -32.103  30.307   3.954  0.00  0.00    -0.004 C 
ATOM     13  C   UNL     1     -31.647  28.370   5.904  0.00  0.00    +0.136 C 
ATOM     14  C   UNL     1     -31.116  30.509   4.919  0.00  0.00    +0.003 C 
ATOM     15  C   UNL     1     -30.889  29.540   5.893  0.00  0.00    +0.037 C 
ENDROOT
BRANCH  10  16
ATOM     16  O   UNL     1     -35.035  24.557   4.893  0.00  0.00    -0.505 OA
ATOM     17  H   UNL     1     -35.715  23.940   5.079  0.00  0.00    +0.292 HD
ENDBRANCH  10  16
BRANCH  13  18
ATOM     18  O   UNL     1     -31.371  27.465   6.885  0.00  0.00    -0.505 OA
ATOM     19  H   UNL     1     -30.597  27.559   7.406  0.00  0.00    +0.292 HD
ENDBRANCH  13  18
BRANCH   8  21
ATOM     20  O   UNL     1     -38.036  24.010   3.707  0.00  0.00    -0.291 OA
ATOM     21  C   UNL     1     -37.008  24.084   3.013  0.00  0.00    +0.183 C 
BRANCH  21  22
ATOM     22  C   UNL     1     -36.540  22.874   2.197  0.00  0.00    +0.133 C 
BRANCH  22  24
ATOM     23  O   UNL     1     -35.457  21.862   4.101  0.00  0.00    -0.296 OA
ATOM     24  C   UNL     1     -35.911  21.725   2.966  0.00  0.00    +0.158 C 
BRANCH  24  25
ATOM     25  C   UNL     1     -35.928  20.377   2.261  0.00  0.00    +0.065 C 
ATOM     26  C   UNL     1     -34.549  19.936   1.804  0.00  0.00    +0.008 C 
ENDBRANCH  24  25
ENDBRANCH  22  24
ENDBRANCH  21  22
ENDBRANCH   8  21
BRANCH   7  27
ATOM     27  C   UNL     1     -37.512  26.076   0.972  0.00  0.00    +0.136 C 
BRANCH  27  29
ATOM     28  O   UNL     1     -39.203  27.775   0.540  0.00  0.00    -0.250 OA
ATOM     29  C   UNL     1     -38.778  26.865   1.239  0.00  0.00    +0.318 C 
BRANCH  29  30
ATOM     30  O   UNL     1     -39.406  26.443   2.368  0.00  0.00    -0.480 OA
ATOM     31  H   UNL     1     -40.208  26.846   2.637  0.00  0.00    +0.295 HD
ENDBRANCH  29  30
ENDBRANCH  27  29
ENDBRANCH   7  27
TORSDOF 9
ENDMDL
MODEL 8
REMARK VINA RESULT:      -6.4      2.500      4.687
REMARK  Name = 53297358
REMARK  9 active torsions:
REMARK  status: ('A' for Active; 'I' for Inactive)
REMARK    1  A    between atoms: C_7  and  C_27
REMARK    2  A    between atoms: C_8  and  C_21
REMARK    3  A    between atoms: C_10  and  O_16
REMARK    4  A    between atoms: C_13  and  O_18
REMARK    5  A    between atoms: C_21  and  C_22
REMARK    6  A    between atoms: C_22  and  C_24
REMARK    7  A    between atoms: C_24  and  C_25
REMARK    8  A    between atoms: C_27  and  C_29
REMARK    9  A    between atoms: C_29  and  O_30
REMARK                            x       y       z     vdW  Elec       q    Type
REMARK                         _______ _______ _______ _____ _____    ______ ____
ROOT
ATOM      1  O   UNL     1     -40.709  22.726   0.542  0.00  0.00    -0.286 OA
ATOM      2  C   UNL     1     -38.592  24.288   3.002  0.00  0.00    -0.012 C 
ATOM      3  C   UNL     1     -39.421  25.481   3.396  0.00  0.00    +0.053 C 
ATOM      4  C   UNL     1     -39.020  23.361   2.047  0.00  0.00    +0.069 C 
ATOM      5  C   UNL     1     -40.744  25.614   2.692  0.00  0.00    -0.012 C 
ATOM      6  C   UNL     1     -41.179  24.690   1.735  0.00  0.00    +0.069 C 
ATOM      7  C   UNL     1     -36.543  23.008   3.284  0.00  0.00    -0.006 C 
ATOM      8  C   UNL     1     -36.979  22.091   2.332  0.00  0.00    +0.065 C 
ATOM      9  C   UNL     1     -37.344  24.100   3.617  0.00  0.00    -0.007 C 
ATOM     10  C   UNL     1     -38.216  22.264   1.713  0.00  0.00    +0.139 C 
ATOM     11  C   UNL     1     -40.330  23.533   1.381  0.00  0.00    +0.201 C 
ATOM     12  C   UNL     1     -41.572  26.702   3.008  0.00  0.00    -0.004 C 
ATOM     13  C   UNL     1     -42.420  24.852   1.105  0.00  0.00    +0.136 C 
ATOM     14  C   UNL     1     -42.808  26.864   2.381  0.00  0.00    +0.003 C 
ATOM     15  C   UNL     1     -43.230  25.939   1.430  0.00  0.00    +0.037 C 
ENDROOT
BRANCH  10  16
ATOM     16  O   UNL     1     -38.600  21.338   0.785  0.00  0.00    -0.505 OA
ATOM     17  H   UNL     1     -38.679  20.437   1.027  0.00  0.00    +0.292 HD
ENDBRANCH  10  16
BRANCH  13  18
ATOM     18  O   UNL     1     -42.896  23.987   0.166  0.00  0.00    -0.505 OA
ATOM     19  H   UNL     1     -42.707  24.128  -0.742  0.00  0.00    +0.292 HD
ENDBRANCH  13  18
BRANCH   8  21
ATOM     20  O   UNL     1     -36.320  19.848   2.532  0.00  0.00    -0.291 OA
ATOM     21  C   UNL     1     -36.139  20.949   1.985  0.00  0.00    +0.183 C 
BRANCH  21  22
ATOM     22  C   UNL     1     -35.010  21.125   0.963  0.00  0.00    +0.133 C 
BRANCH  22  24
ATOM     23  O   UNL     1     -34.979  19.113  -0.370  0.00  0.00    -0.296 OA
ATOM     24  C   UNL     1     -34.381  19.859   0.404  0.00  0.00    +0.158 C 
BRANCH  24  25
ATOM     25  C   UNL     1     -32.941  19.603   0.821  0.00  0.00    +0.065 C 
ATOM     26  C   UNL     1     -32.734  18.210   1.389  0.00  0.00    +0.008 C 
ENDBRANCH  24  25
ENDBRANCH  22  24
ENDBRANCH  21  22
ENDBRANCH   8  21
BRANCH   7  27
ATOM     27  C   UNL     1     -35.223  22.852   3.966  0.00  0.00    +0.136 C 
BRANCH  27  29
ATOM     28  O   UNL     1     -35.512  22.773   6.383  0.00  0.00    -0.250 OA
ATOM     29  C   UNL     1     -35.323  22.189   5.325  0.00  0.00    +0.318 C 
BRANCH  29  30
ATOM     30  O   UNL     1     -35.177  20.840   5.240  0.00  0.00    -0.480 OA
ATOM     31  H   UNL     1     -35.553  20.373   4.521  0.00  0.00    +0.295 HD
ENDBRANCH  29  30
ENDBRANCH  27  29
ENDBRANCH   7  27
TORSDOF 9
ENDMDL
MODEL 9
REMARK VINA RESULT:      -6.4      2.456      7.055
REMARK  Name = 53297358
REMARK  9 active torsions:
REMARK  status: ('A' for Active; 'I' for Inactive)
REMARK    1  A    between atoms: C_7  and  C_27
REMARK    2  A    between atoms: C_8  and  C_21
REMARK    3  A    between atoms: C_10  and  O_16
REMARK    4  A    between atoms: C_13  and  O_18
REMARK    5  A    between atoms: C_21  and  C_22
REMARK    6  A    between atoms: C_22  and  C_24
REMARK    7  A    between atoms: C_24  and  C_25
REMARK    8  A    between atoms: C_27  and  C_29
REMARK    9  A    between atoms: C_29  and  O_30
REMARK                            x       y       z     vdW  Elec       q    Type
REMARK                         _______ _______ _______ _____ _____    ______ ____
ROOT
ATOM      1  O   UNL     1     -37.759  25.009   4.038  0.00  0.00    -0.286 OA
ATOM      2  C   UNL     1     -39.830  23.557   1.472  0.00  0.00    -0.012 C 
ATOM      3  C   UNL     1     -39.101  22.270   1.193  0.00  0.00    +0.053 C 
ATOM      4  C   UNL     1     -39.384  24.477   2.426  0.00  0.00    +0.069 C 
ATOM      5  C   UNL     1     -37.858  22.037   2.007  0.00  0.00    -0.012 C 
ATOM      6  C   UNL     1     -37.406  22.954   2.963  0.00  0.00    +0.069 C 
ATOM      7  C   UNL     1     -41.707  25.022   0.977  0.00  0.00    -0.006 C 
ATOM      8  C   UNL     1     -41.255  25.932   1.929  0.00  0.00    +0.065 C 
ATOM      9  C   UNL     1     -40.999  23.842   0.750  0.00  0.00    -0.007 C 
ATOM     10  C   UNL     1     -40.096  25.662   2.655  0.00  0.00    +0.139 C 
ATOM     11  C   UNL     1     -38.155  24.205   3.203  0.00  0.00    +0.201 C 
ATOM     12  C   UNL     1     -37.126  20.858   1.801  0.00  0.00    -0.004 C 
ATOM     13  C   UNL     1     -36.242  22.695   3.699  0.00  0.00    +0.136 C 
ATOM     14  C   UNL     1     -35.967  20.600   2.534  0.00  0.00    +0.003 C 
ATOM     15  C   UNL     1     -35.526  21.519   3.482  0.00  0.00    +0.037 C 
ENDROOT
BRANCH  10  16
ATOM     16  O   UNL     1     -39.691  26.585   3.577  0.00  0.00    -0.505 OA
ATOM     17  H   UNL     1     -40.011  27.464   3.531  0.00  0.00    +0.292 HD
ENDBRANCH  10  16
BRANCH  13  18
ATOM     18  O   UNL     1     -35.753  23.550   4.642  0.00  0.00    -0.505 OA
ATOM     19  H   UNL     1     -35.590  24.447   4.423  0.00  0.00    +0.292 HD
ENDBRANCH  13  18
BRANCH   8  21
ATOM     20  O   UNL     1     -41.771  28.175   1.473  0.00  0.00    -0.291 OA
ATOM     21  C   UNL     1     -41.997  27.166   2.165  0.00  0.00    +0.183 C 
BRANCH  21  22
ATOM     22  C   UNL     1     -43.035  27.221   3.291  0.00  0.00    +0.133 C 
BRANCH  22  24
ATOM     23  O   UNL     1     -41.727  28.628   4.751  0.00  0.00    -0.296 OA
ATOM     24  C   UNL     1     -42.841  28.286   4.357  0.00  0.00    +0.158 C 
BRANCH  24  25
ATOM     25  C   UNL     1     -44.114  28.943   4.868  0.00  0.00    +0.065 C 
ATOM     26  C   UNL     1     -43.842  30.179   5.705  0.00  0.00    +0.008 C 
ENDBRANCH  24  25
ENDBRANCH  22  24
ENDBRANCH  21  22
ENDBRANCH   8  21
BRANCH   7  27
ATOM     27  C   UNL     1     -42.945  25.281   0.182  0.00  0.00    +0.136 C 
BRANCH  27  29
ATOM     28  O   UNL     1     -44.303  23.262   0.080  0.00  0.00    -0.250 OA
ATOM     29  C   UNL     1     -44.098  24.371   0.553  0.00  0.00    +0.318 C 
BRANCH  29  30
ATOM     30  O   UNL     1     -44.903  24.935   1.492  0.00  0.00    -0.480 OA
ATOM     31  H   UNL     1     -45.739  24.559   1.680  0.00  0.00    +0.295 HD
ENDBRANCH  29  30
ENDBRANCH  27  29
ENDBRANCH   7  27
TORSDOF 9
ENDMDL
