MODEL 1
REMARK VINA RESULT:      -5.1      0.000      0.000
REMARK  Name = 5386611
REMARK  8 active torsions:
REMARK  status: ('A' for Active; 'I' for Inactive)
REMARK    1  A    between atoms: N_1  and  C_2
REMARK    2  A    between atoms: N_1  and  N_3
REMARK    3  A    between atoms: C_2  and  C_12
REMARK    4  A    between atoms: C_2  and  C_22
REMARK    5  A    between atoms: N_3  and  C_6
REMARK    6  A    between atoms: N_11  and  C_12
REMARK    7  A    between atoms: N_11  and  N_14
REMARK    8  A    between atoms: N_14  and  C_17
REMARK                            x       y       z     vdW  Elec       q    Type
REMARK                         _______ _______ _______ _____ _____    ______ ____
ROOT
ATOM      1  C   UNL     1     -36.012  22.697   3.664  0.00  0.00    +0.116 C 
ENDROOT
BRANCH   1   2
ATOM      2  C   UNL     1     -35.204  23.072   4.871  0.00  0.00    +0.116 C 
ATOM      3  C   UNL     1     -35.122  22.055   5.972  0.00  0.00    +0.023 C 
BRANCH   2   4
ATOM      4  N   UNL     1     -34.643  24.238   4.849  0.00  0.00    -0.097 NA
BRANCH   4   5
ATOM      5  N   UNL     1     -35.344  25.188   5.583  0.00  0.00    -0.145 NA
BRANCH   5   8
ATOM      6  N   UNL     1     -37.229  25.969   4.450  0.00  0.00    -0.369 N 
ATOM      7  N   UNL     1     -35.317  27.213   4.301  0.00  0.00    -0.369 N 
ATOM      8  C   UNL     1     -35.911  26.085   4.820  0.00  0.00    +0.207 C 
ATOM      9  H   UNL     1     -37.762  25.202   4.760  0.00  0.00    +0.159 HD
ATOM     10  H   UNL     1     -37.641  26.654   3.876  0.00  0.00    +0.159 HD
ATOM     11  H   UNL     1     -34.372  27.406   4.496  0.00  0.00    +0.159 HD
ATOM     12  H   UNL     1     -35.839  27.828   3.735  0.00  0.00    +0.159 HD
ENDBRANCH   5   8
ENDBRANCH   4   5
ENDBRANCH   2   4
ENDBRANCH   1   2
BRANCH   1  13
ATOM     13  C   UNL     1     -35.248  22.131   2.493  0.00  0.00    +0.021 C 
ATOM     14  C   UNL     1     -35.289  20.613   2.509  0.00  0.00    +0.002 C 
ENDBRANCH   1  13
BRANCH   1  15
ATOM     15  N   UNL     1     -37.285  22.923   3.744  0.00  0.00    -0.097 NA
BRANCH  15  16
ATOM     16  N   UNL     1     -37.861  23.243   2.522  0.00  0.00    -0.145 NA
BRANCH  16  19
ATOM     17  N   UNL     1     -38.905  21.112   2.178  0.00  0.00    -0.369 N 
ATOM     18  N   UNL     1     -40.123  23.036   1.986  0.00  0.00    -0.369 N 
ATOM     19  C   UNL     1     -38.892  22.487   2.246  0.00  0.00    +0.207 C 
ATOM     20  H   UNL     1     -38.079  20.603   2.346  0.00  0.00    +0.159 HD
ATOM     21  H   UNL     1     -39.740  20.638   1.961  0.00  0.00    +0.159 HD
ATOM     22  H   UNL     1     -40.241  24.013   2.004  0.00  0.00    +0.159 HD
ATOM     23  H   UNL     1     -40.889  22.452   1.779  0.00  0.00    +0.159 HD
ENDBRANCH  16  19
ENDBRANCH  15  16
ENDBRANCH   1  15
TORSDOF 8
ENDMDL
MODEL 2
REMARK VINA RESULT:      -5.1      1.903      4.332
REMARK  Name = 5386611
REMARK  8 active torsions:
REMARK  status: ('A' for Active; 'I' for Inactive)
REMARK    1  A    between atoms: N_1  and  C_2
REMARK    2  A    between atoms: N_1  and  N_3
REMARK    3  A    between atoms: C_2  and  C_12
REMARK    4  A    between atoms: C_2  and  C_22
REMARK    5  A    between atoms: N_3  and  C_6
REMARK    6  A    between atoms: N_11  and  C_12
REMARK    7  A    between atoms: N_11  and  N_14
REMARK    8  A    between atoms: N_14  and  C_17
REMARK                            x       y       z     vdW  Elec       q    Type
REMARK                         _______ _______ _______ _____ _____    ______ ____
ROOT
ATOM      1  C   UNL     1     -35.918  23.726   4.369  0.00  0.00    +0.116 C 
ENDROOT
BRANCH   1   2
ATOM      2  C   UNL     1     -35.409  22.317   4.287  0.00  0.00    +0.116 C 
ATOM      3  C   UNL     1     -35.175  21.607   5.589  0.00  0.00    +0.023 C 
BRANCH   2   4
ATOM      4  N   UNL     1     -35.226  21.840   3.098  0.00  0.00    -0.097 NA
BRANCH   4   5
ATOM      5  N   UNL     1     -35.569  20.496   2.998  0.00  0.00    -0.145 NA
BRANCH   5   8
ATOM      6  N   UNL     1     -36.657  19.278   1.330  0.00  0.00    -0.369 N 
ATOM      7  N   UNL     1     -37.770  21.059   2.234  0.00  0.00    -0.369 N 
ATOM      8  C   UNL     1     -36.617  20.307   2.240  0.00  0.00    +0.207 C 
ATOM      9  H   UNL     1     -35.888  18.669   1.241  0.00  0.00    +0.159 HD
ATOM     10  H   UNL     1     -37.454  19.149   0.768  0.00  0.00    +0.159 HD
ATOM     11  H   UNL     1     -37.861  21.826   2.843  0.00  0.00    +0.159 HD
ATOM     12  H   UNL     1     -38.504  20.828   1.620  0.00  0.00    +0.159 HD
ENDBRANCH   5   8
ENDBRANCH   4   5
ENDBRANCH   2   4
ENDBRANCH   1   2
BRANCH   1  13
ATOM     13  C   UNL     1     -35.613  24.478   5.641  0.00  0.00    +0.021 C 
ATOM     14  C   UNL     1     -35.223  25.914   5.335  0.00  0.00    +0.002 C 
ENDBRANCH   1  13
BRANCH   1  15
ATOM     15  N   UNL     1     -36.590  24.144   3.344  0.00  0.00    -0.097 NA
BRANCH  15  16
ATOM     16  N   UNL     1     -37.946  23.853   3.424  0.00  0.00    -0.145 NA
BRANCH  16  19
ATOM     17  N   UNL     1     -40.004  24.987   3.904  0.00  0.00    -0.369 N 
ATOM     18  N   UNL     1     -38.157  26.173   3.270  0.00  0.00    -0.369 N 
ATOM     19  C   UNL     1     -38.679  24.931   3.533  0.00  0.00    +0.207 C 
ATOM     20  H   UNL     1     -40.490  24.158   4.118  0.00  0.00    +0.159 HD
ATOM     21  H   UNL     1     -40.465  25.855   3.954  0.00  0.00    +0.159 HD
ATOM     22  H   UNL     1     -37.216  26.263   2.995  0.00  0.00    +0.159 HD
ATOM     23  H   UNL     1     -38.723  26.974   3.356  0.00  0.00    +0.159 HD
ENDBRANCH  16  19
ENDBRANCH  15  16
ENDBRANCH   1  15
TORSDOF 8
ENDMDL
MODEL 3
REMARK VINA RESULT:      -5.0      1.799      4.555
REMARK  Name = 5386611
REMARK  8 active torsions:
REMARK  status: ('A' for Active; 'I' for Inactive)
REMARK    1  A    between atoms: N_1  and  C_2
REMARK    2  A    between atoms: N_1  and  N_3
REMARK    3  A    between atoms: C_2  and  C_12
REMARK    4  A    between atoms: C_2  and  C_22
REMARK    5  A    between atoms: N_3  and  C_6
REMARK    6  A    between atoms: N_11  and  C_12
REMARK    7  A    between atoms: N_11  and  N_14
REMARK    8  A    between atoms: N_14  and  C_17
REMARK                            x       y       z     vdW  Elec       q    Type
REMARK                         _______ _______ _______ _____ _____    ______ ____
ROOT
ATOM      1  C   UNL     1     -34.838  23.655   4.827  0.00  0.00    +0.116 C 
ENDROOT
BRANCH   1   2
ATOM      2  C   UNL     1     -35.741  23.460   3.644  0.00  0.00    +0.116 C 
ATOM      3  C   UNL     1     -35.077  23.238   2.316  0.00  0.00    +0.023 C 
BRANCH   2   4
ATOM      4  N   UNL     1     -37.013  23.492   3.880  0.00  0.00    -0.097 NA
BRANCH   4   5
ATOM      5  N   UNL     1     -37.468  24.762   4.214  0.00  0.00    -0.145 NA
BRANCH   5   8
ATOM      6  N   UNL     1     -39.763  24.894   3.811  0.00  0.00    -0.369 N 
ATOM      7  N   UNL     1     -38.364  25.827   2.263  0.00  0.00    -0.369 N 
ATOM      8  C   UNL     1     -38.460  25.149   3.457  0.00  0.00    +0.207 C 
ATOM      9  H   UNL     1     -39.962  24.414   4.647  0.00  0.00    +0.159 HD
ATOM     10  H   UNL     1     -40.498  25.194   3.230  0.00  0.00    +0.159 HD
ATOM     11  H   UNL     1     -37.480  26.067   1.903  0.00  0.00    +0.159 HD
ATOM     12  H   UNL     1     -39.180  26.074   1.770  0.00  0.00    +0.159 HD
ENDBRANCH   5   8
ENDBRANCH   4   5
ENDBRANCH   2   4
ENDBRANCH   1   2
BRANCH   1  13
ATOM     13  C   UNL     1     -35.198  22.895   6.079  0.00  0.00    +0.021 C 
ATOM     14  C   UNL     1     -35.008  21.402   5.874  0.00  0.00    +0.002 C 
ENDBRANCH   1  13
BRANCH   1  15
ATOM     15  N   UNL     1     -33.854  24.479   4.656  0.00  0.00    -0.097 NA
BRANCH  15  16
ATOM     16  N   UNL     1     -33.911  25.581   5.499  0.00  0.00    -0.145 NA
BRANCH  16  19
ATOM     17  N   UNL     1     -35.422  27.050   4.354  0.00  0.00    -0.369 N 
ATOM     18  N   UNL     1     -33.226  27.628   4.611  0.00  0.00    -0.369 N 
ATOM     19  C   UNL     1     -34.192  26.685   4.855  0.00  0.00    +0.207 C 
ATOM     20  H   UNL     1     -36.196  26.453   4.467  0.00  0.00    +0.159 HD
ATOM     21  H   UNL     1     -35.525  27.908   3.882  0.00  0.00    +0.159 HD
ATOM     22  H   UNL     1     -32.304  27.481   4.922  0.00  0.00    +0.159 HD
ATOM     23  H   UNL     1     -33.455  28.454   4.125  0.00  0.00    +0.159 HD
ENDBRANCH  16  19
ENDBRANCH  15  16
ENDBRANCH   1  15
TORSDOF 8
ENDMDL
MODEL 4
REMARK VINA RESULT:      -5.0      1.938      2.835
REMARK  Name = 5386611
REMARK  8 active torsions:
REMARK  status: ('A' for Active; 'I' for Inactive)
REMARK    1  A    between atoms: N_1  and  C_2
REMARK    2  A    between atoms: N_1  and  N_3
REMARK    3  A    between atoms: C_2  and  C_12
REMARK    4  A    between atoms: C_2  and  C_22
REMARK    5  A    between atoms: N_3  and  C_6
REMARK    6  A    between atoms: N_11  and  C_12
REMARK    7  A    between atoms: N_11  and  N_14
REMARK    8  A    between atoms: N_14  and  C_17
REMARK                            x       y       z     vdW  Elec       q    Type
REMARK                         _______ _______ _______ _____ _____    ______ ____
ROOT
ATOM      1  C   UNL     1     -35.753  23.005   4.176  0.00  0.00    +0.116 C 
ENDROOT
BRANCH   1   2
ATOM      2  C   UNL     1     -34.674  23.851   3.566  0.00  0.00    +0.116 C 
ATOM      3  C   UNL     1     -34.749  24.074   2.083  0.00  0.00    +0.023 C 
BRANCH   2   4
ATOM      4  N   UNL     1     -33.781  24.318   4.378  0.00  0.00    -0.097 NA
BRANCH   4   5
ATOM      5  N   UNL     1     -33.447  25.640   4.109  0.00  0.00    -0.145 NA
BRANCH   5   8
ATOM      6  N   UNL     1     -35.190  27.098   4.642  0.00  0.00    -0.369 N 
ATOM      7  N   UNL     1     -33.527  26.831   6.187  0.00  0.00    -0.369 N 
ATOM      8  C   UNL     1     -34.005  26.472   4.948  0.00  0.00    +0.207 C 
ATOM      9  H   UNL     1     -35.632  26.922   3.780  0.00  0.00    +0.159 HD
ATOM     10  H   UNL     1     -35.597  27.721   5.285  0.00  0.00    +0.159 HD
ATOM     11  H   UNL     1     -32.683  26.448   6.519  0.00  0.00    +0.159 HD
ATOM     12  H   UNL     1     -34.030  27.470   6.743  0.00  0.00    +0.159 HD
ENDBRANCH   5   8
ENDBRANCH   4   5
ENDBRANCH   2   4
ENDBRANCH   1   2
BRANCH   1  13
ATOM     13  C   UNL     1     -35.298  21.825   4.998  0.00  0.00    +0.021 C 
ATOM     14  C   UNL     1     -35.520  22.083   6.478  0.00  0.00    +0.002 C 
ENDBRANCH   1  13
BRANCH   1  15
ATOM     15  N   UNL     1     -36.969  23.364   3.913  0.00  0.00    -0.097 NA
BRANCH  15  16
ATOM     16  N   UNL     1     -37.290  24.619   4.415  0.00  0.00    -0.145 NA
BRANCH  16  19
ATOM     17  N   UNL     1     -38.001  26.250   2.808  0.00  0.00    -0.369 N 
ATOM     18  N   UNL     1     -39.524  24.855   3.784  0.00  0.00    -0.369 N 
ATOM     19  C   UNL     1     -38.204  25.221   3.700  0.00  0.00    +0.207 C 
ATOM     20  H   UNL     1     -37.092  26.601   2.660  0.00  0.00    +0.159 HD
ATOM     21  H   UNL     1     -38.763  26.634   2.318  0.00  0.00    +0.159 HD
ATOM     22  H   UNL     1     -39.796  24.129   4.391  0.00  0.00    +0.159 HD
ATOM     23  H   UNL     1     -40.200  25.319   3.239  0.00  0.00    +0.159 HD
ENDBRANCH  16  19
ENDBRANCH  15  16
ENDBRANCH   1  15
TORSDOF 8
ENDMDL
MODEL 5
REMARK VINA RESULT:      -5.0      1.416      2.132
REMARK  Name = 5386611
REMARK  8 active torsions:
REMARK  status: ('A' for Active; 'I' for Inactive)
REMARK    1  A    between atoms: N_1  and  C_2
REMARK    2  A    between atoms: N_1  and  N_3
REMARK    3  A    between atoms: C_2  and  C_12
REMARK    4  A    between atoms: C_2  and  C_22
REMARK    5  A    between atoms: N_3  and  C_6
REMARK    6  A    between atoms: N_11  and  C_12
REMARK    7  A    between atoms: N_11  and  N_14
REMARK    8  A    between atoms: N_14  and  C_17
REMARK                            x       y       z     vdW  Elec       q    Type
REMARK                         _______ _______ _______ _____ _____    ______ ____
ROOT
ATOM      1  C   UNL     1     -36.128  22.753   3.841  0.00  0.00    +0.116 C 
ENDROOT
BRANCH   1   2
ATOM      2  C   UNL     1     -35.533  23.149   5.160  0.00  0.00    +0.116 C 
ATOM      3  C   UNL     1     -35.057  22.036   6.048  0.00  0.00    +0.023 C 
BRANCH   2   4
ATOM      4  N   UNL     1     -35.478  24.418   5.409  0.00  0.00    -0.097 NA
BRANCH   4   5
ATOM      5  N   UNL     1     -34.652  25.104   4.527  0.00  0.00    -0.145 NA
BRANCH   5   8
ATOM      6  N   UNL     1     -34.401  27.408   4.249  0.00  0.00    -0.369 N 
ATOM      7  N   UNL     1     -33.733  26.506   6.240  0.00  0.00    -0.369 N 
ATOM      8  C   UNL     1     -34.276  26.264   4.999  0.00  0.00    +0.207 C 
ATOM      9  H   UNL     1     -34.778  27.363   3.341  0.00  0.00    +0.159 HD
ATOM     10  H   UNL     1     -34.115  28.273   4.620  0.00  0.00    +0.159 HD
ATOM     11  H   UNL     1     -33.594  25.763   6.871  0.00  0.00    +0.159 HD
ATOM     12  H   UNL     1     -33.485  27.424   6.498  0.00  0.00    +0.159 HD
ENDBRANCH   5   8
ENDBRANCH   4   5
ENDBRANCH   2   4
ENDBRANCH   1   2
BRANCH   1  13
ATOM     13  C   UNL     1     -35.173  22.201   2.811  0.00  0.00    +0.021 C 
ATOM     14  C   UNL     1     -35.431  20.723   2.577  0.00  0.00    +0.002 C 
ENDBRANCH   1  13
BRANCH   1  15
ATOM     15  N   UNL     1     -37.402  22.949   3.714  0.00  0.00    -0.097 NA
BRANCH  15  16
ATOM     16  N   UNL     1     -37.711  23.975   2.829  0.00  0.00    -0.145 NA
BRANCH  16  19
ATOM     17  N   UNL     1     -37.690  26.184   3.761  0.00  0.00    -0.369 N 
ATOM     18  N   UNL     1     -39.607  24.941   3.787  0.00  0.00    -0.369 N 
ATOM     19  C   UNL     1     -38.284  24.988   3.425  0.00  0.00    +0.207 C 
ATOM     20  H   UNL     1     -36.740  26.337   3.552  0.00  0.00    +0.159 HD
ATOM     21  H   UNL     1     -38.215  26.885   4.210  0.00  0.00    +0.159 HD
ATOM     22  H   UNL     1     -40.141  24.135   3.600  0.00  0.00    +0.159 HD
ATOM     23  H   UNL     1     -40.023  25.713   4.236  0.00  0.00    +0.159 HD
ENDBRANCH  16  19
ENDBRANCH  15  16
ENDBRANCH   1  15
TORSDOF 8
ENDMDL
MODEL 6
REMARK VINA RESULT:      -5.0      2.377      3.541
REMARK  Name = 5386611
REMARK  8 active torsions:
REMARK  status: ('A' for Active; 'I' for Inactive)
REMARK    1  A    between atoms: N_1  and  C_2
REMARK    2  A    between atoms: N_1  and  N_3
REMARK    3  A    between atoms: C_2  and  C_12
REMARK    4  A    between atoms: C_2  and  C_22
REMARK    5  A    between atoms: N_3  and  C_6
REMARK    6  A    between atoms: N_11  and  C_12
REMARK    7  A    between atoms: N_11  and  N_14
REMARK    8  A    between atoms: N_14  and  C_17
REMARK                            x       y       z     vdW  Elec       q    Type
REMARK                         _______ _______ _______ _____ _____    ______ ____
ROOT
ATOM      1  C   UNL     1     -35.336  24.336   5.112  0.00  0.00    +0.116 C 
ENDROOT
BRANCH   1   2
ATOM      2  C   UNL     1     -34.513  25.477   4.588  0.00  0.00    +0.116 C 
ATOM      3  C   UNL     1     -33.821  25.262   3.274  0.00  0.00    +0.023 C 
BRANCH   2   4
ATOM      4  N   UNL     1     -34.483  26.546   5.317  0.00  0.00    -0.097 NA
BRANCH   4   5
ATOM      5  N   UNL     1     -33.407  26.569   6.196  0.00  0.00    -0.145 NA
BRANCH   5   8
ATOM      6  N   UNL     1     -31.613  27.897   6.879  0.00  0.00    -0.369 N 
ATOM      7  N   UNL     1     -32.719  28.515   4.976  0.00  0.00    -0.369 N 
ATOM      8  C   UNL     1     -32.635  27.607   6.008  0.00  0.00    +0.207 C 
ATOM      9  H   UNL     1     -31.452  27.320   7.659  0.00  0.00    +0.159 HD
ATOM     10  H   UNL     1     -31.041  28.682   6.722  0.00  0.00    +0.159 HD
ATOM     11  H   UNL     1     -33.414  28.413   4.286  0.00  0.00    +0.159 HD
ATOM     12  H   UNL     1     -32.083  29.265   4.927  0.00  0.00    +0.159 HD
ENDBRANCH   5   8
ENDBRANCH   4   5
ENDBRANCH   2   4
ENDBRANCH   1   2
BRANCH   1  13
ATOM     13  C   UNL     1     -34.589  23.070   5.453  0.00  0.00    +0.021 C 
ATOM     14  C   UNL     1     -35.432  22.173   6.342  0.00  0.00    +0.002 C 
ENDBRANCH   1  13
BRANCH   1  15
ATOM     15  N   UNL     1     -36.611  24.549   5.194  0.00  0.00    -0.097 NA
BRANCH  15  16
ATOM     16  N   UNL     1     -37.302  24.176   4.048  0.00  0.00    -0.145 NA
BRANCH  16  19
ATOM     17  N   UNL     1     -37.936  26.345   3.245  0.00  0.00    -0.369 N 
ATOM     18  N   UNL     1     -39.533  24.787   3.739  0.00  0.00    -0.369 N 
ATOM     19  C   UNL     1     -38.190  25.068   3.693  0.00  0.00    +0.207 C 
ATOM     20  H   UNL     1     -37.008  26.663   3.168  0.00  0.00    +0.159 HD
ATOM     21  H   UNL     1     -38.683  26.938   3.001  0.00  0.00    +0.159 HD
ATOM     22  H   UNL     1     -39.841  23.903   4.044  0.00  0.00    +0.159 HD
ATOM     23  H   UNL     1     -40.189  25.470   3.468  0.00  0.00    +0.159 HD
ENDBRANCH  16  19
ENDBRANCH  15  16
ENDBRANCH   1  15
TORSDOF 8
ENDMDL
MODEL 7
REMARK VINA RESULT:      -4.9      1.972      4.434
REMARK  Name = 5386611
REMARK  8 active torsions:
REMARK  status: ('A' for Active; 'I' for Inactive)
REMARK    1  A    between atoms: N_1  and  C_2
REMARK    2  A    between atoms: N_1  and  N_3
REMARK    3  A    between atoms: C_2  and  C_12
REMARK    4  A    between atoms: C_2  and  C_22
REMARK    5  A    between atoms: N_3  and  C_6
REMARK    6  A    between atoms: N_11  and  C_12
REMARK    7  A    between atoms: N_11  and  N_14
REMARK    8  A    between atoms: N_14  and  C_17
REMARK                            x       y       z     vdW  Elec       q    Type
REMARK                         _______ _______ _______ _____ _____    ______ ____
ROOT
ATOM      1  C   UNL     1     -35.980  23.184   3.995  0.00  0.00    +0.116 C 
ENDROOT
BRANCH   1   2
ATOM      2  C   UNL     1     -35.233  22.858   2.736  0.00  0.00    +0.116 C 
ATOM      3  C   UNL     1     -34.593  24.008   2.013  0.00  0.00    +0.023 C 
BRANCH   2   4
ATOM      4  N   UNL     1     -35.202  21.611   2.391  0.00  0.00    -0.097 NA
BRANCH   4   5
ATOM      5  N   UNL     1     -35.969  21.344   1.264  0.00  0.00    -0.145 NA
BRANCH   5   8
ATOM      6  N   UNL     1     -36.863  19.188   1.222  0.00  0.00    -0.369 N 
ATOM      7  N   UNL     1     -38.167  20.854   2.087  0.00  0.00    -0.369 N 
ATOM      8  C   UNL     1     -36.957  20.526   1.518  0.00  0.00    +0.207 C 
ATOM      9  H   UNL     1     -36.043  18.831   0.810  0.00  0.00    +0.159 HD
ATOM     10  H   UNL     1     -37.615  18.586   1.421  0.00  0.00    +0.159 HD
ATOM     11  H   UNL     1     -38.354  21.786   2.344  0.00  0.00    +0.159 HD
ATOM     12  H   UNL     1     -38.845  20.156   2.237  0.00  0.00    +0.159 HD
ENDBRANCH   5   8
ENDBRANCH   4   5
ENDBRANCH   2   4
ENDBRANCH   1   2
BRANCH   1  13
ATOM     13  C   UNL     1     -35.143  23.489   5.213  0.00  0.00    +0.021 C 
ATOM     14  C   UNL     1     -35.225  22.355   6.219  0.00  0.00    +0.002 C 
ENDBRANCH   1  13
BRANCH   1  15
ATOM     15  N   UNL     1     -37.272  23.144   3.913  0.00  0.00    -0.097 NA
BRANCH  15  16
ATOM     16  N   UNL     1     -37.781  23.973   2.922  0.00  0.00    -0.145 NA
BRANCH  16  19
ATOM     17  N   UNL     1     -39.768  24.932   3.861  0.00  0.00    -0.369 N 
ATOM     18  N   UNL     1     -37.910  26.221   3.535  0.00  0.00    -0.369 N 
ATOM     19  C   UNL     1     -38.466  24.972   3.414  0.00  0.00    +0.207 C 
ATOM     20  H   UNL     1     -40.274  24.088   3.826  0.00  0.00    +0.159 HD
ATOM     21  H   UNL     1     -40.192  25.747   4.216  0.00  0.00    +0.159 HD
ATOM     22  H   UNL     1     -36.981  26.377   3.248  0.00  0.00    +0.159 HD
ATOM     23  H   UNL     1     -38.440  26.963   3.908  0.00  0.00    +0.159 HD
ENDBRANCH  16  19
ENDBRANCH  15  16
ENDBRANCH   1  15
TORSDOF 8
ENDMDL
MODEL 8
REMARK VINA RESULT:      -4.9      0.544      4.723
REMARK  Name = 5386611
REMARK  8 active torsions:
REMARK  status: ('A' for Active; 'I' for Inactive)
REMARK    1  A    between atoms: N_1  and  C_2
REMARK    2  A    between atoms: N_1  and  N_3
REMARK    3  A    between atoms: C_2  and  C_12
REMARK    4  A    between atoms: C_2  and  C_22
REMARK    5  A    between atoms: N_3  and  C_6
REMARK    6  A    between atoms: N_11  and  C_12
REMARK    7  A    between atoms: N_11  and  N_14
REMARK    8  A    between atoms: N_14  and  C_17
REMARK                            x       y       z     vdW  Elec       q    Type
REMARK                         _______ _______ _______ _____ _____    ______ ____
ROOT
ATOM      1  C   UNL     1     -35.255  23.340   4.700  0.00  0.00    +0.116 C 
ENDROOT
BRANCH   1   2
ATOM      2  C   UNL     1     -36.046  22.840   3.526  0.00  0.00    +0.116 C 
ATOM      3  C   UNL     1     -35.286  22.091   2.470  0.00  0.00    +0.023 C 
BRANCH   2   4
ATOM      4  N   UNL     1     -37.315  23.095   3.537  0.00  0.00    -0.097 NA
BRANCH   4   5
ATOM      5  N   UNL     1     -37.861  23.166   2.261  0.00  0.00    -0.145 NA
BRANCH   5   8
ATOM      6  N   UNL     1     -38.877  21.068   2.146  0.00  0.00    -0.369 N 
ATOM      7  N   UNL     1     -40.230  22.905   2.005  0.00  0.00    -0.369 N 
ATOM      8  C   UNL     1     -38.941  22.440   2.143  0.00  0.00    +0.207 C 
ATOM      9  H   UNL     1     -38.008  20.616   2.238  0.00  0.00    +0.159 HD
ATOM     10  H   UNL     1     -39.700  20.536   2.057  0.00  0.00    +0.159 HD
ATOM     11  H   UNL     1     -40.405  23.874   1.989  0.00  0.00    +0.159 HD
ATOM     12  H   UNL     1     -40.977  22.268   1.925  0.00  0.00    +0.159 HD
ENDBRANCH   5   8
ENDBRANCH   4   5
ENDBRANCH   2   4
ENDBRANCH   1   2
BRANCH   1  13
ATOM     13  C   UNL     1     -35.493  22.642   6.016  0.00  0.00    +0.021 C 
ATOM     14  C   UNL     1     -34.879  21.253   6.006  0.00  0.00    +0.002 C 
ENDBRANCH   1  13
BRANCH   1  15
ATOM     15  N   UNL     1     -34.465  24.339   4.465  0.00  0.00    -0.097 NA
BRANCH  15  16
ATOM     16  N   UNL     1     -34.691  25.422   5.304  0.00  0.00    -0.145 NA
BRANCH  16  19
ATOM     17  N   UNL     1     -35.203  27.410   4.064  0.00  0.00    -0.369 N 
ATOM     18  N   UNL     1     -36.884  26.128   4.932  0.00  0.00    -0.369 N 
ATOM     19  C   UNL     1     -35.528  26.284   4.787  0.00  0.00    +0.207 C 
ATOM     20  H   UNL     1     -34.259  27.629   3.893  0.00  0.00    +0.159 HD
ATOM     21  H   UNL     1     -35.915  27.995   3.718  0.00  0.00    +0.159 HD
ATOM     22  H   UNL     1     -37.241  25.358   5.431  0.00  0.00    +0.159 HD
ATOM     23  H   UNL     1     -37.501  26.787   4.537  0.00  0.00    +0.159 HD
ENDBRANCH  16  19
ENDBRANCH  15  16
ENDBRANCH   1  15
TORSDOF 8
ENDMDL
MODEL 9
REMARK VINA RESULT:      -4.7      2.252      3.307
REMARK  Name = 5386611
REMARK  8 active torsions:
REMARK  status: ('A' for Active; 'I' for Inactive)
REMARK    1  A    between atoms: N_1  and  C_2
REMARK    2  A    between atoms: N_1  and  N_3
REMARK    3  A    between atoms: C_2  and  C_12
REMARK    4  A    between atoms: C_2  and  C_22
REMARK    5  A    between atoms: N_3  and  C_6
REMARK    6  A    between atoms: N_11  and  C_12
REMARK    7  A    between atoms: N_11  and  N_14
REMARK    8  A    between atoms: N_14  and  C_17
REMARK                            x       y       z     vdW  Elec       q    Type
REMARK                         _______ _______ _______ _____ _____    ______ ____
ROOT
ATOM      1  C   UNL     1     -35.407  24.405   5.171  0.00  0.00    +0.116 C 
ENDROOT
BRANCH   1   2
ATOM      2  C   UNL     1     -34.587  25.642   4.952  0.00  0.00    +0.116 C 
ATOM      3  C   UNL     1     -33.844  26.180   6.140  0.00  0.00    +0.023 C 
BRANCH   2   4
ATOM      4  N   UNL     1     -34.590  26.129   3.752  0.00  0.00    -0.097 NA
BRANCH   4   5
ATOM      5  N   UNL     1     -35.110  27.416   3.694  0.00  0.00    -0.145 NA
BRANCH   5   8
ATOM      6  N   UNL     1     -33.283  27.828   2.301  0.00  0.00    -0.369 N 
ATOM      7  N   UNL     1     -34.279  29.629   3.296  0.00  0.00    -0.369 N 
ATOM      8  C   UNL     1     -34.282  28.261   3.139  0.00  0.00    +0.207 C 
ATOM      9  H   UNL     1     -33.183  26.868   2.109  0.00  0.00    +0.159 HD
ATOM     10  H   UNL     1     -32.669  28.478   1.890  0.00  0.00    +0.159 HD
ATOM     11  H   UNL     1     -34.948  30.060   3.875  0.00  0.00    +0.159 HD
ATOM     12  H   UNL     1     -33.607  30.177   2.828  0.00  0.00    +0.159 HD
ENDBRANCH   5   8
ENDBRANCH   4   5
ENDBRANCH   2   4
ENDBRANCH   1   2
BRANCH   1  13
ATOM     13  C   UNL     1     -34.646  23.106   5.278  0.00  0.00    +0.021 C 
ATOM     14  C   UNL     1     -35.289  22.191   6.306  0.00  0.00    +0.002 C 
ENDBRANCH   1  13
BRANCH   1  15
ATOM     15  N   UNL     1     -36.689  24.578   5.222  0.00  0.00    -0.097 NA
BRANCH  15  16
ATOM     16  N   UNL     1     -37.339  24.192   4.057  0.00  0.00    -0.145 NA
BRANCH  16  19
ATOM     17  N   UNL     1     -39.623  24.838   3.714  0.00  0.00    -0.369 N 
ATOM     18  N   UNL     1     -37.930  26.300   3.247  0.00  0.00    -0.369 N 
ATOM     19  C   UNL     1     -38.262  25.046   3.698  0.00  0.00    +0.207 C 
ATOM     20  H   UNL     1     -39.985  23.974   4.019  0.00  0.00    +0.159 HD
ATOM     21  H   UNL     1     -40.234  25.552   3.421  0.00  0.00    +0.159 HD
ATOM     22  H   UNL     1     -36.985  26.568   3.190  0.00  0.00    +0.159 HD
ATOM     23  H   UNL     1     -38.638  26.931   2.980  0.00  0.00    +0.159 HD
ENDBRANCH  16  19
ENDBRANCH  15  16
ENDBRANCH   1  15
TORSDOF 8
ENDMDL
