MODEL 1
REMARK VINA RESULT:      -6.5      0.000      0.000
REMARK  Name = 586733
REMARK  10 active torsions:
REMARK  status: ('A' for Active; 'I' for Inactive)
REMARK    1  A    between atoms: C_2  and  O_16
REMARK    2  A    between atoms: C_2  and  C_18
REMARK    3  A    between atoms: C_3  and  C_29
REMARK    4  A    between atoms: C_4  and  C_6
REMARK    5  A    between atoms: C_9  and  O_12
REMARK    6  A    between atoms: C_11  and  O_14
REMARK    7  A    between atoms: C_18  and  C_19
REMARK    8  A    between atoms: C_22  and  O_25
REMARK    9  A    between atoms: C_24  and  O_27
REMARK   10  A    between atoms: C_29  and  O_30
REMARK                            x       y       z     vdW  Elec       q    Type
REMARK                         _______ _______ _______ _____ _____    ______ ____
ROOT
ATOM      1  O   UNL     1     -35.139  20.631   3.285  0.00  0.00    -0.349 OA
ATOM      2  C   UNL     1     -36.674  22.266   2.516  0.00  0.00    +0.124 C 
ATOM      3  C   UNL     1     -35.866  21.771   1.320  0.00  0.00    +0.088 C 
ATOM      4  C   UNL     1     -35.299  20.451   1.861  0.00  0.00    +0.142 C 
ATOM      5  C   UNL     1     -35.773  21.863   3.673  0.00  0.00    +0.170 C 
ENDROOT
BRANCH   4   6
ATOM      6  C   UNL     1     -33.985  20.046   1.238  0.00  0.00    +0.008 C 
ATOM      7  C   UNL     1     -33.498  18.750   1.410  0.00  0.00    +0.038 C 
ATOM      8  C   UNL     1     -33.254  20.970   0.489  0.00  0.00    +0.001 C 
ATOM      9  C   UNL     1     -32.283  18.377   0.835  0.00  0.00    +0.172 C 
ATOM     10  C   UNL     1     -32.038  20.597  -0.086  0.00  0.00    +0.040 C 
ATOM     11  C   UNL     1     -31.553  19.301   0.087  0.00  0.00    +0.168 C 
BRANCH   9  12
ATOM     12  O   UNL     1     -31.821  17.108   1.010  0.00  0.00    -0.468 OA
ATOM     13  C   UNL     1     -32.241  16.129   0.062  0.00  0.00    +0.253 C 
ENDBRANCH   9  12
BRANCH  11  14
ATOM     14  O   UNL     1     -30.366  18.949  -0.480  0.00  0.00    -0.503 OA
ATOM     15  H   UNL     1     -30.075  19.376  -1.262  0.00  0.00    +0.292 HD
ENDBRANCH  11  14
ENDBRANCH   4   6
BRANCH   2  16
ATOM     16  O   UNL     1     -37.900  21.539   2.613  0.00  0.00    -0.384 OA
ATOM     17  H   UNL     1     -38.072  21.083   1.776  0.00  0.00    +0.210 HD
ENDBRANCH   2  16
BRANCH   2  18
ATOM     18  C   UNL     1     -36.989  23.754   2.489  0.00  0.00    +0.056 C 
BRANCH  18  19
ATOM     19  C   UNL     1     -36.119  24.527   3.446  0.00  0.00    -0.017 C 
ATOM     20  C   UNL     1     -34.815  24.835   3.087  0.00  0.00    +0.036 C 
ATOM     21  C   UNL     1     -36.637  24.920   4.672  0.00  0.00    -0.001 C 
ATOM     22  C   UNL     1     -34.010  25.550   3.974  0.00  0.00    +0.172 C 
ATOM     23  C   UNL     1     -35.832  25.636   5.559  0.00  0.00    +0.039 C 
ATOM     24  C   UNL     1     -34.518  25.951   5.210  0.00  0.00    +0.168 C 
BRANCH  22  25
ATOM     25  O   UNL     1     -32.730  25.853   3.621  0.00  0.00    -0.468 OA
ATOM     26  C   UNL     1     -32.443  25.923   2.226  0.00  0.00    +0.253 C 
ENDBRANCH  22  25
BRANCH  24  27
ATOM     27  O   UNL     1     -33.743  26.650   6.083  0.00  0.00    -0.503 OA
ATOM     28  H   UNL     1     -32.820  26.489   6.124  0.00  0.00    +0.292 HD
ENDBRANCH  24  27
ENDBRANCH  18  19
ENDBRANCH   2  18
BRANCH   3  29
ATOM     29  C   UNL     1     -36.649  21.595   0.024  0.00  0.00    +0.142 C 
BRANCH  29  30
ATOM     30  O   UNL     1     -37.312  20.345   0.061  0.00  0.00    -0.382 OA
ATOM     31  H   UNL     1     -37.451  20.025  -0.843  0.00  0.00    +0.210 HD
ENDBRANCH  29  30
ENDBRANCH   3  29
TORSDOF 10
ENDMDL
MODEL 2
REMARK VINA RESULT:      -6.4      3.051      5.554
REMARK  Name = 586733
REMARK  10 active torsions:
REMARK  status: ('A' for Active; 'I' for Inactive)
REMARK    1  A    between atoms: C_2  and  O_16
REMARK    2  A    between atoms: C_2  and  C_18
REMARK    3  A    between atoms: C_3  and  C_29
REMARK    4  A    between atoms: C_4  and  C_6
REMARK    5  A    between atoms: C_9  and  O_12
REMARK    6  A    between atoms: C_11  and  O_14
REMARK    7  A    between atoms: C_18  and  C_19
REMARK    8  A    between atoms: C_22  and  O_25
REMARK    9  A    between atoms: C_24  and  O_27
REMARK   10  A    between atoms: C_29  and  O_30
REMARK                            x       y       z     vdW  Elec       q    Type
REMARK                         _______ _______ _______ _____ _____    ______ ____
ROOT
ATOM      1  O   UNL     1     -36.691  24.151   4.929  0.00  0.00    -0.349 OA
ATOM      2  C   UNL     1     -35.227  25.833   4.124  0.00  0.00    +0.124 C 
ATOM      3  C   UNL     1     -36.090  25.354   2.960  0.00  0.00    +0.088 C 
ATOM      4  C   UNL     1     -37.246  24.668   3.700  0.00  0.00    +0.142 C 
ATOM      5  C   UNL     1     -35.357  24.667   5.092  0.00  0.00    +0.170 C 
ENDROOT
BRANCH   4   6
ATOM      6  C   UNL     1     -37.899  23.555   2.917  0.00  0.00    +0.008 C 
ATOM      7  C   UNL     1     -37.173  22.410   2.588  0.00  0.00    +0.038 C 
ATOM      8  C   UNL     1     -39.233  23.669   2.520  0.00  0.00    +0.001 C 
ATOM      9  C   UNL     1     -37.776  21.381   1.864  0.00  0.00    +0.172 C 
ATOM     10  C   UNL     1     -39.837  22.641   1.795  0.00  0.00    +0.040 C 
ATOM     11  C   UNL     1     -39.109  21.498   1.467  0.00  0.00    +0.168 C 
BRANCH   9  12
ATOM     12  O   UNL     1     -37.056  20.269   1.551  0.00  0.00    -0.468 OA
ATOM     13  C   UNL     1     -35.694  20.238   1.977  0.00  0.00    +0.253 C 
ENDBRANCH   9  12
BRANCH  11  14
ATOM     14  O   UNL     1     -39.710  20.501   0.761  0.00  0.00    -0.503 OA
ATOM     15  H   UNL     1     -39.972  19.711   1.194  0.00  0.00    +0.292 HD
ENDBRANCH  11  14
ENDBRANCH   4   6
BRANCH   2  16
ATOM     16  O   UNL     1     -35.808  26.993   4.720  0.00  0.00    -0.384 OA
ATOM     17  H   UNL     1     -35.188  27.735   4.656  0.00  0.00    +0.210 HD
ENDBRANCH   2  16
BRANCH   2  18
ATOM     18  C   UNL     1     -33.786  26.146   3.750  0.00  0.00    +0.056 C 
BRANCH  18  19
ATOM     19  C   UNL     1     -33.117  27.020   4.779  0.00  0.00    -0.017 C 
ATOM     20  C   UNL     1     -32.425  28.151   4.369  0.00  0.00    +0.036 C 
ATOM     21  C   UNL     1     -33.204  26.681   6.122  0.00  0.00    -0.001 C 
ATOM     22  C   UNL     1     -31.806  28.959   5.321  0.00  0.00    +0.172 C 
ATOM     23  C   UNL     1     -32.584  27.490   7.075  0.00  0.00    +0.039 C 
ATOM     24  C   UNL     1     -31.885  28.629   6.675  0.00  0.00    +0.168 C 
BRANCH  22  25
ATOM     25  O   UNL     1     -31.128  30.069   4.918  0.00  0.00    -0.468 OA
ATOM     26  C   UNL     1     -31.904  31.152   4.408  0.00  0.00    +0.253 C 
ENDBRANCH  22  25
BRANCH  24  27
ATOM     27  O   UNL     1     -31.285  29.411   7.614  0.00  0.00    -0.503 OA
ATOM     28  H   UNL     1     -30.351  29.411   7.697  0.00  0.00    +0.292 HD
ENDBRANCH  24  27
ENDBRANCH  18  19
ENDBRANCH   2  18
BRANCH   3  29
ATOM     29  C   UNL     1     -36.560  26.441   1.999  0.00  0.00    +0.142 C 
BRANCH  29  30
ATOM     30  O   UNL     1     -37.773  26.985   2.489  0.00  0.00    -0.382 OA
ATOM     31  H   UNL     1     -37.584  27.784   3.005  0.00  0.00    +0.210 HD
ENDBRANCH  29  30
ENDBRANCH   3  29
TORSDOF 10
ENDMDL
MODEL 3
REMARK VINA RESULT:      -6.4      4.529      6.333
REMARK  Name = 586733
REMARK  10 active torsions:
REMARK  status: ('A' for Active; 'I' for Inactive)
REMARK    1  A    between atoms: C_2  and  O_16
REMARK    2  A    between atoms: C_2  and  C_18
REMARK    3  A    between atoms: C_3  and  C_29
REMARK    4  A    between atoms: C_4  and  C_6
REMARK    5  A    between atoms: C_9  and  O_12
REMARK    6  A    between atoms: C_11  and  O_14
REMARK    7  A    between atoms: C_18  and  C_19
REMARK    8  A    between atoms: C_22  and  O_25
REMARK    9  A    between atoms: C_24  and  O_27
REMARK   10  A    between atoms: C_29  and  O_30
REMARK                            x       y       z     vdW  Elec       q    Type
REMARK                         _______ _______ _______ _____ _____    ______ ____
ROOT
ATOM      1  O   UNL     1     -36.997  24.337   4.867  0.00  0.00    -0.349 OA
ATOM      2  C   UNL     1     -35.321  25.816   4.076  0.00  0.00    +0.124 C 
ATOM      3  C   UNL     1     -36.141  25.341   2.880  0.00  0.00    +0.088 C 
ATOM      4  C   UNL     1     -37.409  24.818   3.569  0.00  0.00    +0.142 C 
ATOM      5  C   UNL     1     -35.635  24.737   5.101  0.00  0.00    +0.170 C 
ENDROOT
BRANCH   4   6
ATOM      6  C   UNL     1     -38.111  23.720   2.808  0.00  0.00    +0.008 C 
ATOM      7  C   UNL     1     -39.345  23.965   2.204  0.00  0.00    +0.038 C 
ATOM      8  C   UNL     1     -37.527  22.455   2.708  0.00  0.00    +0.001 C 
ATOM      9  C   UNL     1     -39.994  22.949   1.501  0.00  0.00    +0.172 C 
ATOM     10  C   UNL     1     -38.177  21.439   2.006  0.00  0.00    +0.040 C 
ATOM     11  C   UNL     1     -39.410  21.686   1.403  0.00  0.00    +0.168 C 
BRANCH   9  12
ATOM     12  O   UNL     1     -41.197  23.203   0.916  0.00  0.00    -0.468 OA
ATOM     13  C   UNL     1     -41.621  24.564   0.869  0.00  0.00    +0.253 C 
ENDBRANCH   9  12
BRANCH  11  14
ATOM     14  O   UNL     1     -40.033  20.687   0.719  0.00  0.00    -0.503 OA
ATOM     15  H   UNL     1     -40.529  20.885  -0.051  0.00  0.00    +0.292 HD
ENDBRANCH  11  14
ENDBRANCH   4   6
BRANCH   2  16
ATOM     16  O   UNL     1     -35.827  27.063   4.553  0.00  0.00    -0.384 OA
ATOM     17  H   UNL     1     -36.207  27.562   3.813  0.00  0.00    +0.210 HD
ENDBRANCH   2  16
BRANCH   2  18
ATOM     18  C   UNL     1     -33.833  25.966   3.798  0.00  0.00    +0.056 C 
BRANCH  18  19
ATOM     19  C   UNL     1     -33.168  26.889   4.786  0.00  0.00    -0.017 C 
ATOM     20  C   UNL     1     -32.508  28.020   4.328  0.00  0.00    +0.036 C 
ATOM     21  C   UNL     1     -33.226  26.592   6.140  0.00  0.00    -0.001 C 
ATOM     22  C   UNL     1     -31.892  28.872   5.243  0.00  0.00    +0.172 C 
ATOM     23  C   UNL     1     -32.609  27.446   7.056  0.00  0.00    +0.039 C 
ATOM     24  C   UNL     1     -31.942  28.586   6.608  0.00  0.00    +0.168 C 
BRANCH  22  25
ATOM     25  O   UNL     1     -31.246  29.983   4.792  0.00  0.00    -0.468 OA
ATOM     26  C   UNL     1     -32.056  31.082   4.380  0.00  0.00    +0.253 C 
ENDBRANCH  22  25
BRANCH  24  27
ATOM     27  O   UNL     1     -31.345  29.411   7.511  0.00  0.00    -0.503 OA
ATOM     28  H   UNL     1     -31.865  29.870   8.142  0.00  0.00    +0.292 HD
ENDBRANCH  24  27
ENDBRANCH  18  19
ENDBRANCH   2  18
BRANCH   3  29
ATOM     29  C   UNL     1     -36.432  26.399   1.821  0.00  0.00    +0.142 C 
BRANCH  29  30
ATOM     30  O   UNL     1     -37.547  27.164   2.240  0.00  0.00    -0.382 OA
ATOM     31  H   UNL     1     -37.728  26.987   3.176  0.00  0.00    +0.210 HD
ENDBRANCH  29  30
ENDBRANCH   3  29
TORSDOF 10
ENDMDL
MODEL 4
REMARK VINA RESULT:      -6.1      2.464      2.927
REMARK  Name = 586733
REMARK  10 active torsions:
REMARK  status: ('A' for Active; 'I' for Inactive)
REMARK    1  A    between atoms: C_2  and  O_16
REMARK    2  A    between atoms: C_2  and  C_18
REMARK    3  A    between atoms: C_3  and  C_29
REMARK    4  A    between atoms: C_4  and  C_6
REMARK    5  A    between atoms: C_9  and  O_12
REMARK    6  A    between atoms: C_11  and  O_14
REMARK    7  A    between atoms: C_18  and  C_19
REMARK    8  A    between atoms: C_22  and  O_25
REMARK    9  A    between atoms: C_24  and  O_27
REMARK   10  A    between atoms: C_29  and  O_30
REMARK                            x       y       z     vdW  Elec       q    Type
REMARK                         _______ _______ _______ _____ _____    ______ ____
ROOT
ATOM      1  O   UNL     1     -35.062  21.108   2.596  0.00  0.00    -0.349 OA
ATOM      2  C   UNL     1     -37.086  21.369   1.389  0.00  0.00    +0.124 C 
ATOM      3  C   UNL     1     -36.161  20.463   0.580  0.00  0.00    +0.088 C 
ATOM      4  C   UNL     1     -35.156  20.019   1.652  0.00  0.00    +0.142 C 
ATOM      5  C   UNL     1     -36.093  22.068   2.305  0.00  0.00    +0.170 C 
ENDROOT
BRANCH   4   6
ATOM      6  C   UNL     1     -33.788  19.684   1.108  0.00  0.00    +0.008 C 
ATOM      7  C   UNL     1     -33.277  18.393   1.246  0.00  0.00    +0.038 C 
ATOM      8  C   UNL     1     -33.031  20.667   0.467  0.00  0.00    +0.001 C 
ATOM      9  C   UNL     1     -32.012  18.084   0.744  0.00  0.00    +0.172 C 
ATOM     10  C   UNL     1     -31.767  20.358  -0.034  0.00  0.00    +0.040 C 
ATOM     11  C   UNL     1     -31.257  19.067   0.104  0.00  0.00    +0.168 C 
BRANCH   9  12
ATOM     12  O   UNL     1     -31.527  16.820   0.884  0.00  0.00    -0.468 OA
ATOM     13  C   UNL     1     -32.005  15.836  -0.031  0.00  0.00    +0.253 C 
ENDBRANCH   9  12
BRANCH  11  14
ATOM     14  O   UNL     1     -30.022  18.778  -0.391  0.00  0.00    -0.503 OA
ATOM     15  H   UNL     1     -29.380  19.456  -0.474  0.00  0.00    +0.292 HD
ENDBRANCH  11  14
ENDBRANCH   4   6
BRANCH   2  16
ATOM     16  O   UNL     1     -37.969  20.579   2.186  0.00  0.00    -0.384 OA
ATOM     17  H   UNL     1     -37.648  19.665   2.216  0.00  0.00    +0.210 HD
ENDBRANCH   2  16
BRANCH   2  18
ATOM     18  C   UNL     1     -37.913  22.332   0.551  0.00  0.00    +0.056 C 
BRANCH  18  19
ATOM     19  C   UNL     1     -38.413  23.496   1.365  0.00  0.00    -0.017 C 
ATOM     20  C   UNL     1     -37.822  24.742   1.209  0.00  0.00    +0.036 C 
ATOM     21  C   UNL     1     -39.455  23.305   2.260  0.00  0.00    -0.001 C 
ATOM     22  C   UNL     1     -38.285  25.819   1.964  0.00  0.00    +0.172 C 
ATOM     23  C   UNL     1     -39.918  24.383   3.016  0.00  0.00    +0.039 C 
ATOM     24  C   UNL     1     -39.332  25.641   2.867  0.00  0.00    +0.168 C 
BRANCH  22  25
ATOM     25  O   UNL     1     -37.706  27.043   1.808  0.00  0.00    -0.468 OA
ATOM     26  C   UNL     1     -36.311  27.139   2.088  0.00  0.00    +0.253 C 
ENDBRANCH  22  25
BRANCH  24  27
ATOM     27  O   UNL     1     -39.793  26.685   3.609  0.00  0.00    -0.503 OA
ATOM     28  H   UNL     1     -39.373  26.907   4.418  0.00  0.00    +0.292 HD
ENDBRANCH  24  27
ENDBRANCH  18  19
ENDBRANCH   2  18
BRANCH   3  29
ATOM     29  C   UNL     1     -36.838  19.292  -0.123  0.00  0.00    +0.142 C 
BRANCH  29  30
ATOM     30  O   UNL     1     -37.028  18.248   0.815  0.00  0.00    -0.382 OA
ATOM     31  H   UNL     1     -36.294  18.246   1.449  0.00  0.00    +0.210 HD
ENDBRANCH  29  30
ENDBRANCH   3  29
TORSDOF 10
ENDMDL
MODEL 5
REMARK VINA RESULT:      -6.1      3.163      6.898
REMARK  Name = 586733
REMARK  10 active torsions:
REMARK  status: ('A' for Active; 'I' for Inactive)
REMARK    1  A    between atoms: C_2  and  O_16
REMARK    2  A    between atoms: C_2  and  C_18
REMARK    3  A    between atoms: C_3  and  C_29
REMARK    4  A    between atoms: C_4  and  C_6
REMARK    5  A    between atoms: C_9  and  O_12
REMARK    6  A    between atoms: C_11  and  O_14
REMARK    7  A    between atoms: C_18  and  C_19
REMARK    8  A    between atoms: C_22  and  O_25
REMARK    9  A    between atoms: C_24  and  O_27
REMARK   10  A    between atoms: C_29  and  O_30
REMARK                            x       y       z     vdW  Elec       q    Type
REMARK                         _______ _______ _______ _____ _____    ______ ____
ROOT
ATOM      1  O   UNL     1     -35.908  25.392   1.595  0.00  0.00    -0.349 OA
ATOM      2  C   UNL     1     -38.119  25.503   0.744  0.00  0.00    +0.124 C 
ATOM      3  C   UNL     1     -38.154  24.741   2.066  0.00  0.00    +0.088 C 
ATOM      4  C   UNL     1     -36.817  25.158   2.693  0.00  0.00    +0.142 C 
ATOM      5  C   UNL     1     -36.652  25.372   0.363  0.00  0.00    +0.170 C 
ENDROOT
BRANCH   4   6
ATOM      6  C   UNL     1     -36.236  24.133   3.637  0.00  0.00    +0.008 C 
ATOM      7  C   UNL     1     -36.038  22.820   3.209  0.00  0.00    +0.038 C 
ATOM      8  C   UNL     1     -35.897  24.497   4.942  0.00  0.00    +0.001 C 
ATOM      9  C   UNL     1     -35.503  21.872   4.082  0.00  0.00    +0.172 C 
ATOM     10  C   UNL     1     -35.362  23.550   5.815  0.00  0.00    +0.040 C 
ATOM     11  C   UNL     1     -35.165  22.237   5.385  0.00  0.00    +0.168 C 
BRANCH   9  12
ATOM     12  O   UNL     1     -35.314  20.595   3.650  0.00  0.00    -0.468 OA
ATOM     13  C   UNL     1     -35.178  20.399   2.243  0.00  0.00    +0.253 C 
ENDBRANCH   9  12
BRANCH  11  14
ATOM     14  O   UNL     1     -34.641  21.322   6.246  0.00  0.00    -0.503 OA
ATOM     15  H   UNL     1     -34.962  20.441   6.246  0.00  0.00    +0.292 HD
ENDBRANCH  11  14
ENDBRANCH   4   6
BRANCH   2  16
ATOM     16  O   UNL     1     -38.415  26.882   0.965  0.00  0.00    -0.384 OA
ATOM     17  H   UNL     1     -38.825  26.989   1.837  0.00  0.00    +0.210 HD
ENDBRANCH   2  16
BRANCH   2  18
ATOM     18  C   UNL     1     -39.066  24.963  -0.317  0.00  0.00    +0.056 C 
BRANCH  18  19
ATOM     19  C   UNL     1     -39.105  23.457  -0.319  0.00  0.00    -0.017 C 
ATOM     20  C   UNL     1     -40.295  22.804  -0.032  0.00  0.00    +0.036 C 
ATOM     21  C   UNL     1     -37.948  22.746  -0.607  0.00  0.00    -0.001 C 
ATOM     22  C   UNL     1     -40.329  21.410  -0.033  0.00  0.00    +0.172 C 
ATOM     23  C   UNL     1     -37.984  21.350  -0.608  0.00  0.00    +0.039 C 
ATOM     24  C   UNL     1     -39.174  20.683  -0.321  0.00  0.00    +0.168 C 
BRANCH  22  25
ATOM     25  O   UNL     1     -41.498  20.769   0.247  0.00  0.00    -0.468 OA
ATOM     26  C   UNL     1     -42.423  20.611  -0.827  0.00  0.00    +0.253 C 
ENDBRANCH  22  25
BRANCH  24  27
ATOM     27  O   UNL     1     -39.196  19.321  -0.326  0.00  0.00    -0.503 OA
ATOM     28  H   UNL     1     -39.355  18.852   0.470  0.00  0.00    +0.292 HD
ENDBRANCH  24  27
ENDBRANCH  18  19
ENDBRANCH   2  18
BRANCH   3  29
ATOM     29  C   UNL     1     -39.350  25.038   2.964  0.00  0.00    +0.142 C 
BRANCH  29  30
ATOM     30  O   UNL     1     -39.194  26.333   3.514  0.00  0.00    -0.382 OA
ATOM     31  H   UNL     1     -38.275  26.454   3.801  0.00  0.00    +0.210 HD
ENDBRANCH  29  30
ENDBRANCH   3  29
TORSDOF 10
ENDMDL
MODEL 6
REMARK VINA RESULT:      -6.1      2.972      8.203
REMARK  Name = 586733
REMARK  10 active torsions:
REMARK  status: ('A' for Active; 'I' for Inactive)
REMARK    1  A    between atoms: C_2  and  O_16
REMARK    2  A    between atoms: C_2  and  C_18
REMARK    3  A    between atoms: C_3  and  C_29
REMARK    4  A    between atoms: C_4  and  C_6
REMARK    5  A    between atoms: C_9  and  O_12
REMARK    6  A    between atoms: C_11  and  O_14
REMARK    7  A    between atoms: C_18  and  C_19
REMARK    8  A    between atoms: C_22  and  O_25
REMARK    9  A    between atoms: C_24  and  O_27
REMARK   10  A    between atoms: C_29  and  O_30
REMARK                            x       y       z     vdW  Elec       q    Type
REMARK                         _______ _______ _______ _____ _____    ______ ____
ROOT
ATOM      1  O   UNL     1     -32.470  26.134   2.818  0.00  0.00    -0.349 OA
ATOM      2  C   UNL     1     -34.705  25.856   2.077  0.00  0.00    +0.124 C 
ATOM      3  C   UNL     1     -34.672  27.012   3.073  0.00  0.00    +0.088 C 
ATOM      4  C   UNL     1     -33.179  27.364   3.083  0.00  0.00    +0.142 C 
ATOM      5  C   UNL     1     -33.418  25.125   2.427  0.00  0.00    +0.170 C 
ENDROOT
BRANCH   4   6
ATOM      6  C   UNL     1     -32.700  27.971   4.379  0.00  0.00    +0.008 C 
ATOM      7  C   UNL     1     -32.236  29.286   4.408  0.00  0.00    +0.038 C 
ATOM      8  C   UNL     1     -32.720  27.215   5.553  0.00  0.00    +0.001 C 
ATOM      9  C   UNL     1     -31.792  29.846   5.606  0.00  0.00    +0.172 C 
ATOM     10  C   UNL     1     -32.276  27.775   6.752  0.00  0.00    +0.040 C 
ATOM     11  C   UNL     1     -31.812  29.090   6.778  0.00  0.00    +0.168 C 
BRANCH   9  12
ATOM     12  O   UNL     1     -31.343  31.132   5.619  0.00  0.00    -0.468 OA
ATOM     13  C   UNL     1     -30.403  31.501   4.612  0.00  0.00    +0.253 C 
ENDBRANCH   9  12
BRANCH  11  14
ATOM     14  O   UNL     1     -31.383  29.625   7.955  0.00  0.00    -0.503 OA
ATOM     15  H   UNL     1     -30.716  29.191   8.451  0.00  0.00    +0.292 HD
ENDBRANCH  11  14
ENDBRANCH   4   6
BRANCH   2  16
ATOM     16  O   UNL     1     -34.602  26.356   0.743  0.00  0.00    -0.384 OA
ATOM     17  H   UNL     1     -34.080  25.740   0.207  0.00  0.00    +0.210 HD
ENDBRANCH   2  16
BRANCH   2  18
ATOM     18  C   UNL     1     -35.942  24.977   2.176  0.00  0.00    +0.056 C 
BRANCH  18  19
ATOM     19  C   UNL     1     -35.751  23.849   3.157  0.00  0.00    -0.017 C 
ATOM     20  C   UNL     1     -35.557  22.559   2.685  0.00  0.00    +0.036 C 
ATOM     21  C   UNL     1     -35.772  24.119   4.518  0.00  0.00    -0.001 C 
ATOM     22  C   UNL     1     -35.381  21.516   3.593  0.00  0.00    +0.172 C 
ATOM     23  C   UNL     1     -35.596  23.075   5.427  0.00  0.00    +0.039 C 
ATOM     24  C   UNL     1     -35.400  21.773   4.965  0.00  0.00    +0.168 C 
BRANCH  22  25
ATOM     25  O   UNL     1     -35.189  20.250   3.129  0.00  0.00    -0.468 OA
ATOM     26  C   UNL     1     -34.833  20.111   1.756  0.00  0.00    +0.253 C 
ENDBRANCH  22  25
BRANCH  24  27
ATOM     27  O   UNL     1     -35.229  20.763   5.861  0.00  0.00    -0.503 OA
ATOM     28  H   UNL     1     -34.616  20.860   6.564  0.00  0.00    +0.292 HD
ENDBRANCH  24  27
ENDBRANCH  18  19
ENDBRANCH   2  18
BRANCH   3  29
ATOM     29  C   UNL     1     -35.562  28.202   2.730  0.00  0.00    +0.142 C 
BRANCH  29  30
ATOM     30  O   UNL     1     -34.960  28.928   1.674  0.00  0.00    -0.382 OA
ATOM     31  H   UNL     1     -33.996  28.843   1.732  0.00  0.00    +0.210 HD
ENDBRANCH  29  30
ENDBRANCH   3  29
TORSDOF 10
ENDMDL
MODEL 7
REMARK VINA RESULT:      -6.0      2.205      7.954
REMARK  Name = 586733
REMARK  10 active torsions:
REMARK  status: ('A' for Active; 'I' for Inactive)
REMARK    1  A    between atoms: C_2  and  O_16
REMARK    2  A    between atoms: C_2  and  C_18
REMARK    3  A    between atoms: C_3  and  C_29
REMARK    4  A    between atoms: C_4  and  C_6
REMARK    5  A    between atoms: C_9  and  O_12
REMARK    6  A    between atoms: C_11  and  O_14
REMARK    7  A    between atoms: C_18  and  C_19
REMARK    8  A    between atoms: C_22  and  O_25
REMARK    9  A    between atoms: C_24  and  O_27
REMARK   10  A    between atoms: C_29  and  O_30
REMARK                            x       y       z     vdW  Elec       q    Type
REMARK                         _______ _______ _______ _____ _____    ______ ____
ROOT
ATOM      1  O   UNL     1     -38.857  20.826   0.892  0.00  0.00    -0.349 OA
ATOM      2  C   UNL     1     -36.680  19.981   0.481  0.00  0.00    +0.124 C 
ATOM      3  C   UNL     1     -36.554  21.207   1.381  0.00  0.00    +0.088 C 
ATOM      4  C   UNL     1     -37.983  21.335   1.924  0.00  0.00    +0.142 C 
ATOM      5  C   UNL     1     -38.058  20.197  -0.126  0.00  0.00    +0.170 C 
ENDROOT
BRANCH   4   6
ATOM      6  C   UNL     1     -38.377  22.745   2.288  0.00  0.00    +0.008 C 
ATOM      7  C   UNL     1     -37.524  23.533   3.061  0.00  0.00    +0.038 C 
ATOM      8  C   UNL     1     -39.598  23.265   1.853  0.00  0.00    +0.001 C 
ATOM      9  C   UNL     1     -37.888  24.837   3.399  0.00  0.00    +0.172 C 
ATOM     10  C   UNL     1     -39.963  24.568   2.190  0.00  0.00    +0.040 C 
ATOM     11  C   UNL     1     -39.108  25.354   2.963  0.00  0.00    +0.168 C 
BRANCH   9  12
ATOM     12  O   UNL     1     -37.045  25.595   4.153  0.00  0.00    -0.468 OA
ATOM     13  C   UNL     1     -36.163  24.902   5.034  0.00  0.00    +0.253 C 
ENDBRANCH   9  12
BRANCH  11  14
ATOM     14  O   UNL     1     -39.475  26.626   3.285  0.00  0.00    -0.503 OA
ATOM     15  H   UNL     1     -40.363  26.811   3.524  0.00  0.00    +0.292 HD
ENDBRANCH  11  14
ENDBRANCH   4   6
BRANCH   2  16
ATOM     16  O   UNL     1     -36.707  18.793   1.273  0.00  0.00    -0.384 OA
ATOM     17  H   UNL     1     -36.018  18.184   0.965  0.00  0.00    +0.210 HD
ENDBRANCH   2  16
BRANCH   2  18
ATOM     18  C   UNL     1     -35.578  19.850  -0.560  0.00  0.00    +0.056 C 
BRANCH  18  19
ATOM     19  C   UNL     1     -34.748  18.611  -0.344  0.00  0.00    -0.017 C 
ATOM     20  C   UNL     1     -33.636  18.670   0.484  0.00  0.00    +0.036 C 
ATOM     21  C   UNL     1     -35.108  17.431  -0.978  0.00  0.00    -0.001 C 
ATOM     22  C   UNL     1     -32.868  17.524   0.682  0.00  0.00    +0.172 C 
ATOM     23  C   UNL     1     -34.339  16.283  -0.779  0.00  0.00    +0.039 C 
ATOM     24  C   UNL     1     -33.219  16.330   0.051  0.00  0.00    +0.168 C 
BRANCH  22  25
ATOM     25  O   UNL     1     -31.778  17.582   1.496  0.00  0.00    -0.468 OA
ATOM     26  C   UNL     1     -30.539  17.953   0.895  0.00  0.00    +0.253 C 
ENDBRANCH  22  25
BRANCH  24  27
ATOM     27  O   UNL     1     -32.477  15.204   0.238  0.00  0.00    -0.503 OA
ATOM     28  H   UNL     1     -32.477  14.775   1.072  0.00  0.00    +0.292 HD
ENDBRANCH  24  27
ENDBRANCH  18  19
ENDBRANCH   2  18
BRANCH   3  29
ATOM     29  C   UNL     1     -35.505  21.108   2.483  0.00  0.00    +0.142 C 
BRANCH  29  30
ATOM     30  O   UNL     1     -36.029  20.322   3.538  0.00  0.00    -0.382 OA
ATOM     31  H   UNL     1     -36.997  20.325   3.493  0.00  0.00    +0.210 HD
ENDBRANCH  29  30
ENDBRANCH   3  29
TORSDOF 10
ENDMDL
MODEL 8
REMARK VINA RESULT:      -5.9      3.029      5.203
REMARK  Name = 586733
REMARK  10 active torsions:
REMARK  status: ('A' for Active; 'I' for Inactive)
REMARK    1  A    between atoms: C_2  and  O_16
REMARK    2  A    between atoms: C_2  and  C_18
REMARK    3  A    between atoms: C_3  and  C_29
REMARK    4  A    between atoms: C_4  and  C_6
REMARK    5  A    between atoms: C_9  and  O_12
REMARK    6  A    between atoms: C_11  and  O_14
REMARK    7  A    between atoms: C_18  and  C_19
REMARK    8  A    between atoms: C_22  and  O_25
REMARK    9  A    between atoms: C_24  and  O_27
REMARK   10  A    between atoms: C_29  and  O_30
REMARK                            x       y       z     vdW  Elec       q    Type
REMARK                         _______ _______ _______ _____ _____    ______ ____
ROOT
ATOM      1  O   UNL     1     -35.362  23.889   5.086  0.00  0.00    -0.349 OA
ATOM      2  C   UNL     1     -35.554  26.123   4.316  0.00  0.00    +0.124 C 
ATOM      3  C   UNL     1     -36.275  25.213   3.326  0.00  0.00    +0.088 C 
ATOM      4  C   UNL     1     -36.474  23.945   4.167  0.00  0.00    +0.142 C 
ATOM      5  C   UNL     1     -34.640  25.132   5.021  0.00  0.00    +0.170 C 
ENDROOT
BRANCH   4   6
ATOM      6  C   UNL     1     -36.540  22.675   3.354  0.00  0.00    +0.008 C 
ATOM      7  C   UNL     1     -37.653  22.411   2.555  0.00  0.00    +0.038 C 
ATOM      8  C   UNL     1     -35.486  21.760   3.400  0.00  0.00    +0.001 C 
ATOM      9  C   UNL     1     -37.714  21.237   1.805  0.00  0.00    +0.172 C 
ATOM     10  C   UNL     1     -35.547  20.585   2.651  0.00  0.00    +0.040 C 
ATOM     11  C   UNL     1     -36.661  20.324   1.853  0.00  0.00    +0.168 C 
BRANCH   9  12
ATOM     12  O   UNL     1     -38.806  20.994   1.029  0.00  0.00    -0.468 OA
ATOM     13  C   UNL     1     -39.954  21.812   1.249  0.00  0.00    +0.253 C 
ENDBRANCH   9  12
BRANCH  11  14
ATOM     14  O   UNL     1     -36.708  19.174   1.124  0.00  0.00    -0.503 OA
ATOM     15  H   UNL     1     -37.380  18.542   1.289  0.00  0.00    +0.292 HD
ENDBRANCH  11  14
ENDBRANCH   4   6
BRANCH   2  16
ATOM     16  O   UNL     1     -36.482  26.648   5.266  0.00  0.00    -0.384 OA
ATOM     17  H   UNL     1     -36.000  26.995   6.032  0.00  0.00    +0.210 HD
ENDBRANCH   2  16
BRANCH   2  18
ATOM     18  C   UNL     1     -34.804  27.281   3.675  0.00  0.00    +0.056 C 
BRANCH  18  19
ATOM     19  C   UNL     1     -33.751  26.800   2.710  0.00  0.00    -0.017 C 
ATOM     20  C   UNL     1     -32.426  26.747   3.117  0.00  0.00    +0.036 C 
ATOM     21  C   UNL     1     -34.123  26.417   1.430  0.00  0.00    -0.001 C 
ATOM     22  C   UNL     1     -31.451  26.303   2.224  0.00  0.00    +0.172 C 
ATOM     23  C   UNL     1     -33.147  25.973   0.536  0.00  0.00    +0.039 C 
ATOM     24  C   UNL     1     -31.812  25.916   0.933  0.00  0.00    +0.168 C 
BRANCH  22  25
ATOM     25  O   UNL     1     -30.151  26.250   2.625  0.00  0.00    -0.468 OA
ATOM     26  C   UNL     1     -29.479  27.494   2.812  0.00  0.00    +0.253 C 
ENDBRANCH  22  25
BRANCH  24  27
ATOM     27  O   UNL     1     -30.869  25.479   0.053  0.00  0.00    -0.503 OA
ATOM     28  H   UNL     1     -31.071  25.427  -0.861  0.00  0.00    +0.292 HD
ENDBRANCH  24  27
ENDBRANCH  18  19
ENDBRANCH   2  18
BRANCH   3  29
ATOM     29  C   UNL     1     -37.580  25.762   2.759  0.00  0.00    +0.142 C 
BRANCH  29  30
ATOM     30  O   UNL     1     -38.586  25.654   3.750  0.00  0.00    -0.382 OA
ATOM     31  H   UNL     1     -38.606  26.466   4.280  0.00  0.00    +0.210 HD
ENDBRANCH  29  30
ENDBRANCH   3  29
TORSDOF 10
ENDMDL
MODEL 9
REMARK VINA RESULT:      -5.9      4.456      6.964
REMARK  Name = 586733
REMARK  10 active torsions:
REMARK  status: ('A' for Active; 'I' for Inactive)
REMARK    1  A    between atoms: C_2  and  O_16
REMARK    2  A    between atoms: C_2  and  C_18
REMARK    3  A    between atoms: C_3  and  C_29
REMARK    4  A    between atoms: C_4  and  C_6
REMARK    5  A    between atoms: C_9  and  O_12
REMARK    6  A    between atoms: C_11  and  O_14
REMARK    7  A    between atoms: C_18  and  C_19
REMARK    8  A    between atoms: C_22  and  O_25
REMARK    9  A    between atoms: C_24  and  O_27
REMARK   10  A    between atoms: C_29  and  O_30
REMARK                            x       y       z     vdW  Elec       q    Type
REMARK                         _______ _______ _______ _____ _____    ______ ____
ROOT
ATOM      1  O   UNL     1     -35.252  27.909   2.613  0.00  0.00    -0.349 OA
ATOM      2  C   UNL     1     -33.066  28.565   1.969  0.00  0.00    +0.124 C 
ATOM      3  C   UNL     1     -33.008  27.119   2.456  0.00  0.00    +0.088 C 
ATOM      4  C   UNL     1     -34.484  26.710   2.373  0.00  0.00    +0.142 C 
ATOM      5  C   UNL     1     -34.364  29.041   2.605  0.00  0.00    +0.170 C 
ENDROOT
BRANCH   4   6
ATOM      6  C   UNL     1     -34.879  25.636   3.358  0.00  0.00    +0.008 C 
ATOM      7  C   UNL     1     -35.921  24.759   3.057  0.00  0.00    +0.038 C 
ATOM      8  C   UNL     1     -34.201  25.519   4.573  0.00  0.00    +0.001 C 
ATOM      9  C   UNL     1     -36.287  23.767   3.968  0.00  0.00    +0.172 C 
ATOM     10  C   UNL     1     -34.566  24.528   5.484  0.00  0.00    +0.040 C 
ATOM     11  C   UNL     1     -35.609  23.652   5.182  0.00  0.00    +0.168 C 
BRANCH   9  12
ATOM     12  O   UNL     1     -37.305  22.917   3.660  0.00  0.00    -0.468 OA
ATOM     13  C   UNL     1     -37.831  22.988   2.336  0.00  0.00    +0.253 C 
ENDBRANCH   9  12
BRANCH  11  14
ATOM     14  O   UNL     1     -35.955  22.687   6.079  0.00  0.00    -0.503 OA
ATOM     15  H   UNL     1     -36.126  22.918   6.971  0.00  0.00    +0.292 HD
ENDBRANCH  11  14
ENDBRANCH   4   6
BRANCH   2  16
ATOM     16  O   UNL     1     -33.211  28.598   0.549  0.00  0.00    -0.384 OA
ATOM     17  H   UNL     1     -33.350  29.513   0.259  0.00  0.00    +0.210 HD
ENDBRANCH   2  16
BRANCH   2  18
ATOM     18  C   UNL     1     -31.861  29.407   2.358  0.00  0.00    +0.056 C 
BRANCH  18  19
ATOM     19  C   UNL     1     -31.658  29.439   3.850  0.00  0.00    -0.017 C 
ATOM     20  C   UNL     1     -30.866  28.472   4.453  0.00  0.00    +0.036 C 
ATOM     21  C   UNL     1     -32.267  30.436   4.600  0.00  0.00    -0.001 C 
ATOM     22  C   UNL     1     -30.680  28.502   5.834  0.00  0.00    +0.172 C 
ATOM     23  C   UNL     1     -32.081  30.464   5.983  0.00  0.00    +0.039 C 
ATOM     24  C   UNL     1     -31.286  29.498   6.600  0.00  0.00    +0.168 C 
BRANCH  22  25
ATOM     25  O   UNL     1     -29.900  27.553   6.424  0.00  0.00    -0.468 OA
ATOM     26  C   UNL     1     -28.489  27.750   6.372  0.00  0.00    +0.253 C 
ENDBRANCH  22  25
BRANCH  24  27
ATOM     27  O   UNL     1     -31.111  29.537   7.949  0.00  0.00    -0.503 OA
ATOM     28  H   UNL     1     -31.603  28.963   8.503  0.00  0.00    +0.292 HD
ENDBRANCH  24  27
ENDBRANCH  18  19
ENDBRANCH   2  18
BRANCH   3  29
ATOM     29  C   UNL     1     -32.089  26.195   1.664  0.00  0.00    +0.142 C 
BRANCH  29  30
ATOM     30  O   UNL     1     -30.980  25.855   2.476  0.00  0.00    -0.382 OA
ATOM     31  H   UNL     1     -30.920  24.891   2.554  0.00  0.00    +0.210 HD
ENDBRANCH  29  30
ENDBRANCH   3  29
TORSDOF 10
ENDMDL
