MODEL 1
REMARK VINA RESULT:      -7.0      0.000      0.000
REMARK  Name = 54738531
REMARK  5 active torsions:
REMARK  status: ('A' for Active; 'I' for Inactive)
REMARK    1  A    between atoms: C_1  and  C_13
REMARK    2  A    between atoms: C_1  and  C_17
REMARK    3  A    between atoms: C_18  and  C_20
REMARK    4  A    between atoms: C_21  and  C_25
REMARK    5  A    between atoms: C_25  and  O_31
REMARK                            x       y       z     vdW  Elec       q    Type
REMARK                         _______ _______ _______ _____ _____    ______ ____
ROOT
ATOM      1  C   UNL     1     -38.900  24.421   2.415  0.00  0.00    +0.049 C 
ATOM      2  C   UNL     1     -40.037  24.776   3.376  0.00  0.00    +0.007 C 
ENDROOT
BRANCH   1  13
ATOM      3  O   UNL     1     -36.281  24.360   5.818  0.00  0.00    -0.343 OA
ATOM      4  O   UNL     1     -34.858  23.606   2.931  0.00  0.00    -0.327 OA
ATOM      5  O   UNL     1     -37.167  23.145   3.407  0.00  0.00    -0.334 OA
ATOM      6  O   UNL     1     -34.671  26.822   4.459  0.00  0.00    -0.291 OA
ATOM      7  C   UNL     1     -35.505  23.321   5.218  0.00  0.00    +0.171 C 
ATOM      8  C   UNL     1     -34.945  24.702   5.434  0.00  0.00    +0.204 C 
ATOM      9  C   UNL     1     -35.797  22.943   3.789  0.00  0.00    +0.213 C 
ATOM     10  C   UNL     1     -35.089  25.009   2.900  0.00  0.00    +0.179 C 
ATOM     11  C   UNL     1     -36.485  25.241   2.307  0.00  0.00    +0.062 C 
ATOM     12  C   UNL     1     -34.873  25.627   4.281  0.00  0.00    +0.207 C 
ATOM     13  C   UNL     1     -37.554  24.497   3.132  0.00  0.00    +0.124 C 
ATOM     14  C   UNL     1     -35.144  22.265   6.205  0.00  0.00    +0.038 C 
ATOM     15  C   UNL     1     -35.544  21.444   3.598  0.00  0.00    +0.064 C 
ATOM     16  C   UNL     1     -36.804  26.725   2.125  0.00  0.00    +0.005 C 
ENDBRANCH   1  13
BRANCH   1  17
ATOM     17  C   UNL     1     -39.115  23.031   1.859  0.00  0.00    -0.028 C 
ATOM     18  C   UNL     1     -39.056  22.615   0.576  0.00  0.00    -0.026 C 
ATOM     19  C   UNL     1     -38.737  23.515  -0.589  0.00  0.00    +0.031 C 
BRANCH  18  20
ATOM     20  C   UNL     1     -39.313  21.201   0.288  0.00  0.00    -0.001 C 
ATOM     21  C   UNL     1     -38.562  20.387  -0.477  0.00  0.00    +0.037 C 
BRANCH  21  25
ATOM     22  O   UNL     1     -39.167  16.072  -1.215  0.00  0.00    -0.289 OA
ATOM     23  O   UNL     1     -36.034  19.287   0.217  0.00  0.00    -0.270 OA
ATOM     24  N   UNL     1     -36.005  16.948  -0.067  0.00  0.00    -0.294 N 
ATOM     25  C   UNL     1     -38.845  18.987  -0.745  0.00  0.00    +0.141 C 
ATOM     26  C   UNL     1     -37.929  18.024  -0.565  0.00  0.00    +0.123 C 
ATOM     27  C   UNL     1     -38.136  16.582  -0.812  0.00  0.00    +0.200 C 
ATOM     28  C   UNL     1     -36.552  18.228  -0.086  0.00  0.00    +0.252 C 
ATOM     29  C   UNL     1     -36.863  15.848  -0.486  0.00  0.00    +0.160 C 
ATOM     30  H   UNL     1     -35.075  16.792   0.219  0.00  0.00    +0.150 HD
BRANCH  25  31
ATOM     31  O   UNL     1     -40.118  18.705  -1.199  0.00  0.00    -0.505 OA
ATOM     32  H   UNL     1     -40.786  19.360  -1.162  0.00  0.00    +0.292 HD
ENDBRANCH  25  31
ENDBRANCH  21  25
ENDBRANCH  18  20
ENDBRANCH   1  17
TORSDOF 5
ENDMDL
MODEL 2
REMARK VINA RESULT:      -6.9      6.823      9.596
REMARK  Name = 54738531
REMARK  5 active torsions:
REMARK  status: ('A' for Active; 'I' for Inactive)
REMARK    1  A    between atoms: C_1  and  C_13
REMARK    2  A    between atoms: C_1  and  C_17
REMARK    3  A    between atoms: C_18  and  C_20
REMARK    4  A    between atoms: C_21  and  C_25
REMARK    5  A    between atoms: C_25  and  O_31
REMARK                            x       y       z     vdW  Elec       q    Type
REMARK                         _______ _______ _______ _____ _____    ______ ____
ROOT
ATOM      1  C   UNL     1     -45.005  27.252   4.017  0.00  0.00    +0.049 C 
ATOM      2  C   UNL     1     -45.718  26.357   5.033  0.00  0.00    +0.007 C 
ENDROOT
BRANCH   1  13
ATOM      3  O   UNL     1     -47.183  30.560   5.676  0.00  0.00    -0.343 OA
ATOM      4  O   UNL     1     -43.965  31.111   5.157  0.00  0.00    -0.327 OA
ATOM      5  O   UNL     1     -44.850  28.938   5.675  0.00  0.00    -0.334 OA
ATOM      6  O   UNL     1     -46.547  32.182   2.943  0.00  0.00    -0.291 OA
ATOM      7  C   UNL     1     -46.018  30.990   6.383  0.00  0.00    +0.171 C 
ATOM      8  C   UNL     1     -46.608  31.803   5.261  0.00  0.00    +0.204 C 
ATOM      9  C   UNL     1     -44.708  30.307   6.085  0.00  0.00    +0.213 C 
ATOM     10  C   UNL     1     -44.575  31.112   3.872  0.00  0.00    +0.179 C 
ATOM     11  C   UNL     1     -44.555  29.672   3.342  0.00  0.00    +0.062 C 
ATOM     12  C   UNL     1     -45.964  31.749   3.930  0.00  0.00    +0.207 C 
ATOM     13  C   UNL     1     -45.272  28.724   4.323  0.00  0.00    +0.124 C 
ATOM     14  C   UNL     1     -46.340  31.397   7.779  0.00  0.00    +0.038 C 
ATOM     15  C   UNL     1     -43.859  30.258   7.360  0.00  0.00    +0.064 C 
ATOM     16  C   UNL     1     -45.092  29.567   1.915  0.00  0.00    +0.005 C 
ENDBRANCH   1  13
BRANCH   1  17
ATOM     17  C   UNL     1     -43.517  26.978   4.047  0.00  0.00    -0.028 C 
ATOM     18  C   UNL     1     -42.727  26.496   3.064  0.00  0.00    -0.026 C 
ATOM     19  C   UNL     1     -43.217  26.137   1.685  0.00  0.00    +0.031 C 
BRANCH  18  20
ATOM     20  C   UNL     1     -41.300  26.309   3.345  0.00  0.00    -0.001 C 
ATOM     21  C   UNL     1     -40.460  25.467   2.715  0.00  0.00    +0.037 C 
BRANCH  21  25
ATOM     22  O   UNL     1     -36.191  24.710   3.568  0.00  0.00    -0.289 OA
ATOM     23  O   UNL     1     -40.200  22.698   2.123  0.00  0.00    -0.270 OA
ATOM     24  N   UNL     1     -37.995  21.945   2.481  0.00  0.00    -0.294 N 
ATOM     25  C   UNL     1     -39.049  25.304   3.018  0.00  0.00    +0.141 C 
ATOM     26  C   UNL     1     -38.420  24.127   2.892  0.00  0.00    +0.123 C 
ATOM     27  C   UNL     1     -36.991  23.878   3.178  0.00  0.00    +0.200 C 
ATOM     28  C   UNL     1     -39.038  22.867   2.445  0.00  0.00    +0.252 C 
ATOM     29  C   UNL     1     -36.690  22.428   2.910  0.00  0.00    +0.160 C 
ATOM     30  H   UNL     1     -38.135  21.003   2.226  0.00  0.00    +0.150 HD
BRANCH  25  31
ATOM     31  O   UNL     1     -38.388  26.439   3.445  0.00  0.00    -0.505 OA
ATOM     32  H   UNL     1     -38.285  26.606   4.361  0.00  0.00    +0.292 HD
ENDBRANCH  25  31
ENDBRANCH  21  25
ENDBRANCH  18  20
ENDBRANCH   1  17
TORSDOF 5
ENDMDL
MODEL 3
REMARK VINA RESULT:      -6.7      3.826      5.517
REMARK  Name = 54738531
REMARK  5 active torsions:
REMARK  status: ('A' for Active; 'I' for Inactive)
REMARK    1  A    between atoms: C_1  and  C_13
REMARK    2  A    between atoms: C_1  and  C_17
REMARK    3  A    between atoms: C_18  and  C_20
REMARK    4  A    between atoms: C_21  and  C_25
REMARK    5  A    between atoms: C_25  and  O_31
REMARK                            x       y       z     vdW  Elec       q    Type
REMARK                         _______ _______ _______ _____ _____    ______ ____
ROOT
ATOM      1  C   UNL     1     -34.564  23.055   0.593  0.00  0.00    +0.049 C 
ATOM      2  C   UNL     1     -35.799  22.876  -0.293  0.00  0.00    +0.007 C 
ENDROOT
BRANCH   1  13
ATOM      3  O   UNL     1     -34.149  24.044   4.751  0.00  0.00    -0.343 OA
ATOM      4  O   UNL     1     -37.219  23.293   3.782  0.00  0.00    -0.327 OA
ATOM      5  O   UNL     1     -35.600  24.302   2.322  0.00  0.00    -0.334 OA
ATOM      6  O   UNL     1     -35.038  21.003   5.430  0.00  0.00    -0.291 OA
ATOM      7  C   UNL     1     -35.467  24.595   4.765  0.00  0.00    +0.171 C 
ATOM      8  C   UNL     1     -35.123  23.348   5.536  0.00  0.00    +0.204 C 
ATOM      9  C   UNL     1     -36.337  24.401   3.551  0.00  0.00    +0.213 C 
ATOM     10  C   UNL     1     -36.504  22.063   3.811  0.00  0.00    +0.179 C 
ATOM     11  C   UNL     1     -35.870  21.856   2.429  0.00  0.00    +0.062 C 
ATOM     12  C   UNL     1     -35.515  22.036   4.976  0.00  0.00    +0.207 C 
ATOM     13  C   UNL     1     -34.960  23.046   2.068  0.00  0.00    +0.124 C 
ATOM     14  C   UNL     1     -35.518  25.881   5.515  0.00  0.00    +0.038 C 
ATOM     15  C   UNL     1     -37.247  25.622   3.376  0.00  0.00    +0.064 C 
ATOM     16  C   UNL     1     -35.161  20.508   2.308  0.00  0.00    +0.005 C 
ENDBRANCH   1  13
BRANCH   1  17
ATOM     17  C   UNL     1     -33.570  21.949   0.316  0.00  0.00    -0.028 C 
ATOM     18  C   UNL     1     -32.398  22.013  -0.351  0.00  0.00    -0.026 C 
ATOM     19  C   UNL     1     -31.841  23.273  -0.960  0.00  0.00    +0.031 C 
BRANCH  18  20
ATOM     20  C   UNL     1     -31.608  20.786  -0.494  0.00  0.00    -0.001 C 
ATOM     21  C   UNL     1     -31.655  19.703   0.303  0.00  0.00    +0.037 C 
BRANCH  21  25
ATOM     22  O   UNL     1     -29.460  15.902  -0.206  0.00  0.00    -0.289 OA
ATOM     23  O   UNL     1     -33.754  17.785   0.256  0.00  0.00    -0.270 OA
ATOM     24  N   UNL     1     -32.917  15.598  -0.007  0.00  0.00    -0.294 N 
ATOM     25  C   UNL     1     -30.858  18.500   0.135  0.00  0.00    +0.141 C 
ATOM     26  C   UNL     1     -31.408  17.280   0.055  0.00  0.00    +0.123 C 
ATOM     27  C   UNL     1     -30.670  16.011  -0.116  0.00  0.00    +0.200 C 
ATOM     28  C   UNL     1     -32.849  16.983   0.121  0.00  0.00    +0.252 C 
ATOM     29  C   UNL     1     -31.660  14.878  -0.159  0.00  0.00    +0.160 C 
ATOM     30  H   UNL     1     -33.781  15.124   0.006  0.00  0.00    +0.150 HD
BRANCH  25  31
ATOM     31  O   UNL     1     -29.491  18.687   0.063  0.00  0.00    -0.505 OA
ATOM     32  H   UNL     1     -29.099  19.439   0.460  0.00  0.00    +0.292 HD
ENDBRANCH  25  31
ENDBRANCH  21  25
ENDBRANCH  18  20
ENDBRANCH   1  17
TORSDOF 5
ENDMDL
MODEL 4
REMARK VINA RESULT:      -6.7      5.456     10.467
REMARK  Name = 54738531
REMARK  5 active torsions:
REMARK  status: ('A' for Active; 'I' for Inactive)
REMARK    1  A    between atoms: C_1  and  C_13
REMARK    2  A    between atoms: C_1  and  C_17
REMARK    3  A    between atoms: C_18  and  C_20
REMARK    4  A    between atoms: C_21  and  C_25
REMARK    5  A    between atoms: C_25  and  O_31
REMARK                            x       y       z     vdW  Elec       q    Type
REMARK                         _______ _______ _______ _____ _____    ______ ____
ROOT
ATOM      1  C   UNL     1     -34.480  26.877   2.308  0.00  0.00    +0.049 C 
ATOM      2  C   UNL     1     -33.726  26.603   1.005  0.00  0.00    +0.007 C 
ENDROOT
BRANCH   1  13
ATOM      3  O   UNL     1     -35.767  22.780   2.323  0.00  0.00    -0.343 OA
ATOM      4  O   UNL     1     -37.030  24.662   4.730  0.00  0.00    -0.327 OA
ATOM      5  O   UNL     1     -34.862  25.052   3.771  0.00  0.00    -0.334 OA
ATOM      6  O   UNL     1     -38.764  23.854   1.721  0.00  0.00    -0.291 OA
ATOM      7  C   UNL     1     -35.879  22.807   3.748  0.00  0.00    +0.171 C 
ATOM      8  C   UNL     1     -37.088  22.667   2.862  0.00  0.00    +0.204 C 
ATOM      9  C   UNL     1     -35.726  24.129   4.453  0.00  0.00    +0.213 C 
ATOM     10  C   UNL     1     -37.689  25.059   3.534  0.00  0.00    +0.179 C 
ATOM     11  C   UNL     1     -36.866  26.187   2.897  0.00  0.00    +0.062 C 
ATOM     12  C   UNL     1     -37.935  23.857   2.623  0.00  0.00    +0.207 C 
ATOM     13  C   UNL     1     -35.421  25.719   2.633  0.00  0.00    +0.124 C 
ATOM     14  C   UNL     1     -35.326  21.570   4.367  0.00  0.00    +0.038 C 
ATOM     15  C   UNL     1     -35.073  23.905   5.821  0.00  0.00    +0.064 C 
ATOM     16  C   UNL     1     -37.537  26.770   1.654  0.00  0.00    +0.005 C 
ENDBRANCH   1  13
BRANCH   1  17
ATOM     17  C   UNL     1     -33.494  27.077   3.438  0.00  0.00    -0.028 C 
ATOM     18  C   UNL     1     -32.939  28.225   3.882  0.00  0.00    -0.026 C 
ATOM     19  C   UNL     1     -33.231  29.584   3.302  0.00  0.00    +0.031 C 
BRANCH  18  20
ATOM     20  C   UNL     1     -31.994  28.155   5.002  0.00  0.00    -0.001 C 
ATOM     21  C   UNL     1     -30.713  28.566   4.998  0.00  0.00    +0.037 C 
BRANCH  21  25
ATOM     22  O   UNL     1     -27.835  28.554   8.351  0.00  0.00    -0.289 OA
ATOM     23  O   UNL     1     -29.342  31.031   4.638  0.00  0.00    -0.270 OA
ATOM     24  N   UNL     1     -27.696  31.352   6.293  0.00  0.00    -0.294 N 
ATOM     25  C   UNL     1     -29.800  28.483   6.125  0.00  0.00    +0.141 C 
ATOM     26  C   UNL     1     -28.907  29.446   6.398  0.00  0.00    +0.123 C 
ATOM     27  C   UNL     1     -27.947  29.438   7.521  0.00  0.00    +0.200 C 
ATOM     28  C   UNL     1     -28.723  30.688   5.628  0.00  0.00    +0.252 C 
ATOM     29  C   UNL     1     -27.130  30.701   7.468  0.00  0.00    +0.160 C 
ATOM     30  H   UNL     1     -27.365  32.226   5.983  0.00  0.00    +0.150 HD
BRANCH  25  31
ATOM     31  O   UNL     1     -29.905  27.347   6.904  0.00  0.00    -0.505 OA
ATOM     32  H   UNL     1     -30.095  27.421   7.818  0.00  0.00    +0.292 HD
ENDBRANCH  25  31
ENDBRANCH  21  25
ENDBRANCH  18  20
ENDBRANCH   1  17
TORSDOF 5
ENDMDL
MODEL 5
REMARK VINA RESULT:      -6.7      4.790      8.043
REMARK  Name = 54738531
REMARK  5 active torsions:
REMARK  status: ('A' for Active; 'I' for Inactive)
REMARK    1  A    between atoms: C_1  and  C_13
REMARK    2  A    between atoms: C_1  and  C_17
REMARK    3  A    between atoms: C_18  and  C_20
REMARK    4  A    between atoms: C_21  and  C_25
REMARK    5  A    between atoms: C_25  and  O_31
REMARK                            x       y       z     vdW  Elec       q    Type
REMARK                         _______ _______ _______ _____ _____    ______ ____
ROOT
ATOM      1  C   UNL     1     -38.874  23.981   2.143  0.00  0.00    +0.049 C 
ATOM      2  C   UNL     1     -38.615  23.999   0.635  0.00  0.00    +0.007 C 
ENDROOT
BRANCH   1  13
ATOM      3  O   UNL     1     -36.363  23.734   5.618  0.00  0.00    -0.343 OA
ATOM      4  O   UNL     1     -34.810  23.335   2.727  0.00  0.00    -0.327 OA
ATOM      5  O   UNL     1     -37.104  22.709   3.073  0.00  0.00    -0.334 OA
ATOM      6  O   UNL     1     -34.852  26.396   4.555  0.00  0.00    -0.291 OA
ATOM      7  C   UNL     1     -35.512  22.799   4.952  0.00  0.00    +0.171 C 
ATOM      8  C   UNL     1     -35.037  24.181   5.317  0.00  0.00    +0.204 C 
ATOM      9  C   UNL     1     -35.737  22.544   3.485  0.00  0.00    +0.213 C 
ATOM     10  C   UNL     1     -35.119  24.720   2.819  0.00  0.00    +0.179 C 
ATOM     11  C   UNL     1     -36.507  24.934   2.200  0.00  0.00    +0.062 C 
ATOM     12  C   UNL     1     -34.981  25.214   4.259  0.00  0.00    +0.207 C 
ATOM     13  C   UNL     1     -37.557  24.058   2.912  0.00  0.00    +0.124 C 
ATOM     14  C   UNL     1     -35.123  21.674   5.848  0.00  0.00    +0.038 C 
ATOM     15  C   UNL     1     -35.395  21.085   3.163  0.00  0.00    +0.064 C 
ATOM     16  C   UNL     1     -36.902  26.409   2.146  0.00  0.00    +0.005 C 
ENDBRANCH   1  13
BRANCH   1  17
ATOM     17  C   UNL     1     -39.766  25.143   2.524  0.00  0.00    -0.028 C 
ATOM     18  C   UNL     1     -40.994  25.455   2.057  0.00  0.00    -0.026 C 
ATOM     19  C   UNL     1     -41.734  24.646   1.024  0.00  0.00    +0.031 C 
BRANCH  18  20
ATOM     20  C   UNL     1     -41.658  26.651   2.584  0.00  0.00    -0.001 C 
ATOM     21  C   UNL     1     -42.202  26.795   3.806  0.00  0.00    +0.037 C 
BRANCH  21  25
ATOM     22  O   UNL     1     -44.427  30.326   5.256  0.00  0.00    -0.289 OA
ATOM     23  O   UNL     1     -44.909  26.002   3.449  0.00  0.00    -0.270 OA
ATOM     24  N   UNL     1     -46.400  27.692   4.137  0.00  0.00    -0.294 N 
ATOM     25  C   UNL     1     -42.855  27.995   4.300  0.00  0.00    +0.141 C 
ATOM     26  C   UNL     1     -44.189  28.121   4.339  0.00  0.00    +0.123 C 
ATOM     27  C   UNL     1     -44.930  29.304   4.825  0.00  0.00    +0.200 C 
ATOM     28  C   UNL     1     -45.161  27.102   3.905  0.00  0.00    +0.252 C 
ATOM     29  C   UNL     1     -46.405  29.037   4.699  0.00  0.00    +0.160 C 
ATOM     30  H   UNL     1     -47.239  27.220   3.931  0.00  0.00    +0.150 HD
BRANCH  25  31
ATOM     31  O   UNL     1     -42.017  29.005   4.730  0.00  0.00    -0.505 OA
ATOM     32  H   UNL     1     -42.144  29.394   5.572  0.00  0.00    +0.292 HD
ENDBRANCH  25  31
ENDBRANCH  21  25
ENDBRANCH  18  20
ENDBRANCH   1  17
TORSDOF 5
ENDMDL
MODEL 6
REMARK VINA RESULT:      -6.5      4.435      7.785
REMARK  Name = 54738531
REMARK  5 active torsions:
REMARK  status: ('A' for Active; 'I' for Inactive)
REMARK    1  A    between atoms: C_1  and  C_13
REMARK    2  A    between atoms: C_1  and  C_17
REMARK    3  A    between atoms: C_18  and  C_20
REMARK    4  A    between atoms: C_21  and  C_25
REMARK    5  A    between atoms: C_25  and  O_31
REMARK                            x       y       z     vdW  Elec       q    Type
REMARK                         _______ _______ _______ _____ _____    ______ ____
ROOT
ATOM      1  C   UNL     1     -31.956  27.218   3.356  0.00  0.00    +0.049 C 
ATOM      2  C   UNL     1     -31.071  26.824   2.171  0.00  0.00    +0.007 C 
ENDROOT
BRANCH   1  13
ATOM      3  O   UNL     1     -31.135  31.324   2.403  0.00  0.00    -0.343 OA
ATOM      4  O   UNL     1     -33.109  30.851   5.012  0.00  0.00    -0.327 OA
ATOM      5  O   UNL     1     -33.014  29.330   3.156  0.00  0.00    -0.334 OA
ATOM      6  O   UNL     1     -29.621  31.549   5.259  0.00  0.00    -0.291 OA
ATOM      7  C   UNL     1     -32.425  31.707   2.884  0.00  0.00    +0.171 C 
ATOM      8  C   UNL     1     -31.161  32.132   3.585  0.00  0.00    +0.204 C 
ATOM      9  C   UNL     1     -33.259  30.675   3.596  0.00  0.00    +0.213 C 
ATOM     10  C   UNL     1     -31.800  30.494   5.441  0.00  0.00    +0.179 C 
ATOM     11  C   UNL     1     -31.601  29.001   5.148  0.00  0.00    +0.062 C 
ATOM     12  C   UNL     1     -30.753  31.412   4.810  0.00  0.00    +0.207 C 
ATOM     13  C   UNL     1     -31.820  28.711   3.650  0.00  0.00    +0.124 C 
ATOM     14  C   UNL     1     -33.080  32.692   1.978  0.00  0.00    +0.038 C 
ATOM     15  C   UNL     1     -34.742  30.928   3.304  0.00  0.00    +0.064 C 
ATOM     16  C   UNL     1     -30.262  28.478   5.665  0.00  0.00    +0.005 C 
ENDBRANCH   1  13
BRANCH   1  17
ATOM     17  C   UNL     1     -33.399  26.879   3.053  0.00  0.00    -0.028 C 
ATOM     18  C   UNL     1     -34.349  26.407   3.889  0.00  0.00    -0.026 C 
ATOM     19  C   UNL     1     -34.126  26.132   5.352  0.00  0.00    +0.031 C 
BRANCH  18  20
ATOM     20  C   UNL     1     -35.687  26.146   3.347  0.00  0.00    -0.001 C 
ATOM     21  C   UNL     1     -36.666  25.432   3.933  0.00  0.00    +0.037 C 
BRANCH  21  25
ATOM     22  O   UNL     1     -40.598  24.439   2.179  0.00  0.00    -0.289 OA
ATOM     23  O   UNL     1     -36.376  22.674   3.302  0.00  0.00    -0.270 OA
ATOM     24  N   UNL     1     -38.336  21.804   2.325  0.00  0.00    -0.294 N 
ATOM     25  C   UNL     1     -37.983  25.190   3.370  0.00  0.00    +0.141 C 
ATOM     26  C   UNL     1     -38.355  23.988   2.906  0.00  0.00    +0.123 C 
ATOM     27  C   UNL     1     -39.671  23.660   2.320  0.00  0.00    +0.200 C 
ATOM     28  C   UNL     1     -37.519  22.776   2.896  0.00  0.00    +0.252 C 
ATOM     29  C   UNL     1     -39.678  22.208   1.927  0.00  0.00    +0.160 C 
ATOM     30  H   UNL     1     -38.019  20.880   2.196  0.00  0.00    +0.150 HD
BRANCH  25  31
ATOM     31  O   UNL     1     -38.835  26.277   3.340  0.00  0.00    -0.505 OA
ATOM     32  H   UNL     1     -38.827  26.899   4.040  0.00  0.00    +0.292 HD
ENDBRANCH  25  31
ENDBRANCH  21  25
ENDBRANCH  18  20
ENDBRANCH   1  17
TORSDOF 5
ENDMDL
MODEL 7
REMARK VINA RESULT:      -6.5      2.335      4.800
REMARK  Name = 54738531
REMARK  5 active torsions:
REMARK  status: ('A' for Active; 'I' for Inactive)
REMARK    1  A    between atoms: C_1  and  C_13
REMARK    2  A    between atoms: C_1  and  C_17
REMARK    3  A    between atoms: C_18  and  C_20
REMARK    4  A    between atoms: C_21  and  C_25
REMARK    5  A    between atoms: C_25  and  O_31
REMARK                            x       y       z     vdW  Elec       q    Type
REMARK                         _______ _______ _______ _____ _____    ______ ____
ROOT
ATOM      1  C   UNL     1     -35.432  25.230   4.811  0.00  0.00    +0.049 C 
ATOM      2  C   UNL     1     -34.262  25.333   5.792  0.00  0.00    +0.007 C 
ENDROOT
BRANCH   1  13
ATOM      3  O   UNL     1     -34.769  29.206   3.328  0.00  0.00    -0.343 OA
ATOM      4  O   UNL     1     -34.279  26.783   1.132  0.00  0.00    -0.327 OA
ATOM      5  O   UNL     1     -33.925  26.497   3.491  0.00  0.00    -0.334 OA
ATOM      6  O   UNL     1     -37.261  28.729   1.312  0.00  0.00    -0.291 OA
ATOM      7  C   UNL     1     -33.760  28.720   2.440  0.00  0.00    +0.171 C 
ATOM      8  C   UNL     1     -35.062  29.278   1.929  0.00  0.00    +0.204 C 
ATOM      9  C   UNL     1     -33.582  27.230   2.305  0.00  0.00    +0.213 C 
ATOM     10  C   UNL     1     -35.688  26.880   1.301  0.00  0.00    +0.179 C 
ATOM     11  C   UNL     1     -36.089  25.944   2.450  0.00  0.00    +0.062 C 
ATOM     12  C   UNL     1     -36.114  28.336   1.488  0.00  0.00    +0.207 C 
ATOM     13  C   UNL     1     -35.324  26.311   3.737  0.00  0.00    +0.124 C 
ATOM     14  C   UNL     1     -32.568  29.613   2.421  0.00  0.00    +0.038 C 
ATOM     15  C   UNL     1     -32.104  26.915   2.052  0.00  0.00    +0.064 C 
ATOM     16  C   UNL     1     -37.602  25.885   2.655  0.00  0.00    +0.005 C 
ENDBRANCH   1  13
BRANCH   1  17
ATOM     17  C   UNL     1     -35.444  23.861   4.168  0.00  0.00    -0.028 C 
ATOM     18  C   UNL     1     -35.453  22.648   4.763  0.00  0.00    -0.026 C 
ATOM     19  C   UNL     1     -35.466  22.439   6.254  0.00  0.00    +0.031 C 
BRANCH  18  20
ATOM     20  C   UNL     1     -35.455  21.454   3.911  0.00  0.00    -0.001 C 
ATOM     21  C   UNL     1     -35.493  21.426   2.567  0.00  0.00    +0.037 C 
BRANCH  21  25
ATOM     22  O   UNL     1     -35.749  17.837   0.001  0.00  0.00    -0.289 OA
ATOM     23  O   UNL     1     -38.084  21.675   1.420  0.00  0.00    -0.270 OA
ATOM     24  N   UNL     1     -38.558  19.883  -0.035  0.00  0.00    -0.294 N 
ATOM     25  C   UNL     1     -35.495  20.224   1.750  0.00  0.00    +0.141 C 
ATOM     26  C   UNL     1     -36.541  19.878   0.985  0.00  0.00    +0.123 C 
ATOM     27  C   UNL     1     -36.622  18.677   0.128  0.00  0.00    +0.200 C 
ATOM     28  C   UNL     1     -37.799  20.634   0.859  0.00  0.00    +0.252 C 
ATOM     29  C   UNL     1     -37.960  18.663  -0.560  0.00  0.00    +0.160 C 
ATOM     30  H   UNL     1     -39.463  20.166  -0.301  0.00  0.00    +0.150 HD
BRANCH  25  31
ATOM     31  O   UNL     1     -34.351  19.454   1.808  0.00  0.00    -0.505 OA
ATOM     32  H   UNL     1     -34.372  18.611   2.217  0.00  0.00    +0.292 HD
ENDBRANCH  25  31
ENDBRANCH  21  25
ENDBRANCH  18  20
ENDBRANCH   1  17
TORSDOF 5
ENDMDL
MODEL 8
REMARK VINA RESULT:      -6.4      4.415      9.308
REMARK  Name = 54738531
REMARK  5 active torsions:
REMARK  status: ('A' for Active; 'I' for Inactive)
REMARK    1  A    between atoms: C_1  and  C_13
REMARK    2  A    between atoms: C_1  and  C_17
REMARK    3  A    between atoms: C_18  and  C_20
REMARK    4  A    between atoms: C_21  and  C_25
REMARK    5  A    between atoms: C_25  and  O_31
REMARK                            x       y       z     vdW  Elec       q    Type
REMARK                         _______ _______ _______ _____ _____    ______ ____
ROOT
ATOM      1  C   UNL     1     -36.356  27.029   1.187  0.00  0.00    +0.049 C 
ATOM      2  C   UNL     1     -35.881  26.669  -0.222  0.00  0.00    +0.007 C 
ENDROOT
BRANCH   1  13
ATOM      3  O   UNL     1     -35.352  23.230   2.918  0.00  0.00    -0.343 OA
ATOM      4  O   UNL     1     -37.787  24.870   4.437  0.00  0.00    -0.327 OA
ATOM      5  O   UNL     1     -35.995  25.974   3.279  0.00  0.00    -0.334 OA
ATOM      6  O   UNL     1     -38.323  22.222   2.110  0.00  0.00    -0.291 OA
ATOM      7  C   UNL     1     -35.702  23.714   4.217  0.00  0.00    +0.171 C 
ATOM      8  C   UNL     1     -36.499  22.634   3.532  0.00  0.00    +0.204 C 
ATOM      9  C   UNL     1     -36.369  25.060   4.322  0.00  0.00    +0.213 C 
ATOM     10  C   UNL     1     -38.342  24.380   3.223  0.00  0.00    +0.179 C 
ATOM     11  C   UNL     1     -38.115  25.444   2.140  0.00  0.00    +0.062 C 
ATOM     12  C   UNL     1     -37.779  22.999   2.886  0.00  0.00    +0.207 C 
ATOM     13  C   UNL     1     -36.613  25.764   2.003  0.00  0.00    +0.124 C 
ATOM     14  C   UNL     1     -34.711  23.296   5.246  0.00  0.00    +0.038 C 
ATOM     15  C   UNL     1     -35.938  25.742   5.625  0.00  0.00    +0.064 C 
ATOM     16  C   UNL     1     -38.766  25.071   0.809  0.00  0.00    +0.005 C 
ENDBRANCH   1  13
BRANCH   1  17
ATOM     17  C   UNL     1     -35.316  27.887   1.875  0.00  0.00    -0.028 C 
ATOM     18  C   UNL     1     -35.270  29.232   1.988  0.00  0.00    -0.026 C 
ATOM     19  C   UNL     1     -36.312  30.162   1.427  0.00  0.00    +0.031 C 
BRANCH  18  20
ATOM     20  C   UNL     1     -34.141  29.833   2.704  0.00  0.00    -0.001 C 
ATOM     21  C   UNL     1     -32.936  29.274   2.919  0.00  0.00    +0.037 C 
BRANCH  21  25
ATOM     22  O   UNL     1     -29.625  30.986   5.294  0.00  0.00    -0.289 OA
ATOM     23  O   UNL     1     -32.926  27.624   5.234  0.00  0.00    -0.270 OA
ATOM     24  N   UNL     1     -31.243  28.275   6.750  0.00  0.00    -0.294 N 
ATOM     25  C   UNL     1     -31.835  29.896   3.634  0.00  0.00    +0.141 C 
ATOM     26  C   UNL     1     -31.423  29.462   4.834  0.00  0.00    +0.123 C 
ATOM     27  C   UNL     1     -30.315  30.037   5.625  0.00  0.00    +0.200 C 
ATOM     28  C   UNL     1     -31.999  28.332   5.582  0.00  0.00    +0.252 C 
ATOM     29  C   UNL     1     -30.180  29.259   6.906  0.00  0.00    +0.160 C 
ATOM     30  H   UNL     1     -31.420  27.598   7.443  0.00  0.00    +0.150 HD
BRANCH  25  31
ATOM     31  O   UNL     1     -31.234  30.968   3.003  0.00  0.00    -0.505 OA
ATOM     32  H   UNL     1     -30.982  31.722   3.497  0.00  0.00    +0.292 HD
ENDBRANCH  25  31
ENDBRANCH  21  25
ENDBRANCH  18  20
ENDBRANCH   1  17
TORSDOF 5
ENDMDL
MODEL 9
REMARK VINA RESULT:      -6.4      3.982      6.267
REMARK  Name = 54738531
REMARK  5 active torsions:
REMARK  status: ('A' for Active; 'I' for Inactive)
REMARK    1  A    between atoms: C_1  and  C_13
REMARK    2  A    between atoms: C_1  and  C_17
REMARK    3  A    between atoms: C_18  and  C_20
REMARK    4  A    between atoms: C_21  and  C_25
REMARK    5  A    between atoms: C_25  and  O_31
REMARK                            x       y       z     vdW  Elec       q    Type
REMARK                         _______ _______ _______ _____ _____    ______ ____
ROOT
ATOM      1  C   UNL     1     -34.472  23.815   2.072  0.00  0.00    +0.049 C 
ATOM      2  C   UNL     1     -33.725  24.021   0.752  0.00  0.00    +0.007 C 
ENDROOT
BRANCH   1  13
ATOM      3  O   UNL     1     -32.226  27.079   3.730  0.00  0.00    -0.343 OA
ATOM      4  O   UNL     1     -35.501  27.268   4.144  0.00  0.00    -0.327 OA
ATOM      5  O   UNL     1     -34.485  26.178   2.259  0.00  0.00    -0.334 OA
ATOM      6  O   UNL     1     -33.243  26.123   6.654  0.00  0.00    -0.291 OA
ATOM      7  C   UNL     1     -33.313  27.972   3.475  0.00  0.00    +0.171 C 
ATOM      8  C   UNL     1     -32.891  27.618   4.877  0.00  0.00    +0.204 C 
ATOM      9  C   UNL     1     -34.624  27.392   3.014  0.00  0.00    +0.213 C 
ATOM     10  C   UNL     1     -35.050  26.259   5.039  0.00  0.00    +0.179 C 
ATOM     11  C   UNL     1     -35.084  24.919   4.291  0.00  0.00    +0.062 C 
ATOM     12  C   UNL     1     -33.687  26.624   5.629  0.00  0.00    +0.207 C 
ATOM     13  C   UNL     1     -34.221  24.990   3.015  0.00  0.00    +0.124 C 
ATOM     14  C   UNL     1     -32.839  29.269   2.916  0.00  0.00    +0.038 C 
ATOM     15  C   UNL     1     -35.311  28.378   2.064  0.00  0.00    +0.064 C 
ATOM     16  C   UNL     1     -34.719  23.738   5.190  0.00  0.00    +0.005 C 
ENDBRANCH   1  13
BRANCH   1  17
ATOM     17  C   UNL     1     -35.954  23.672   1.805  0.00  0.00    -0.028 C 
ATOM     18  C   UNL     1     -36.754  22.606   2.027  0.00  0.00    -0.026 C 
ATOM     19  C   UNL     1     -36.282  21.306   2.623  0.00  0.00    +0.031 C 
BRANCH  18  20
ATOM     20  C   UNL     1     -38.172  22.713   1.672  0.00  0.00    -0.001 C 
ATOM     21  C   UNL     1     -38.934  23.820   1.732  0.00  0.00    +0.037 C 
BRANCH  21  25
ATOM     22  O   UNL     1     -43.217  24.294   0.751  0.00  0.00    -0.289 OA
ATOM     23  O   UNL     1     -39.506  26.423   2.724  0.00  0.00    -0.270 OA
ATOM     24  N   UNL     1     -41.759  27.009   2.359  0.00  0.00    -0.294 N 
ATOM     25  C   UNL     1     -40.340  23.894   1.374  0.00  0.00    +0.141 C 
ATOM     26  C   UNL     1     -41.093  24.971   1.642  0.00  0.00    +0.123 C 
ATOM     27  C   UNL     1     -42.525  25.126   1.311  0.00  0.00    +0.200 C 
ATOM     28  C   UNL     1     -40.629  26.197   2.313  0.00  0.00    +0.252 C 
ATOM     29  C   UNL     1     -42.987  26.478   1.782  0.00  0.00    +0.160 C 
ATOM     30  H   UNL     1     -41.730  27.906   2.765  0.00  0.00    +0.150 HD
BRANCH  25  31
ATOM     31  O   UNL     1     -40.860  22.784   0.738  0.00  0.00    -0.505 OA
ATOM     32  H   UNL     1     -40.364  22.349   0.073  0.00  0.00    +0.292 HD
ENDBRANCH  25  31
ENDBRANCH  21  25
ENDBRANCH  18  20
ENDBRANCH   1  17
TORSDOF 5
ENDMDL
