MODEL 1
REMARK VINA RESULT:      -6.5      0.000      0.000
REMARK  Name = 56843421
REMARK  11 active torsions:
REMARK  status: ('A' for Active; 'I' for Inactive)
REMARK    1  A    between atoms: N_3  and  C1*_14
REMARK    2  A    between atoms: C_10  and  C_23
REMARK    3  A    between atoms: C3*_15  and  O3*_18
REMARK    4  A    between atoms: C4*_17  and  C5*_20
REMARK    5  A    between atoms: C5*_20  and  O5*_21
REMARK    6  A    between atoms: C_23  and  C_24
REMARK    7  A    between atoms: C_24  and  C_25
REMARK    8  A    between atoms: C_25  and  C_26
REMARK    9  A    between atoms: C_26  and  C_27
REMARK   10  A    between atoms: C_27  and  C_28
REMARK   11  A    between atoms: C_28  and  C_29
REMARK                            x       y       z     vdW  Elec       q    Type
REMARK                         _______ _______ _______ _____ _____    ______ ____
ROOT
ATOM      1  O   UNL     1     -32.985  26.474   4.976  0.00  0.00    -0.252 OA
ATOM      2  O   UNL     1     -37.002  29.584   1.075  0.00  0.00    -0.275 OA
ATOM      3  N   UNL     1     -34.652  25.749   3.522  0.00  0.00    -0.220 N 
ATOM      4  N   UNL     1     -34.170  28.020   3.779  0.00  0.00    -0.242 N 
ATOM      5  N   UNL     1     -35.892  27.507   2.258  0.00  0.00    -0.220 NA
ATOM      6  N   UNL     1     -35.275  29.683   2.635  0.00  0.00    -0.257 N 
ATOM      7  C   UNL     1     -35.695  26.090   2.559  0.00  0.00    +0.228 C 
ATOM      8  C   UNL     1     -33.871  26.716   4.154  0.00  0.00    +0.313 C 
ATOM      9  C   UNL     1     -35.143  28.352   2.867  0.00  0.00    +0.192 C 
ATOM     10  C   UNL     1     -36.202  30.228   1.748  0.00  0.00    +0.228 C 
ATOM     11  H   UNL     1     -33.653  28.749   4.191  0.00  0.00    +0.159 HD
ATOM     12  H   UNL     1     -34.681  30.300   3.123  0.00  0.00    +0.157 HD
ENDROOT
BRANCH   3  14
ATOM     13  O4* UNL     1     -34.904  24.085   5.153  0.00  0.00    -0.335 OA
ATOM     14  C1* UNL     1     -34.421  24.367   3.830  0.00  0.00    +0.199 C 
ATOM     15  C3* UNL     1     -35.399  22.232   3.777  0.00  0.00    +0.144 C 
ATOM     16  C2* UNL     1     -35.136  23.421   2.883  0.00  0.00    +0.083 C 
ATOM     17  C4* UNL     1     -35.739  22.916   5.092  0.00  0.00    +0.173 C 
BRANCH  15  18
ATOM     18  O3* UNL     1     -36.466  21.446   3.288  0.00  0.00    -0.382 OA
ATOM     19  H3* UNL     1     -37.290  21.713   3.725  0.00  0.00    +0.210 HD
ENDBRANCH  15  18
BRANCH  17  20
ATOM     20  C5* UNL     1     -35.484  22.044   6.309  0.00  0.00    +0.169 C 
BRANCH  20  21
ATOM     21  O5* UNL     1     -35.322  20.703   5.880  0.00  0.00    -0.379 OA
ATOM     22  H5* UNL     1     -36.192  20.308   5.718  0.00  0.00    +0.211 HD
ENDBRANCH  20  21
ENDBRANCH  17  20
ENDBRANCH   3  14
BRANCH  10  23
ATOM     23  C   UNL     1     -36.105  31.743   1.704  0.00  0.00    +0.085 C 
BRANCH  23  24
ATOM     24  C   UNL     1     -37.470  32.418   1.822  0.00  0.00    +0.010 C 
BRANCH  24  25
ATOM     25  C   UNL     1     -37.902  33.029   0.487  0.00  0.00    +0.001 C 
BRANCH  25  26
ATOM     26  C   UNL     1     -37.226  34.368   0.182  0.00  0.00    +0.000 C 
BRANCH  26  27
ATOM     27  C   UNL     1     -37.172  35.312   1.385  0.00  0.00    +0.000 C 
BRANCH  27  28
ATOM     28  C   UNL     1     -38.508  36.034   1.581  0.00  0.00    +0.000 C 
BRANCH  28  29
ATOM     29  C   UNL     1     -39.225  35.645   2.876  0.00  0.00    +0.000 C 
ATOM     30  C   UNL     1     -40.737  35.770   2.795  0.00  0.00    +0.000 C 
ENDBRANCH  28  29
ENDBRANCH  27  28
ENDBRANCH  26  27
ENDBRANCH  25  26
ENDBRANCH  24  25
ENDBRANCH  23  24
ENDBRANCH  10  23
TORSDOF 11
ENDMDL
MODEL 2
REMARK VINA RESULT:      -6.2      1.678      1.923
REMARK  Name = 56843421
REMARK  11 active torsions:
REMARK  status: ('A' for Active; 'I' for Inactive)
REMARK    1  A    between atoms: N_3  and  C1*_14
REMARK    2  A    between atoms: C_10  and  C_23
REMARK    3  A    between atoms: C3*_15  and  O3*_18
REMARK    4  A    between atoms: C4*_17  and  C5*_20
REMARK    5  A    between atoms: C5*_20  and  O5*_21
REMARK    6  A    between atoms: C_23  and  C_24
REMARK    7  A    between atoms: C_24  and  C_25
REMARK    8  A    between atoms: C_25  and  C_26
REMARK    9  A    between atoms: C_26  and  C_27
REMARK   10  A    between atoms: C_27  and  C_28
REMARK   11  A    between atoms: C_28  and  C_29
REMARK                            x       y       z     vdW  Elec       q    Type
REMARK                         _______ _______ _______ _____ _____    ______ ____
ROOT
ATOM      1  O   UNL     1     -31.798  25.543   2.552  0.00  0.00    -0.252 OA
ATOM      2  O   UNL     1     -35.348  30.779   3.552  0.00  0.00    -0.275 OA
ATOM      3  N   UNL     1     -33.938  25.859   3.411  0.00  0.00    -0.220 N 
ATOM      4  N   UNL     1     -32.634  27.665   2.711  0.00  0.00    -0.242 N 
ATOM      5  N   UNL     1     -34.765  28.210   3.547  0.00  0.00    -0.220 NA
ATOM      6  N   UNL     1     -33.347  29.851   2.805  0.00  0.00    -0.257 N 
ATOM      7  C   UNL     1     -35.004  26.786   3.780  0.00  0.00    +0.228 C 
ATOM      8  C   UNL     1     -32.726  26.289   2.871  0.00  0.00    +0.313 C 
ATOM      9  C   UNL     1     -33.634  28.546   3.045  0.00  0.00    +0.192 C 
ATOM     10  C   UNL     1     -34.224  30.900   3.073  0.00  0.00    +0.228 C 
ATOM     11  H   UNL     1     -31.801  28.031   2.334  0.00  0.00    +0.159 HD
ATOM     12  H   UNL     1     -32.467  30.069   2.419  0.00  0.00    +0.157 HD
ENDROOT
BRANCH   3  14
ATOM     13  O4* UNL     1     -34.290  24.188   5.017  0.00  0.00    -0.335 OA
ATOM     14  C1* UNL     1     -34.144  24.454   3.613  0.00  0.00    +0.199 C 
ATOM     15  C3* UNL     1     -35.798  22.802   3.843  0.00  0.00    +0.144 C 
ATOM     16  C2* UNL     1     -35.395  23.934   2.928  0.00  0.00    +0.083 C 
ATOM     17  C4* UNL     1     -35.470  23.389   5.207  0.00  0.00    +0.173 C 
BRANCH  15  18
ATOM     18  O3* UNL     1     -37.170  22.493   3.707  0.00  0.00    -0.382 OA
ATOM     19  H3* UNL     1     -37.683  23.013   4.345  0.00  0.00    +0.210 HD
ENDBRANCH  15  18
BRANCH  17  20
ATOM     20  C5* UNL     1     -35.207  22.338   6.270  0.00  0.00    +0.169 C 
BRANCH  20  21
ATOM     21  O5* UNL     1     -35.373  21.055   5.689  0.00  0.00    -0.379 OA
ATOM     22  H5* UNL     1     -34.592  20.512   5.878  0.00  0.00    +0.211 HD
ENDBRANCH  20  21
ENDBRANCH  17  20
ENDBRANCH   3  14
BRANCH  10  23
ATOM     23  C   UNL     1     -33.619  32.241   2.695  0.00  0.00    +0.085 C 
BRANCH  23  24
ATOM     24  C   UNL     1     -34.505  33.030   1.732  0.00  0.00    +0.010 C 
BRANCH  24  25
ATOM     25  C   UNL     1     -33.931  34.423   1.467  0.00  0.00    +0.001 C 
BRANCH  25  26
ATOM     26  C   UNL     1     -34.999  35.469   1.136  0.00  0.00    +0.000 C 
BRANCH  26  27
ATOM     27  C   UNL     1     -36.423  34.910   1.145  0.00  0.00    +0.000 C 
BRANCH  27  28
ATOM     28  C   UNL     1     -37.459  36.038   1.168  0.00  0.00    +0.000 C 
BRANCH  28  29
ATOM     29  C   UNL     1     -38.889  35.546   1.400  0.00  0.00    +0.000 C 
ATOM     30  C   UNL     1     -39.377  35.746   2.825  0.00  0.00    +0.000 C 
ENDBRANCH  28  29
ENDBRANCH  27  28
ENDBRANCH  26  27
ENDBRANCH  25  26
ENDBRANCH  24  25
ENDBRANCH  23  24
ENDBRANCH  10  23
TORSDOF 11
ENDMDL
MODEL 3
REMARK VINA RESULT:      -6.0      4.860      7.185
REMARK  Name = 56843421
REMARK  11 active torsions:
REMARK  status: ('A' for Active; 'I' for Inactive)
REMARK    1  A    between atoms: N_3  and  C1*_14
REMARK    2  A    between atoms: C_10  and  C_23
REMARK    3  A    between atoms: C3*_15  and  O3*_18
REMARK    4  A    between atoms: C4*_17  and  C5*_20
REMARK    5  A    between atoms: C5*_20  and  O5*_21
REMARK    6  A    between atoms: C_23  and  C_24
REMARK    7  A    between atoms: C_24  and  C_25
REMARK    8  A    between atoms: C_25  and  C_26
REMARK    9  A    between atoms: C_26  and  C_27
REMARK   10  A    between atoms: C_27  and  C_28
REMARK   11  A    between atoms: C_28  and  C_29
REMARK                            x       y       z     vdW  Elec       q    Type
REMARK                         _______ _______ _______ _____ _____    ______ ____
ROOT
ATOM      1  O   UNL     1     -37.037  26.228   2.964  0.00  0.00    -0.252 OA
ATOM      2  O   UNL     1     -31.283  28.123   5.043  0.00  0.00    -0.275 OA
ATOM      3  N   UNL     1     -35.280  25.100   3.992  0.00  0.00    -0.220 N 
ATOM      4  N   UNL     1     -35.144  27.383   3.521  0.00  0.00    -0.242 N 
ATOM      5  N   UNL     1     -33.255  26.442   4.563  0.00  0.00    -0.220 NA
ATOM      6  N   UNL     1     -33.308  28.672   4.031  0.00  0.00    -0.257 N 
ATOM      7  C   UNL     1     -33.935  25.148   4.559  0.00  0.00    +0.228 C 
ATOM      8  C   UNL     1     -35.907  26.225   3.457  0.00  0.00    +0.313 C 
ATOM      9  C   UNL     1     -33.882  27.443   4.061  0.00  0.00    +0.192 C 
ATOM     10  C   UNL     1     -32.034  28.945   4.526  0.00  0.00    +0.228 C 
ATOM     11  H   UNL     1     -35.532  28.212   3.158  0.00  0.00    +0.159 HD
ATOM     12  H   UNL     1     -33.821  29.415   3.637  0.00  0.00    +0.157 HD
ENDROOT
BRANCH   3  14
ATOM     13  O4* UNL     1     -35.635  23.113   2.801  0.00  0.00    -0.335 OA
ATOM     14  C1* UNL     1     -35.982  23.849   3.985  0.00  0.00    +0.199 C 
ATOM     15  C3* UNL     1     -35.815  21.587   4.593  0.00  0.00    +0.144 C 
ATOM     16  C2* UNL     1     -35.640  22.970   5.173  0.00  0.00    +0.083 C 
ATOM     17  C4* UNL     1     -35.264  21.779   3.189  0.00  0.00    +0.173 C 
BRANCH  15  18
ATOM     18  O3* UNL     1     -35.089  20.624   5.329  0.00  0.00    -0.382 OA
ATOM     19  H3* UNL     1     -35.407  19.736   5.099  0.00  0.00    +0.210 HD
ENDBRANCH  15  18
BRANCH  17  20
ATOM     20  C5* UNL     1     -35.814  20.784   2.183  0.00  0.00    +0.169 C 
BRANCH  20  21
ATOM     21  O5* UNL     1     -36.716  19.918   2.849  0.00  0.00    -0.379 OA
ATOM     22  H5* UNL     1     -37.625  20.211   2.687  0.00  0.00    +0.211 HD
ENDBRANCH  20  21
ENDBRANCH  17  20
ENDBRANCH   3  14
BRANCH  10  23
ATOM     23  C   UNL     1     -31.672  30.410   4.353  0.00  0.00    +0.085 C 
BRANCH  23  24
ATOM     24  C   UNL     1     -30.208  30.608   3.968  0.00  0.00    +0.010 C 
BRANCH  24  25
ATOM     25  C   UNL     1     -29.397  31.162   5.141  0.00  0.00    +0.001 C 
BRANCH  25  26
ATOM     26  C   UNL     1     -28.499  30.118   5.809  0.00  0.00    +0.000 C 
BRANCH  26  27
ATOM     27  C   UNL     1     -29.015  29.654   7.174  0.00  0.00    +0.000 C 
BRANCH  27  28
ATOM     28  C   UNL     1     -27.909  28.962   7.976  0.00  0.00    +0.000 C 
BRANCH  28  29
ATOM     29  C   UNL     1     -27.094  27.964   7.150  0.00  0.00    +0.000 C 
ATOM     30  C   UNL     1     -27.686  26.564   7.132  0.00  0.00    +0.000 C 
ENDBRANCH  28  29
ENDBRANCH  27  28
ENDBRANCH  26  27
ENDBRANCH  25  26
ENDBRANCH  24  25
ENDBRANCH  23  24
ENDBRANCH  10  23
TORSDOF 11
ENDMDL
MODEL 4
REMARK VINA RESULT:      -6.0      5.703     10.802
REMARK  Name = 56843421
REMARK  11 active torsions:
REMARK  status: ('A' for Active; 'I' for Inactive)
REMARK    1  A    between atoms: N_3  and  C1*_14
REMARK    2  A    between atoms: C_10  and  C_23
REMARK    3  A    between atoms: C3*_15  and  O3*_18
REMARK    4  A    between atoms: C4*_17  and  C5*_20
REMARK    5  A    between atoms: C5*_20  and  O5*_21
REMARK    6  A    between atoms: C_23  and  C_24
REMARK    7  A    between atoms: C_24  and  C_25
REMARK    8  A    between atoms: C_25  and  C_26
REMARK    9  A    between atoms: C_26  and  C_27
REMARK   10  A    between atoms: C_27  and  C_28
REMARK   11  A    between atoms: C_28  and  C_29
REMARK                            x       y       z     vdW  Elec       q    Type
REMARK                         _______ _______ _______ _____ _____    ______ ____
ROOT
ATOM      1  O   UNL     1     -35.043  20.965   4.877  0.00  0.00    -0.252 OA
ATOM      2  O   UNL     1     -38.015  20.901  -0.796  0.00  0.00    -0.275 OA
ATOM      3  N   UNL     1     -35.604  22.647   3.370  0.00  0.00    -0.220 N 
ATOM      4  N   UNL     1     -36.125  20.412   2.940  0.00  0.00    -0.242 N 
ATOM      5  N   UNL     1     -36.783  21.949   1.284  0.00  0.00    -0.220 NA
ATOM      6  N   UNL     1     -37.217  19.711   1.040  0.00  0.00    -0.257 N 
ATOM      7  C   UNL     1     -36.209  23.022   2.095  0.00  0.00    +0.228 C 
ATOM      8  C   UNL     1     -35.548  21.326   3.812  0.00  0.00    +0.313 C 
ATOM      9  C   UNL     1     -36.706  20.754   1.743  0.00  0.00    +0.192 C 
ATOM     10  C   UNL     1     -37.846  19.843  -0.197  0.00  0.00    +0.228 C 
ATOM     11  H   UNL     1     -36.117  19.461   3.197  0.00  0.00    +0.159 HD
ATOM     12  H   UNL     1     -37.138  18.808   1.426  0.00  0.00    +0.157 HD
ENDROOT
BRANCH   3  14
ATOM     13  O4* UNL     1     -34.438  24.681   3.368  0.00  0.00    -0.335 OA
ATOM     14  C1* UNL     1     -35.044  23.676   4.197  0.00  0.00    +0.199 C 
ATOM     15  C3* UNL     1     -35.495  25.761   5.181  0.00  0.00    +0.144 C 
ATOM     16  C2* UNL     1     -36.081  24.375   5.057  0.00  0.00    +0.083 C 
ATOM     17  C4* UNL     1     -34.920  25.968   3.789  0.00  0.00    +0.173 C 
BRANCH  15  18
ATOM     18  O3* UNL     1     -36.488  26.714   5.500  0.00  0.00    -0.382 OA
ATOM     19  H3* UNL     1     -36.883  26.493   6.358  0.00  0.00    +0.210 HD
ENDBRANCH  15  18
BRANCH  17  20
ATOM     20  C5* UNL     1     -33.784  26.975   3.748  0.00  0.00    +0.169 C 
BRANCH  20  21
ATOM     21  O5* UNL     1     -33.480  27.370   5.075  0.00  0.00    -0.379 OA
ATOM     22  H5* UNL     1     -32.531  27.259   5.236  0.00  0.00    +0.211 HD
ENDBRANCH  20  21
ENDBRANCH  17  20
ENDBRANCH   3  14
BRANCH  10  23
ATOM     23  C   UNL     1     -38.312  18.499  -0.730  0.00  0.00    +0.085 C 
BRANCH  23  24
ATOM     24  C   UNL     1     -37.417  17.349  -0.273  0.00  0.00    +0.010 C 
BRANCH  24  25
ATOM     25  C   UNL     1     -36.158  17.250  -1.136  0.00  0.00    +0.001 C 
BRANCH  25  26
ATOM     26  C   UNL     1     -34.863  17.203  -0.322  0.00  0.00    +0.000 C 
BRANCH  26  27
ATOM     27  C   UNL     1     -34.156  18.558  -0.222  0.00  0.00    +0.000 C 
BRANCH  27  28
ATOM     28  C   UNL     1     -33.505  18.740   1.152  0.00  0.00    +0.000 C 
BRANCH  28  29
ATOM     29  C   UNL     1     -32.120  18.097   1.257  0.00  0.00    +0.000 C 
ATOM     30  C   UNL     1     -31.058  18.801   0.429  0.00  0.00    +0.000 C 
ENDBRANCH  28  29
ENDBRANCH  27  28
ENDBRANCH  26  27
ENDBRANCH  25  26
ENDBRANCH  24  25
ENDBRANCH  23  24
ENDBRANCH  10  23
TORSDOF 11
ENDMDL
MODEL 5
REMARK VINA RESULT:      -6.0      5.134      6.948
REMARK  Name = 56843421
REMARK  11 active torsions:
REMARK  status: ('A' for Active; 'I' for Inactive)
REMARK    1  A    between atoms: N_3  and  C1*_14
REMARK    2  A    between atoms: C_10  and  C_23
REMARK    3  A    between atoms: C3*_15  and  O3*_18
REMARK    4  A    between atoms: C4*_17  and  C5*_20
REMARK    5  A    between atoms: C5*_20  and  O5*_21
REMARK    6  A    between atoms: C_23  and  C_24
REMARK    7  A    between atoms: C_24  and  C_25
REMARK    8  A    between atoms: C_25  and  C_26
REMARK    9  A    between atoms: C_26  and  C_27
REMARK   10  A    between atoms: C_27  and  C_28
REMARK   11  A    between atoms: C_28  and  C_29
REMARK                            x       y       z     vdW  Elec       q    Type
REMARK                         _______ _______ _______ _____ _____    ______ ____
ROOT
ATOM      1  O   UNL     1     -34.951  26.750   1.236  0.00  0.00    -0.252 OA
ATOM      2  O   UNL     1     -32.258  26.983   7.043  0.00  0.00    -0.275 OA
ATOM      3  N   UNL     1     -34.705  25.170   2.926  0.00  0.00    -0.220 N 
ATOM      4  N   UNL     1     -33.882  27.342   3.169  0.00  0.00    -0.242 N 
ATOM      5  N   UNL     1     -33.526  25.906   4.999  0.00  0.00    -0.220 NA
ATOM      6  N   UNL     1     -32.795  28.078   5.058  0.00  0.00    -0.257 N 
ATOM      7  C   UNL     1     -34.201  24.842   4.258  0.00  0.00    +0.228 C 
ATOM      8  C   UNL     1     -34.548  26.433   2.357  0.00  0.00    +0.313 C 
ATOM      9  C   UNL     1     -33.413  27.048   4.426  0.00  0.00    +0.192 C 
ATOM     10  C   UNL     1     -32.249  27.988   6.338  0.00  0.00    +0.228 C 
ATOM     11  H   UNL     1     -33.740  28.252   2.822  0.00  0.00    +0.159 HD
ATOM     12  H   UNL     1     -32.728  28.940   4.585  0.00  0.00    +0.157 HD
ENDROOT
BRANCH   3  14
ATOM     13  O4* UNL     1     -34.854  22.866   2.524  0.00  0.00    -0.335 OA
ATOM     14  C1* UNL     1     -35.386  24.154   2.177  0.00  0.00    +0.199 C 
ATOM     15  C3* UNL     1     -37.187  22.649   2.241  0.00  0.00    +0.144 C 
ATOM     16  C2* UNL     1     -36.877  24.111   2.456  0.00  0.00    +0.083 C 
ATOM     17  C4* UNL     1     -35.952  21.990   2.834  0.00  0.00    +0.173 C 
BRANCH  15  18
ATOM     18  O3* UNL     1     -38.373  22.270   2.911  0.00  0.00    -0.382 OA
ATOM     19  H3* UNL     1     -38.440  22.757   3.747  0.00  0.00    +0.210 HD
ENDBRANCH  15  18
BRANCH  17  20
ATOM     20  C5* UNL     1     -35.675  20.608   2.271  0.00  0.00    +0.169 C 
BRANCH  20  21
ATOM     21  O5* UNL     1     -36.762  19.759   2.599  0.00  0.00    -0.379 OA
ATOM     22  H5* UNL     1     -36.437  19.000   3.107  0.00  0.00    +0.211 HD
ENDBRANCH  20  21
ENDBRANCH  17  20
ENDBRANCH   3  14
BRANCH  10  23
ATOM     23  C   UNL     1     -31.630  29.305   6.772  0.00  0.00    +0.085 C 
BRANCH  23  24
ATOM     24  C   UNL     1     -31.781  30.397   5.714  0.00  0.00    +0.010 C 
BRANCH  24  25
ATOM     25  C   UNL     1     -30.417  30.878   5.216  0.00  0.00    +0.001 C 
BRANCH  25  26
ATOM     26  C   UNL     1     -29.691  29.853   4.342  0.00  0.00    +0.000 C 
BRANCH  26  27
ATOM     27  C   UNL     1     -28.367  29.371   4.940  0.00  0.00    +0.000 C 
BRANCH  27  28
ATOM     28  C   UNL     1     -28.428  27.880   5.285  0.00  0.00    +0.000 C 
BRANCH  28  29
ATOM     29  C   UNL     1     -28.399  27.603   6.789  0.00  0.00    +0.000 C 
ATOM     30  C   UNL     1     -28.077  28.829   7.628  0.00  0.00    +0.000 C 
ENDBRANCH  28  29
ENDBRANCH  27  28
ENDBRANCH  26  27
ENDBRANCH  25  26
ENDBRANCH  24  25
ENDBRANCH  23  24
ENDBRANCH  10  23
TORSDOF 11
ENDMDL
MODEL 6
REMARK VINA RESULT:      -6.0      3.373      5.040
REMARK  Name = 56843421
REMARK  11 active torsions:
REMARK  status: ('A' for Active; 'I' for Inactive)
REMARK    1  A    between atoms: N_3  and  C1*_14
REMARK    2  A    between atoms: C_10  and  C_23
REMARK    3  A    between atoms: C3*_15  and  O3*_18
REMARK    4  A    between atoms: C4*_17  and  C5*_20
REMARK    5  A    between atoms: C5*_20  and  O5*_21
REMARK    6  A    between atoms: C_23  and  C_24
REMARK    7  A    between atoms: C_24  and  C_25
REMARK    8  A    between atoms: C_25  and  C_26
REMARK    9  A    between atoms: C_26  and  C_27
REMARK   10  A    between atoms: C_27  and  C_28
REMARK   11  A    between atoms: C_28  and  C_29
REMARK                            x       y       z     vdW  Elec       q    Type
REMARK                         _______ _______ _______ _____ _____    ______ ____
ROOT
ATOM      1  O   UNL     1     -34.909  26.764   1.225  0.00  0.00    -0.252 OA
ATOM      2  O   UNL     1     -32.146  27.081   6.995  0.00  0.00    -0.275 OA
ATOM      3  N   UNL     1     -34.645  25.209   2.936  0.00  0.00    -0.220 N 
ATOM      4  N   UNL     1     -33.817  27.383   3.136  0.00  0.00    -0.242 N 
ATOM      5  N   UNL     1     -33.440  25.975   4.984  0.00  0.00    -0.220 NA
ATOM      6  N   UNL     1     -32.705  28.147   5.000  0.00  0.00    -0.257 N 
ATOM      7  C   UNL     1     -34.126  24.901   4.266  0.00  0.00    +0.228 C 
ATOM      8  C   UNL     1     -34.493  26.463   2.345  0.00  0.00    +0.313 C 
ATOM      9  C   UNL     1     -33.333  27.108   4.392  0.00  0.00    +0.192 C 
ATOM     10  C   UNL     1     -32.144  28.075   6.274  0.00  0.00    +0.228 C 
ATOM     11  H   UNL     1     -33.677  28.288   2.773  0.00  0.00    +0.159 HD
ATOM     12  H   UNL     1     -32.643  29.001   4.513  0.00  0.00    +0.157 HD
ENDROOT
BRANCH   3  14
ATOM     13  O4* UNL     1     -34.815  22.898   2.585  0.00  0.00    -0.335 OA
ATOM     14  C1* UNL     1     -35.336  24.183   2.211  0.00  0.00    +0.199 C 
ATOM     15  C3* UNL     1     -37.150  22.694   2.311  0.00  0.00    +0.144 C 
ATOM     16  C2* UNL     1     -36.827  24.158   2.494  0.00  0.00    +0.083 C 
ATOM     17  C4* UNL     1     -35.919  22.039   2.916  0.00  0.00    +0.173 C 
BRANCH  15  18
ATOM     18  O3* UNL     1     -38.337  22.340   2.992  0.00  0.00    -0.382 OA
ATOM     19  H3* UNL     1     -38.217  21.479   3.423  0.00  0.00    +0.210 HD
ENDBRANCH  15  18
BRANCH  17  20
ATOM     20  C5* UNL     1     -35.655  20.642   2.383  0.00  0.00    +0.169 C 
BRANCH  20  21
ATOM     21  O5* UNL     1     -36.792  19.836   2.639  0.00  0.00    -0.379 OA
ATOM     22  H5* UNL     1     -36.662  18.959   2.247  0.00  0.00    +0.211 HD
ENDBRANCH  20  21
ENDBRANCH  17  20
ENDBRANCH   3  14
BRANCH  10  23
ATOM     23  C   UNL     1     -31.518  29.398   6.681  0.00  0.00    +0.085 C 
BRANCH  23  24
ATOM     24  C   UNL     1     -32.071  30.575   5.879  0.00  0.00    +0.010 C 
BRANCH  24  25
ATOM     25  C   UNL     1     -30.974  31.242   5.047  0.00  0.00    +0.001 C 
BRANCH  25  26
ATOM     26  C   UNL     1     -31.482  31.835   3.730  0.00  0.00    +0.000 C 
BRANCH  26  27
ATOM     27  C   UNL     1     -31.783  30.779   2.663  0.00  0.00    +0.000 C 
BRANCH  27  28
ATOM     28  C   UNL     1     -33.000  31.176   1.822  0.00  0.00    +0.000 C 
BRANCH  28  29
ATOM     29  C   UNL     1     -34.112  31.837   2.639  0.00  0.00    +0.000 C 
ATOM     30  C   UNL     1     -35.176  30.863   3.119  0.00  0.00    +0.000 C 
ENDBRANCH  28  29
ENDBRANCH  27  28
ENDBRANCH  26  27
ENDBRANCH  25  26
ENDBRANCH  24  25
ENDBRANCH  23  24
ENDBRANCH  10  23
TORSDOF 11
ENDMDL
MODEL 7
REMARK VINA RESULT:      -5.9      2.272      4.088
REMARK  Name = 56843421
REMARK  11 active torsions:
REMARK  status: ('A' for Active; 'I' for Inactive)
REMARK    1  A    between atoms: N_3  and  C1*_14
REMARK    2  A    between atoms: C_10  and  C_23
REMARK    3  A    between atoms: C3*_15  and  O3*_18
REMARK    4  A    between atoms: C4*_17  and  C5*_20
REMARK    5  A    between atoms: C5*_20  and  O5*_21
REMARK    6  A    between atoms: C_23  and  C_24
REMARK    7  A    between atoms: C_24  and  C_25
REMARK    8  A    between atoms: C_25  and  C_26
REMARK    9  A    between atoms: C_26  and  C_27
REMARK   10  A    between atoms: C_27  and  C_28
REMARK   11  A    between atoms: C_28  and  C_29
REMARK                            x       y       z     vdW  Elec       q    Type
REMARK                         _______ _______ _______ _____ _____    ______ ____
ROOT
ATOM      1  O   UNL     1     -32.972  26.256   5.169  0.00  0.00    -0.252 OA
ATOM      2  O   UNL     1     -36.724  29.681   1.268  0.00  0.00    -0.275 OA
ATOM      3  N   UNL     1     -34.599  25.657   3.616  0.00  0.00    -0.220 N 
ATOM      4  N   UNL     1     -34.058  27.896   4.003  0.00  0.00    -0.242 N 
ATOM      5  N   UNL     1     -35.730  27.515   2.391  0.00  0.00    -0.220 NA
ATOM      6  N   UNL     1     -35.061  29.648   2.899  0.00  0.00    -0.257 N 
ATOM      7  C   UNL     1     -35.590  26.079   2.630  0.00  0.00    +0.228 C 
ATOM      8  C   UNL     1     -33.815  26.567   4.326  0.00  0.00    +0.313 C 
ATOM      9  C   UNL     1     -34.981  28.304   3.070  0.00  0.00    +0.192 C 
ATOM     10  C   UNL     1     -35.932  30.265   2.003  0.00  0.00    +0.228 C 
ATOM     11  H   UNL     1     -33.535  28.587   4.471  0.00  0.00    +0.159 HD
ATOM     12  H   UNL     1     -34.469  30.221   3.440  0.00  0.00    +0.157 HD
ENDROOT
BRANCH   3  14
ATOM     13  O4* UNL     1     -34.850  23.951   5.203  0.00  0.00    -0.335 OA
ATOM     14  C1* UNL     1     -34.425  24.256   3.865  0.00  0.00    +0.199 C 
ATOM     15  C3* UNL     1     -35.514  22.176   3.795  0.00  0.00    +0.144 C 
ATOM     16  C2* UNL     1     -35.239  23.382   2.928  0.00  0.00    +0.083 C 
ATOM     17  C4* UNL     1     -35.746  22.828   5.149  0.00  0.00    +0.173 C 
BRANCH  15  18
ATOM     18  O3* UNL     1     -36.646  21.463   3.341  0.00  0.00    -0.382 OA
ATOM     19  H3* UNL     1     -36.469  21.106   2.457  0.00  0.00    +0.210 HD
ENDBRANCH  15  18
BRANCH  17  20
ATOM     20  C5* UNL     1     -35.472  21.902   6.320  0.00  0.00    +0.169 C 
BRANCH  20  21
ATOM     21  O5* UNL     1     -35.326  20.581   5.829  0.00  0.00    -0.379 OA
ATOM     22  H5* UNL     1     -34.390  20.331   5.847  0.00  0.00    +0.211 HD
ENDBRANCH  20  21
ENDBRANCH  17  20
ENDBRANCH   3  14
BRANCH  10  23
ATOM     23  C   UNL     1     -35.787  31.777   2.038  0.00  0.00    +0.085 C 
BRANCH  23  24
ATOM     24  C   UNL     1     -34.515  32.256   1.340  0.00  0.00    +0.010 C 
BRANCH  24  25
ATOM     25  C   UNL     1     -33.505  32.808   2.347  0.00  0.00    +0.001 C 
BRANCH  25  26
ATOM     26  C   UNL     1     -32.218  31.983   2.435  0.00  0.00    +0.000 C 
BRANCH  26  27
ATOM     27  C   UNL     1     -31.611  31.949   3.840  0.00  0.00    +0.000 C 
BRANCH  27  28
ATOM     28  C   UNL     1     -32.314  30.911   4.720  0.00  0.00    +0.000 C 
BRANCH  28  29
ATOM     29  C   UNL     1     -31.508  30.523   5.962  0.00  0.00    +0.000 C 
ATOM     30  C   UNL     1     -31.127  29.052   6.004  0.00  0.00    +0.000 C 
ENDBRANCH  28  29
ENDBRANCH  27  28
ENDBRANCH  26  27
ENDBRANCH  25  26
ENDBRANCH  24  25
ENDBRANCH  23  24
ENDBRANCH  10  23
TORSDOF 11
ENDMDL
MODEL 8
REMARK VINA RESULT:      -5.9      2.740      4.328
REMARK  Name = 56843421
REMARK  11 active torsions:
REMARK  status: ('A' for Active; 'I' for Inactive)
REMARK    1  A    between atoms: N_3  and  C1*_14
REMARK    2  A    between atoms: C_10  and  C_23
REMARK    3  A    between atoms: C3*_15  and  O3*_18
REMARK    4  A    between atoms: C4*_17  and  C5*_20
REMARK    5  A    between atoms: C5*_20  and  O5*_21
REMARK    6  A    between atoms: C_23  and  C_24
REMARK    7  A    between atoms: C_24  and  C_25
REMARK    8  A    between atoms: C_25  and  C_26
REMARK    9  A    between atoms: C_26  and  C_27
REMARK   10  A    between atoms: C_27  and  C_28
REMARK   11  A    between atoms: C_28  and  C_29
REMARK                            x       y       z     vdW  Elec       q    Type
REMARK                         _______ _______ _______ _____ _____    ______ ____
ROOT
ATOM      1  O   UNL     1     -36.788  26.339   2.970  0.00  0.00    -0.252 OA
ATOM      2  O   UNL     1     -31.259  28.134   5.659  0.00  0.00    -0.275 OA
ATOM      3  N   UNL     1     -35.231  25.211   4.281  0.00  0.00    -0.220 N 
ATOM      4  N   UNL     1     -34.929  27.452   3.698  0.00  0.00    -0.242 N 
ATOM      5  N   UNL     1     -33.233  26.506   5.029  0.00  0.00    -0.220 NA
ATOM      6  N   UNL     1     -33.112  28.697   4.363  0.00  0.00    -0.257 N 
ATOM      7  C   UNL     1     -33.968  25.242   5.013  0.00  0.00    +0.228 C 
ATOM      8  C   UNL     1     -35.732  26.322   3.604  0.00  0.00    +0.313 C 
ATOM      9  C   UNL     1     -33.743  27.496   4.391  0.00  0.00    +0.192 C 
ATOM     10  C   UNL     1     -31.899  28.951   5.002  0.00  0.00    +0.228 C 
ATOM     11  H   UNL     1     -35.228  28.270   3.240  0.00  0.00    +0.159 HD
ATOM     12  H   UNL     1     -33.536  29.432   3.863  0.00  0.00    +0.157 HD
ENDROOT
BRANCH   3  14
ATOM     13  O4* UNL     1     -35.806  23.342   2.988  0.00  0.00    -0.335 OA
ATOM     14  C1* UNL     1     -35.985  23.991   4.258  0.00  0.00    +0.199 C 
ATOM     15  C3* UNL     1     -35.854  21.681   4.665  0.00  0.00    +0.144 C 
ATOM     16  C2* UNL     1     -35.552  23.005   5.327  0.00  0.00    +0.083 C 
ATOM     17  C4* UNL     1     -35.454  21.969   3.226  0.00  0.00    +0.173 C 
BRANCH  15  18
ATOM     18  O3* UNL     1     -35.094  20.635   5.235  0.00  0.00    -0.382 OA
ATOM     19  H3* UNL     1     -35.686  20.023   5.699  0.00  0.00    +0.210 HD
ENDBRANCH  15  18
BRANCH  17  20
ATOM     20  C5* UNL     1     -36.157  21.081   2.215  0.00  0.00    +0.169 C 
BRANCH  20  21
ATOM     21  O5* UNL     1     -36.592  19.903   2.872  0.00  0.00    -0.379 OA
ATOM     22  H5* UNL     1     -36.335  19.128   2.349  0.00  0.00    +0.211 HD
ENDBRANCH  20  21
ENDBRANCH  17  20
ENDBRANCH   3  14
BRANCH  10  23
ATOM     23  C   UNL     1     -31.450  30.387   4.790  0.00  0.00    +0.085 C 
BRANCH  23  24
ATOM     24  C   UNL     1     -31.577  30.829   3.334  0.00  0.00    +0.010 C 
BRANCH  24  25
ATOM     25  C   UNL     1     -31.518  32.352   3.211  0.00  0.00    +0.001 C 
BRANCH  25  26
ATOM     26  C   UNL     1     -32.175  32.887   1.936  0.00  0.00    +0.000 C 
BRANCH  26  27
ATOM     27  C   UNL     1     -33.422  33.735   2.202  0.00  0.00    +0.000 C 
BRANCH  27  28
ATOM     28  C   UNL     1     -34.656  33.128   1.531  0.00  0.00    +0.000 C 
BRANCH  28  29
ATOM     29  C   UNL     1     -34.692  31.599   1.595  0.00  0.00    +0.000 C 
ATOM     30  C   UNL     1     -35.580  31.058   2.704  0.00  0.00    +0.000 C 
ENDBRANCH  28  29
ENDBRANCH  27  28
ENDBRANCH  26  27
ENDBRANCH  25  26
ENDBRANCH  24  25
ENDBRANCH  23  24
ENDBRANCH  10  23
TORSDOF 11
ENDMDL
MODEL 9
REMARK VINA RESULT:      -5.9      2.267      3.806
REMARK  Name = 56843421
REMARK  11 active torsions:
REMARK  status: ('A' for Active; 'I' for Inactive)
REMARK    1  A    between atoms: N_3  and  C1*_14
REMARK    2  A    between atoms: C_10  and  C_23
REMARK    3  A    between atoms: C3*_15  and  O3*_18
REMARK    4  A    between atoms: C4*_17  and  C5*_20
REMARK    5  A    between atoms: C5*_20  and  O5*_21
REMARK    6  A    between atoms: C_23  and  C_24
REMARK    7  A    between atoms: C_24  and  C_25
REMARK    8  A    between atoms: C_25  and  C_26
REMARK    9  A    between atoms: C_26  and  C_27
REMARK   10  A    between atoms: C_27  and  C_28
REMARK   11  A    between atoms: C_28  and  C_29
REMARK                            x       y       z     vdW  Elec       q    Type
REMARK                         _______ _______ _______ _____ _____    ______ ____
ROOT
ATOM      1  O   UNL     1     -37.177  26.246   3.377  0.00  0.00    -0.252 OA
ATOM      2  O   UNL     1     -31.174  28.050   4.693  0.00  0.00    -0.275 OA
ATOM      3  N   UNL     1     -35.277  25.063   4.013  0.00  0.00    -0.220 N 
ATOM      4  N   UNL     1     -35.225  27.381   3.733  0.00  0.00    -0.242 N 
ATOM      5  N   UNL     1     -33.192  26.385   4.379  0.00  0.00    -0.220 NA
ATOM      6  N   UNL     1     -33.335  28.652   4.063  0.00  0.00    -0.257 N 
ATOM      7  C   UNL     1     -33.860  25.084   4.365  0.00  0.00    +0.228 C 
ATOM      8  C   UNL     1     -35.984  26.219   3.685  0.00  0.00    +0.313 C 
ATOM      9  C   UNL     1     -33.893  27.414   4.072  0.00  0.00    +0.192 C 
ATOM     10  C   UNL     1     -32.000  28.902   4.376  0.00  0.00    +0.228 C 
ATOM     11  H   UNL     1     -35.668  28.232   3.511  0.00  0.00    +0.159 HD
ATOM     12  H   UNL     1     -33.906  29.417   3.822  0.00  0.00    +0.157 HD
ENDROOT
BRANCH   3  14
ATOM     13  O4* UNL     1     -35.583  23.057   2.839  0.00  0.00    -0.335 OA
ATOM     14  C1* UNL     1     -35.967  23.805   4.004  0.00  0.00    +0.199 C 
ATOM     15  C3* UNL     1     -35.795  21.553   4.645  0.00  0.00    +0.144 C 
ATOM     16  C2* UNL     1     -35.648  22.944   5.212  0.00  0.00    +0.083 C 
ATOM     17  C4* UNL     1     -35.209  21.732   3.253  0.00  0.00    +0.173 C 
BRANCH  15  18
ATOM     18  O3* UNL     1     -35.080  20.605   5.411  0.00  0.00    -0.382 OA
ATOM     19  H3* UNL     1     -34.419  21.063   5.954  0.00  0.00    +0.210 HD
ENDBRANCH  15  18
BRANCH  17  20
ATOM     20  C5* UNL     1     -35.724  20.720   2.246  0.00  0.00    +0.169 C 
BRANCH  20  21
ATOM     21  O5* UNL     1     -36.672  19.884   2.887  0.00  0.00    -0.379 OA
ATOM     22  H5* UNL     1     -36.436  18.955   2.740  0.00  0.00    +0.211 HD
ENDBRANCH  20  21
ENDBRANCH  17  20
ENDBRANCH   3  14
BRANCH  10  23
ATOM     23  C   UNL     1     -31.675  30.383   4.280  0.00  0.00    +0.085 C 
BRANCH  23  24
ATOM     24  C   UNL     1     -32.020  30.968   2.912  0.00  0.00    +0.010 C 
BRANCH  24  25
ATOM     25  C   UNL     1     -33.232  31.897   2.996  0.00  0.00    +0.001 C 
BRANCH  25  26
ATOM     26  C   UNL     1     -33.332  32.878   1.825  0.00  0.00    +0.000 C 
BRANCH  26  27
ATOM     27  C   UNL     1     -33.241  34.346   2.250  0.00  0.00    +0.000 C 
BRANCH  27  28
ATOM     28  C   UNL     1     -34.252  35.205   1.486  0.00  0.00    +0.000 C 
BRANCH  28  29
ATOM     29  C   UNL     1     -35.546  34.462   1.145  0.00  0.00    +0.000 C 
ATOM     30  C   UNL     1     -36.780  35.349   1.169  0.00  0.00    +0.000 C 
ENDBRANCH  28  29
ENDBRANCH  27  28
ENDBRANCH  26  27
ENDBRANCH  25  26
ENDBRANCH  24  25
ENDBRANCH  23  24
ENDBRANCH  10  23
TORSDOF 11
ENDMDL
