MODEL 1
REMARK VINA RESULT:      -6.2      0.000      0.000
REMARK  Name = 5464461
REMARK  7 active torsions:
REMARK  status: ('A' for Active; 'I' for Inactive)
REMARK    1  A    between atoms: C_5  and  C_12
REMARK    2  A    between atoms: C_6  and  O_22
REMARK    3  A    between atoms: C_8  and  O_26
REMARK    4  A    between atoms: C_10  and  O_24
REMARK    5  A    between atoms: C_11  and  O_28
REMARK    6  A    between atoms: C_15  and  O_18
REMARK    7  A    between atoms: C_17  and  O_20
REMARK                            x       y       z     vdW  Elec       q    Type
REMARK                         _______ _______ _______ _____ _____    ______ ____
ROOT
ATOM      1  O   UNL     1     -35.039  26.280   3.263  0.00  0.00    -0.450 OA
ATOM      2  O   UNL     1     -38.383  27.172   1.111  0.00  0.00    -0.283 OA
ATOM      3  C   UNL     1     -36.264  27.859   1.885  0.00  0.00    +0.113 A 
ATOM      4  C   UNL     1     -35.149  27.494   2.637  0.00  0.00    +0.155 A 
ATOM      5  C   UNL     1     -36.078  25.372   3.132  0.00  0.00    +0.182 A 
ATOM      6  C   UNL     1     -37.211  25.603   2.442  0.00  0.00    +0.212 A 
ATOM      7  C   UNL     1     -37.375  26.905   1.752  0.00  0.00    +0.238 A 
ATOM      8  C   UNL     1     -36.321  29.112   1.269  0.00  0.00    +0.177 C 
ATOM      9  C   UNL     1     -34.082  28.383   2.778  0.00  0.00    +0.078 C 
ATOM     10  C   UNL     1     -35.252  29.998   1.412  0.00  0.00    +0.206 C 
ATOM     11  C   UNL     1     -34.135  29.634   2.165  0.00  0.00    +0.174 C 
ENDROOT
BRANCH   5  12
ATOM     12  C   UNL     1     -35.834  24.110   3.853  0.00  0.00    +0.041 C 
ATOM     13  C   UNL     1     -35.683  22.919   3.144  0.00  0.00    +0.043 C 
ATOM     14  C   UNL     1     -35.754  24.108   5.246  0.00  0.00    +0.006 C 
ATOM     15  C   UNL     1     -35.452  21.724   3.828  0.00  0.00    +0.172 C 
ATOM     16  C   UNL     1     -35.522  22.914   5.930  0.00  0.00    +0.040 C 
ATOM     17  C   UNL     1     -35.372  21.723   5.220  0.00  0.00    +0.168 C 
BRANCH  15  18
ATOM     18  O   UNL     1     -35.306  20.568   3.124  0.00  0.00    -0.468 OA
ATOM     19  C   UNL     1     -36.300  20.294   2.144  0.00  0.00    +0.253 C 
ENDBRANCH  15  18
BRANCH  17  20
ATOM     20  O   UNL     1     -35.146  20.563   5.899  0.00  0.00    -0.503 OA
ATOM     21  H   UNL     1     -34.370  20.065   5.731  0.00  0.00    +0.292 HD
ENDBRANCH  17  20
ENDBRANCH   5  12
BRANCH   6  22
ATOM     22  O   UNL     1     -38.240  24.690   2.359  0.00  0.00    -0.465 OA
ATOM     23  C   UNL     1     -39.229  24.956   3.336  0.00  0.00    +0.253 C 
ENDBRANCH   6  22
BRANCH  10  24
ATOM     24  O   UNL     1     -35.297  31.225   0.817  0.00  0.00    -0.465 OA
ATOM     25  C   UNL     1     -35.858  32.280   1.588  0.00  0.00    +0.253 C 
ENDBRANCH  10  24
BRANCH   8  26
ATOM     26  O   UNL     1     -37.394  29.505   0.526  0.00  0.00    -0.503 OA
ATOM     27  H   UNL     1     -38.232  29.111   0.668  0.00  0.00    +0.292 HD
ENDBRANCH   8  26
BRANCH  11  28
ATOM     28  O   UNL     1     -33.089  30.494   2.310  0.00  0.00    -0.503 OA
ATOM     29  H   UNL     1     -32.720  30.915   1.557  0.00  0.00    +0.292 HD
ENDBRANCH  11  28
TORSDOF 7
ENDMDL
MODEL 2
REMARK VINA RESULT:      -6.1      3.687      7.265
REMARK  Name = 5464461
REMARK  7 active torsions:
REMARK  status: ('A' for Active; 'I' for Inactive)
REMARK    1  A    between atoms: C_5  and  C_12
REMARK    2  A    between atoms: C_6  and  O_22
REMARK    3  A    between atoms: C_8  and  O_26
REMARK    4  A    between atoms: C_10  and  O_24
REMARK    5  A    between atoms: C_11  and  O_28
REMARK    6  A    between atoms: C_15  and  O_18
REMARK    7  A    between atoms: C_17  and  O_20
REMARK                            x       y       z     vdW  Elec       q    Type
REMARK                         _______ _______ _______ _____ _____    ______ ____
ROOT
ATOM      1  O   UNL     1     -32.992  26.707   5.294  0.00  0.00    -0.450 OA
ATOM      2  O   UNL     1     -35.296  28.498   2.450  0.00  0.00    -0.283 OA
ATOM      3  C   UNL     1     -35.018  26.706   3.957  0.00  0.00    +0.113 A 
ATOM      4  C   UNL     1     -34.184  26.142   4.920  0.00  0.00    +0.155 A 
ATOM      5  C   UNL     1     -32.606  27.895   4.694  0.00  0.00    +0.182 A 
ATOM      6  C   UNL     1     -33.315  28.537   3.746  0.00  0.00    +0.212 A 
ATOM      7  C   UNL     1     -34.609  27.960   3.308  0.00  0.00    +0.238 A 
ATOM      8  C   UNL     1     -36.223  26.085   3.616  0.00  0.00    +0.177 C 
ATOM      9  C   UNL     1     -34.549  24.951   5.549  0.00  0.00    +0.078 C 
ATOM     10  C   UNL     1     -36.585  24.894   4.247  0.00  0.00    +0.206 C 
ATOM     11  C   UNL     1     -35.751  24.329   5.211  0.00  0.00    +0.174 C 
ENDROOT
BRANCH   5  12
ATOM     12  C   UNL     1     -31.308  28.392   5.183  0.00  0.00    +0.041 C 
ATOM     13  C   UNL     1     -30.148  28.161   4.444  0.00  0.00    +0.043 C 
ATOM     14  C   UNL     1     -31.239  29.095   6.387  0.00  0.00    +0.006 C 
ATOM     15  C   UNL     1     -28.919  28.631   4.908  0.00  0.00    +0.172 C 
ATOM     16  C   UNL     1     -30.011  29.567   6.850  0.00  0.00    +0.040 C 
ATOM     17  C   UNL     1     -28.851  29.334   6.111  0.00  0.00    +0.168 C 
BRANCH  15  18
ATOM     18  O   UNL     1     -27.794  28.399   4.178  0.00  0.00    -0.468 OA
ATOM     19  C   UNL     1     -27.315  27.059   4.162  0.00  0.00    +0.253 C 
ENDBRANCH  15  18
BRANCH  17  20
ATOM     20  O   UNL     1     -27.657  29.799   6.575  0.00  0.00    -0.503 OA
ATOM     21  H   UNL     1     -27.467  30.716   6.542  0.00  0.00    +0.292 HD
ENDBRANCH  17  20
ENDBRANCH   5  12
BRANCH   6  22
ATOM     22  O   UNL     1     -32.887  29.702   3.146  0.00  0.00    -0.465 OA
ATOM     23  C   UNL     1     -33.420  30.833   3.808  0.00  0.00    +0.253 C 
ENDBRANCH   6  22
BRANCH  10  24
ATOM     24  O   UNL     1     -37.758  24.278   3.921  0.00  0.00    -0.465 OA
ATOM     25  C   UNL     1     -37.687  23.283   2.907  0.00  0.00    +0.253 C 
ENDBRANCH  10  24
BRANCH   8  26
ATOM     26  O   UNL     1     -37.064  26.605   2.679  0.00  0.00    -0.503 OA
ATOM     27  H   UNL     1     -37.987  26.456   2.743  0.00  0.00    +0.292 HD
ENDBRANCH   8  26
BRANCH  11  28
ATOM     28  O   UNL     1     -36.098  23.166   5.831  0.00  0.00    -0.503 OA
ATOM     29  H   UNL     1     -36.052  22.354   5.364  0.00  0.00    +0.292 HD
ENDBRANCH  11  28
TORSDOF 7
ENDMDL
MODEL 3
REMARK VINA RESULT:      -6.1      3.396      7.392
REMARK  Name = 5464461
REMARK  7 active torsions:
REMARK  status: ('A' for Active; 'I' for Inactive)
REMARK    1  A    between atoms: C_5  and  C_12
REMARK    2  A    between atoms: C_6  and  O_22
REMARK    3  A    between atoms: C_8  and  O_26
REMARK    4  A    between atoms: C_10  and  O_24
REMARK    5  A    between atoms: C_11  and  O_28
REMARK    6  A    between atoms: C_15  and  O_18
REMARK    7  A    between atoms: C_17  and  O_20
REMARK                            x       y       z     vdW  Elec       q    Type
REMARK                         _______ _______ _______ _____ _____    ______ ____
ROOT
ATOM      1  O   UNL     1     -35.228  22.136   2.524  0.00  0.00    -0.450 OA
ATOM      2  O   UNL     1     -39.239  22.013   1.815  0.00  0.00    -0.283 OA
ATOM      3  C   UNL     1     -37.116  21.055   1.448  0.00  0.00    +0.113 A 
ATOM      4  C   UNL     1     -35.754  21.153   1.727  0.00  0.00    +0.155 A 
ATOM      5  C   UNL     1     -36.090  23.064   3.085  0.00  0.00    +0.182 A 
ATOM      6  C   UNL     1     -37.421  23.086   2.889  0.00  0.00    +0.212 A 
ATOM      7  C   UNL     1     -38.035  22.045   2.030  0.00  0.00    +0.238 A 
ATOM      8  C   UNL     1     -37.596  20.030   0.627  0.00  0.00    +0.177 C 
ATOM      9  C   UNL     1     -34.863  20.226   1.185  0.00  0.00    +0.078 C 
ATOM     10  C   UNL     1     -36.702  19.105   0.087  0.00  0.00    +0.206 C 
ATOM     11  C   UNL     1     -35.338  19.203   0.365  0.00  0.00    +0.174 C 
ENDROOT
BRANCH   5  12
ATOM     12  C   UNL     1     -35.396  24.064   3.917  0.00  0.00    +0.041 C 
ATOM     13  C   UNL     1     -34.354  24.818   3.379  0.00  0.00    +0.043 C 
ATOM     14  C   UNL     1     -35.783  24.257   5.244  0.00  0.00    +0.006 C 
ATOM     15  C   UNL     1     -33.697  25.764   4.167  0.00  0.00    +0.172 C 
ATOM     16  C   UNL     1     -35.128  25.203   6.031  0.00  0.00    +0.040 C 
ATOM     17  C   UNL     1     -34.085  25.956   5.493  0.00  0.00    +0.168 C 
BRANCH  15  18
ATOM     18  O   UNL     1     -32.681  26.493   3.630  0.00  0.00    -0.468 OA
ATOM     19  C   UNL     1     -32.244  26.110   2.331  0.00  0.00    +0.253 C 
ENDBRANCH  15  18
BRANCH  17  20
ATOM     20  O   UNL     1     -33.452  26.878   6.273  0.00  0.00    -0.503 OA
ATOM     21  H   UNL     1     -32.897  27.522   5.880  0.00  0.00    +0.292 HD
ENDBRANCH  17  20
ENDBRANCH   5  12
BRANCH   6  22
ATOM     22  O   UNL     1     -38.247  24.044   3.437  0.00  0.00    -0.465 OA
ATOM     23  C   UNL     1     -38.383  25.150   2.563  0.00  0.00    +0.253 C 
ENDBRANCH   6  22
BRANCH  10  24
ATOM     24  O   UNL     1     -37.159  18.103  -0.717  0.00  0.00    -0.465 OA
ATOM     25  C   UNL     1     -37.504  16.883  -0.071  0.00  0.00    +0.253 C 
ENDBRANCH  10  24
BRANCH   8  26
ATOM     26  O   UNL     1     -38.920  19.902   0.331  0.00  0.00    -0.503 OA
ATOM     27  H   UNL     1     -39.191  19.349  -0.376  0.00  0.00    +0.292 HD
ENDBRANCH   8  26
BRANCH  11  28
ATOM     28  O   UNL     1     -34.459  18.304  -0.159  0.00  0.00    -0.503 OA
ATOM     29  H   UNL     1     -34.134  18.421  -1.031  0.00  0.00    +0.292 HD
ENDBRANCH  11  28
TORSDOF 7
ENDMDL
MODEL 4
REMARK VINA RESULT:      -6.0      2.760      7.155
REMARK  Name = 5464461
REMARK  7 active torsions:
REMARK  status: ('A' for Active; 'I' for Inactive)
REMARK    1  A    between atoms: C_5  and  C_12
REMARK    2  A    between atoms: C_6  and  O_22
REMARK    3  A    between atoms: C_8  and  O_26
REMARK    4  A    between atoms: C_10  and  O_24
REMARK    5  A    between atoms: C_11  and  O_28
REMARK    6  A    between atoms: C_15  and  O_18
REMARK    7  A    between atoms: C_17  and  O_20
REMARK                            x       y       z     vdW  Elec       q    Type
REMARK                         _______ _______ _______ _____ _____    ______ ____
ROOT
ATOM      1  O   UNL     1     -36.473  22.547   2.325  0.00  0.00    -0.450 OA
ATOM      2  O   UNL     1     -40.511  23.013   2.033  0.00  0.00    -0.283 OA
ATOM      3  C   UNL     1     -38.589  21.805   1.395  0.00  0.00    +0.113 A 
ATOM      4  C   UNL     1     -37.207  21.700   1.535  0.00  0.00    +0.155 A 
ATOM      5  C   UNL     1     -37.138  23.543   3.022  0.00  0.00    +0.182 A 
ATOM      6  C   UNL     1     -38.466  23.757   2.968  0.00  0.00    +0.212 A 
ATOM      7  C   UNL     1     -39.299  22.868   2.122  0.00  0.00    +0.238 A 
ATOM      8  C   UNL     1     -39.285  20.912   0.576  0.00  0.00    +0.177 C 
ATOM      9  C   UNL     1     -36.511  20.700   0.854  0.00  0.00    +0.078 C 
ATOM     10  C   UNL     1     -38.586  19.914  -0.104  0.00  0.00    +0.206 C 
ATOM     11  C   UNL     1     -37.202  19.808   0.036  0.00  0.00    +0.174 C 
ENDROOT
BRANCH   5  12
ATOM     12  C   UNL     1     -36.234  24.382   3.829  0.00  0.00    +0.041 C 
ATOM     13  C   UNL     1     -35.924  25.676   3.411  0.00  0.00    +0.043 C 
ATOM     14  C   UNL     1     -35.689  23.881   5.011  0.00  0.00    +0.006 C 
ATOM     15  C   UNL     1     -35.068  26.470   4.176  0.00  0.00    +0.172 C 
ATOM     16  C   UNL     1     -34.834  24.674   5.776  0.00  0.00    +0.040 C 
ATOM     17  C   UNL     1     -34.523  25.968   5.358  0.00  0.00    +0.168 C 
BRANCH  15  18
ATOM     18  O   UNL     1     -34.773  27.731   3.758  0.00  0.00    -0.468 OA
ATOM     19  C   UNL     1     -34.751  27.943   2.351  0.00  0.00    +0.253 C 
ENDBRANCH  15  18
BRANCH  17  20
ATOM     20  O   UNL     1     -33.686  26.734   6.114  0.00  0.00    -0.503 OA
ATOM     21  H   UNL     1     -33.567  26.540   7.022  0.00  0.00    +0.292 HD
ENDBRANCH  17  20
ENDBRANCH   5  12
BRANCH   6  22
ATOM     22  O   UNL     1     -39.092  24.778   3.649  0.00  0.00    -0.465 OA
ATOM     23  C   UNL     1     -39.401  25.849   2.776  0.00  0.00    +0.253 C 
ENDBRANCH   6  22
BRANCH  10  24
ATOM     24  O   UNL     1     -39.255  19.038  -0.909  0.00  0.00    -0.465 OA
ATOM     25  C   UNL     1     -39.389  19.412  -2.274  0.00  0.00    +0.253 C 
ENDBRANCH  10  24
BRANCH   8  26
ATOM     26  O   UNL     1     -40.637  20.983   0.413  0.00  0.00    -0.503 OA
ATOM     27  H   UNL     1     -41.028  21.763   0.072  0.00  0.00    +0.292 HD
ENDBRANCH   8  26
BRANCH  11  28
ATOM     28  O   UNL     1     -36.513  18.836  -0.626  0.00  0.00    -0.503 OA
ATOM     29  H   UNL     1     -36.724  18.636  -1.517  0.00  0.00    +0.292 HD
ENDBRANCH  11  28
TORSDOF 7
ENDMDL
MODEL 5
REMARK VINA RESULT:      -5.9      2.200      3.848
REMARK  Name = 5464461
REMARK  7 active torsions:
REMARK  status: ('A' for Active; 'I' for Inactive)
REMARK    1  A    between atoms: C_5  and  C_12
REMARK    2  A    between atoms: C_6  and  O_22
REMARK    3  A    between atoms: C_8  and  O_26
REMARK    4  A    between atoms: C_10  and  O_24
REMARK    5  A    between atoms: C_11  and  O_28
REMARK    6  A    between atoms: C_15  and  O_18
REMARK    7  A    between atoms: C_17  and  O_20
REMARK                            x       y       z     vdW  Elec       q    Type
REMARK                         _______ _______ _______ _____ _____    ______ ____
ROOT
ATOM      1  O   UNL     1     -35.900  25.562   2.415  0.00  0.00    -0.450 OA
ATOM      2  O   UNL     1     -34.434  25.713   6.215  0.00  0.00    -0.283 OA
ATOM      3  C   UNL     1     -34.433  26.616   4.037  0.00  0.00    +0.113 A 
ATOM      4  C   UNL     1     -34.970  26.510   2.756  0.00  0.00    +0.155 A 
ATOM      5  C   UNL     1     -36.331  24.678   3.392  0.00  0.00    +0.182 A 
ATOM      6  C   UNL     1     -35.886  24.668   4.662  0.00  0.00    +0.212 A 
ATOM      7  C   UNL     1     -34.876  25.673   5.074  0.00  0.00    +0.238 A 
ATOM      8  C   UNL     1     -33.487  27.603   4.325  0.00  0.00    +0.177 C 
ATOM      9  C   UNL     1     -34.564  27.392   1.753  0.00  0.00    +0.078 C 
ATOM     10  C   UNL     1     -33.083  28.484   3.321  0.00  0.00    +0.206 C 
ATOM     11  C   UNL     1     -33.621  28.379   2.038  0.00  0.00    +0.174 C 
ENDROOT
BRANCH   5  12
ATOM     12  C   UNL     1     -37.327  23.712   2.895  0.00  0.00    +0.041 C 
ATOM     13  C   UNL     1     -36.911  22.494   2.359  0.00  0.00    +0.043 C 
ATOM     14  C   UNL     1     -38.687  24.016   2.962  0.00  0.00    +0.006 C 
ATOM     15  C   UNL     1     -37.854  21.580   1.888  0.00  0.00    +0.172 C 
ATOM     16  C   UNL     1     -39.630  23.103   2.493  0.00  0.00    +0.040 C 
ATOM     17  C   UNL     1     -39.214  21.885   1.955  0.00  0.00    +0.168 C 
BRANCH  15  18
ATOM     18  O   UNL     1     -37.436  20.394   1.367  0.00  0.00    -0.468 OA
ATOM     19  C   UNL     1     -36.069  20.058   1.576  0.00  0.00    +0.253 C 
ENDBRANCH  15  18
BRANCH  17  20
ATOM     20  O   UNL     1     -40.145  21.000   1.500  0.00  0.00    -0.503 OA
ATOM     21  H   UNL     1     -40.870  20.762   2.043  0.00  0.00    +0.292 HD
ENDBRANCH  17  20
ENDBRANCH   5  12
BRANCH   6  22
ATOM     22  O   UNL     1     -36.311  23.753   5.601  0.00  0.00    -0.465 OA
ATOM     23  C   UNL     1     -35.384  22.692   5.726  0.00  0.00    +0.253 C 
ENDBRANCH   6  22
BRANCH  10  24
ATOM     24  O   UNL     1     -32.159  29.451   3.591  0.00  0.00    -0.465 OA
ATOM     25  C   UNL     1     -32.667  30.705   4.027  0.00  0.00    +0.253 C 
ENDBRANCH  10  24
BRANCH   8  26
ATOM     26  O   UNL     1     -32.937  27.738   5.566  0.00  0.00    -0.503 OA
ATOM     27  H   UNL     1     -32.023  27.918   5.656  0.00  0.00    +0.292 HD
ENDBRANCH   8  26
BRANCH  11  28
ATOM     28  O   UNL     1     -33.230  29.235   1.052  0.00  0.00    -0.503 OA
ATOM     29  H   UNL     1     -32.498  29.804   1.189  0.00  0.00    +0.292 HD
ENDBRANCH  11  28
TORSDOF 7
ENDMDL
MODEL 6
REMARK VINA RESULT:      -5.9      2.567      4.255
REMARK  Name = 5464461
REMARK  7 active torsions:
REMARK  status: ('A' for Active; 'I' for Inactive)
REMARK    1  A    between atoms: C_5  and  C_12
REMARK    2  A    between atoms: C_6  and  O_22
REMARK    3  A    between atoms: C_8  and  O_26
REMARK    4  A    between atoms: C_10  and  O_24
REMARK    5  A    between atoms: C_11  and  O_28
REMARK    6  A    between atoms: C_15  and  O_18
REMARK    7  A    between atoms: C_17  and  O_20
REMARK                            x       y       z     vdW  Elec       q    Type
REMARK                         _______ _______ _______ _____ _____    ______ ____
ROOT
ATOM      1  O   UNL     1     -35.390  25.286   2.364  0.00  0.00    -0.450 OA
ATOM      2  O   UNL     1     -34.407  25.706   6.297  0.00  0.00    -0.283 OA
ATOM      3  C   UNL     1     -34.134  26.458   4.079  0.00  0.00    +0.113 A 
ATOM      4  C   UNL     1     -34.508  26.261   2.751  0.00  0.00    +0.155 A 
ATOM      5  C   UNL     1     -35.940  24.468   3.339  0.00  0.00    +0.182 A 
ATOM      6  C   UNL     1     -35.657  24.548   4.652  0.00  0.00    +0.212 A 
ATOM      7  C   UNL     1     -34.704  25.586   5.116  0.00  0.00    +0.238 A 
ATOM      8  C   UNL     1     -33.229  27.470   4.414  0.00  0.00    +0.177 C 
ATOM      9  C   UNL     1     -33.979  27.075   1.749  0.00  0.00    +0.078 C 
ATOM     10  C   UNL     1     -32.702  28.282   3.409  0.00  0.00    +0.206 C 
ATOM     11  C   UNL     1     -33.077  28.085   2.080  0.00  0.00    +0.174 C 
ENDROOT
BRANCH   5  12
ATOM     12  C   UNL     1     -36.869  23.463   2.790  0.00  0.00    +0.041 C 
ATOM     13  C   UNL     1     -38.221  23.771   2.639  0.00  0.00    +0.043 C 
ATOM     14  C   UNL     1     -36.394  22.204   2.419  0.00  0.00    +0.006 C 
ATOM     15  C   UNL     1     -39.099  22.819   2.119  0.00  0.00    +0.172 C 
ATOM     16  C   UNL     1     -37.272  21.253   1.899  0.00  0.00    +0.040 C 
ATOM     17  C   UNL     1     -38.624  21.561   1.749  0.00  0.00    +0.168 C 
BRANCH  15  18
ATOM     18  O   UNL     1     -40.417  23.131   1.977  0.00  0.00    -0.468 OA
ATOM     19  C   UNL     1     -40.709  24.444   1.512  0.00  0.00    +0.253 C 
ENDBRANCH  15  18
BRANCH  17  20
ATOM     20  O   UNL     1     -39.472  20.623   1.240  0.00  0.00    -0.503 OA
ATOM     21  H   UNL     1     -40.021  20.835   0.511  0.00  0.00    +0.292 HD
ENDBRANCH  17  20
ENDBRANCH   5  12
BRANCH   6  22
ATOM     22  O   UNL     1     -36.197  23.697   5.592  0.00  0.00    -0.465 OA
ATOM     23  C   UNL     1     -35.294  22.652   5.902  0.00  0.00    +0.253 C 
ENDBRANCH   6  22
BRANCH  10  24
ATOM     24  O   UNL     1     -31.817  29.271   3.724  0.00  0.00    -0.465 OA
ATOM     25  C   UNL     1     -32.375  30.544   4.028  0.00  0.00    +0.253 C 
ENDBRANCH  10  24
BRANCH   8  26
ATOM     26  O   UNL     1     -32.838  27.693   5.700  0.00  0.00    -0.503 OA
ATOM     27  H   UNL     1     -32.497  28.529   5.949  0.00  0.00    +0.292 HD
ENDBRANCH   8  26
BRANCH  11  28
ATOM     28  O   UNL     1     -32.566  28.875   1.093  0.00  0.00    -0.503 OA
ATOM     29  H   UNL     1     -33.011  29.662   0.845  0.00  0.00    +0.292 HD
ENDBRANCH  11  28
TORSDOF 7
ENDMDL
MODEL 7
REMARK VINA RESULT:      -5.9      3.857      7.038
REMARK  Name = 5464461
REMARK  7 active torsions:
REMARK  status: ('A' for Active; 'I' for Inactive)
REMARK    1  A    between atoms: C_5  and  C_12
REMARK    2  A    between atoms: C_6  and  O_22
REMARK    3  A    between atoms: C_8  and  O_26
REMARK    4  A    between atoms: C_10  and  O_24
REMARK    5  A    between atoms: C_11  and  O_28
REMARK    6  A    between atoms: C_15  and  O_18
REMARK    7  A    between atoms: C_17  and  O_20
REMARK                            x       y       z     vdW  Elec       q    Type
REMARK                         _______ _______ _______ _____ _____    ______ ____
ROOT
ATOM      1  O   UNL     1     -34.685  20.009   2.547  0.00  0.00    -0.450 OA
ATOM      2  O   UNL     1     -35.793  23.013   0.025  0.00  0.00    -0.283 OA
ATOM      3  C   UNL     1     -35.590  22.241   2.245  0.00  0.00    +0.113 A 
ATOM      4  C   UNL     1     -35.195  21.177   3.053  0.00  0.00    +0.155 A 
ATOM      5  C   UNL     1     -34.546  19.888   1.174  0.00  0.00    +0.182 A 
ATOM      6  C   UNL     1     -34.896  20.836   0.285  0.00  0.00    +0.212 A 
ATOM      7  C   UNL     1     -35.456  22.115   0.785  0.00  0.00    +0.238 A 
ATOM      8  C   UNL     1     -36.104  23.409   2.816  0.00  0.00    +0.177 C 
ATOM      9  C   UNL     1     -35.314  21.273   4.440  0.00  0.00    +0.078 C 
ATOM     10  C   UNL     1     -36.220  23.502   4.204  0.00  0.00    +0.206 C 
ATOM     11  C   UNL     1     -35.826  22.436   5.013  0.00  0.00    +0.174 C 
ENDROOT
BRANCH   5  12
ATOM     12  C   UNL     1     -33.989  18.587   0.765  0.00  0.00    +0.041 C 
ATOM     13  C   UNL     1     -32.641  18.304   0.986  0.00  0.00    +0.043 C 
ATOM     14  C   UNL     1     -34.810  17.637   0.156  0.00  0.00    +0.006 C 
ATOM     15  C   UNL     1     -32.114  17.071   0.598  0.00  0.00    +0.172 C 
ATOM     16  C   UNL     1     -34.284  16.404  -0.231  0.00  0.00    +0.040 C 
ATOM     17  C   UNL     1     -32.936  16.122  -0.010  0.00  0.00    +0.168 C 
BRANCH  15  18
ATOM     18  O   UNL     1     -30.797  16.807   0.819  0.00  0.00    -0.468 OA
ATOM     19  C   UNL     1     -29.900  17.903   0.683  0.00  0.00    +0.253 C 
ENDBRANCH  15  18
BRANCH  17  20
ATOM     20  O   UNL     1     -32.433  14.914  -0.393  0.00  0.00    -0.503 OA
ATOM     21  H   UNL     1     -31.786  14.488   0.134  0.00  0.00    +0.292 HD
ENDBRANCH  17  20
ENDBRANCH   5  12
BRANCH   6  22
ATOM     22  O   UNL     1     -34.774  20.671  -1.078  0.00  0.00    -0.465 OA
ATOM     23  C   UNL     1     -33.523  21.150  -1.533  0.00  0.00    +0.253 C 
ENDBRANCH   6  22
BRANCH  10  24
ATOM     24  O   UNL     1     -36.723  24.635   4.773  0.00  0.00    -0.465 OA
ATOM     25  C   UNL     1     -35.772  25.617   5.168  0.00  0.00    +0.253 C 
ENDBRANCH  10  24
BRANCH   8  26
ATOM     26  O   UNL     1     -36.500  24.470   2.059  0.00  0.00    -0.503 OA
ATOM     27  H   UNL     1     -37.038  25.140   2.435  0.00  0.00    +0.292 HD
ENDBRANCH   8  26
BRANCH  11  28
ATOM     28  O   UNL     1     -35.938  22.519   6.369  0.00  0.00    -0.503 OA
ATOM     29  H   UNL     1     -35.170  22.622   6.897  0.00  0.00    +0.292 HD
ENDBRANCH  11  28
TORSDOF 7
ENDMDL
MODEL 8
REMARK VINA RESULT:      -5.8      3.281      4.332
REMARK  Name = 5464461
REMARK  7 active torsions:
REMARK  status: ('A' for Active; 'I' for Inactive)
REMARK    1  A    between atoms: C_5  and  C_12
REMARK    2  A    between atoms: C_6  and  O_22
REMARK    3  A    between atoms: C_8  and  O_26
REMARK    4  A    between atoms: C_10  and  O_24
REMARK    5  A    between atoms: C_11  and  O_28
REMARK    6  A    between atoms: C_15  and  O_18
REMARK    7  A    between atoms: C_17  and  O_20
REMARK                            x       y       z     vdW  Elec       q    Type
REMARK                         _______ _______ _______ _____ _____    ______ ____
ROOT
ATOM      1  O   UNL     1     -34.477  24.115   2.172  0.00  0.00    -0.450 OA
ATOM      2  O   UNL     1     -34.905  25.056   6.114  0.00  0.00    -0.283 OA
ATOM      3  C   UNL     1     -34.003  25.627   4.012  0.00  0.00    +0.113 A 
ATOM      4  C   UNL     1     -33.892  25.248   2.675  0.00  0.00    +0.155 A 
ATOM      5  C   UNL     1     -35.219  23.318   3.029  0.00  0.00    +0.182 A 
ATOM      6  C   UNL     1     -35.397  23.566   4.340  0.00  0.00    +0.212 A 
ATOM      7  C   UNL     1     -34.779  24.779   4.929  0.00  0.00    +0.238 A 
ATOM      8  C   UNL     1     -33.384  26.794   4.468  0.00  0.00    +0.177 C 
ATOM      9  C   UNL     1     -33.159  26.036   1.786  0.00  0.00    +0.078 C 
ATOM     10  C   UNL     1     -32.653  27.579   3.576  0.00  0.00    +0.206 C 
ATOM     11  C   UNL     1     -32.541  27.201   2.238  0.00  0.00    +0.174 C 
ENDROOT
BRANCH   5  12
ATOM     12  C   UNL     1     -35.790  22.134   2.363  0.00  0.00    +0.041 C 
ATOM     13  C   UNL     1     -34.949  21.134   1.874  0.00  0.00    +0.043 C 
ATOM     14  C   UNL     1     -37.173  22.013   2.222  0.00  0.00    +0.006 C 
ATOM     15  C   UNL     1     -35.491  20.013   1.244  0.00  0.00    +0.172 C 
ATOM     16  C   UNL     1     -37.715  20.892   1.593  0.00  0.00    +0.040 C 
ATOM     17  C   UNL     1     -36.873  19.893   1.103  0.00  0.00    +0.168 C 
BRANCH  15  18
ATOM     18  O   UNL     1     -34.660  19.045   0.771  0.00  0.00    -0.468 OA
ATOM     19  C   UNL     1     -33.434  18.865   1.472  0.00  0.00    +0.253 C 
ENDBRANCH  15  18
BRANCH  17  20
ATOM     20  O   UNL     1     -37.414  18.803   0.490  0.00  0.00    -0.503 OA
ATOM     21  H   UNL     1     -37.577  18.817  -0.432  0.00  0.00    +0.292 HD
ENDBRANCH  17  20
ENDBRANCH   5  12
BRANCH   6  22
ATOM     22  O   UNL     1     -36.115  22.735   5.172  0.00  0.00    -0.465 OA
ATOM     23  C   UNL     1     -35.252  21.866   5.882  0.00  0.00    +0.253 C 
ENDBRANCH   6  22
BRANCH  10  24
ATOM     24  O   UNL     1     -32.043  28.719   4.011  0.00  0.00    -0.465 OA
ATOM     25  C   UNL     1     -30.706  28.581   4.478  0.00  0.00    +0.253 C 
ENDBRANCH  10  24
BRANCH   8  26
ATOM     26  O   UNL     1     -33.469  27.196   5.768  0.00  0.00    -0.503 OA
ATOM     27  H   UNL     1     -32.865  26.864   6.402  0.00  0.00    +0.292 HD
ENDBRANCH   8  26
BRANCH  11  28
ATOM     28  O   UNL     1     -31.828  27.962   1.362  0.00  0.00    -0.503 OA
ATOM     29  H   UNL     1     -31.146  28.524   1.676  0.00  0.00    +0.292 HD
ENDBRANCH  11  28
TORSDOF 7
ENDMDL
MODEL 9
REMARK VINA RESULT:      -5.8      4.051      6.307
REMARK  Name = 5464461
REMARK  7 active torsions:
REMARK  status: ('A' for Active; 'I' for Inactive)
REMARK    1  A    between atoms: C_5  and  C_12
REMARK    2  A    between atoms: C_6  and  O_22
REMARK    3  A    between atoms: C_8  and  O_26
REMARK    4  A    between atoms: C_10  and  O_24
REMARK    5  A    between atoms: C_11  and  O_28
REMARK    6  A    between atoms: C_15  and  O_18
REMARK    7  A    between atoms: C_17  and  O_20
REMARK                            x       y       z     vdW  Elec       q    Type
REMARK                         _______ _______ _______ _____ _____    ______ ____
ROOT
ATOM      1  O   UNL     1     -35.209  22.046   2.121  0.00  0.00    -0.450 OA
ATOM      2  O   UNL     1     -38.822  20.681   0.820  0.00  0.00    -0.283 OA
ATOM      3  C   UNL     1     -37.622  22.299   2.047  0.00  0.00    +0.113 A 
ATOM      4  C   UNL     1     -36.358  22.713   2.461  0.00  0.00    +0.155 A 
ATOM      5  C   UNL     1     -35.311  20.919   1.322  0.00  0.00    +0.182 A 
ATOM      6  C   UNL     1     -36.469  20.410   0.862  0.00  0.00    +0.212 A 
ATOM      7  C   UNL     1     -37.738  21.096   1.209  0.00  0.00    +0.238 A 
ATOM      8  C   UNL     1     -38.759  23.019   2.424  0.00  0.00    +0.177 C 
ATOM      9  C   UNL     1     -36.223  23.850   3.258  0.00  0.00    +0.078 C 
ATOM     10  C   UNL     1     -38.620  24.156   3.221  0.00  0.00    +0.206 C 
ATOM     11  C   UNL     1     -37.355  24.570   3.637  0.00  0.00    +0.174 C 
ENDROOT
BRANCH   5  12
ATOM     12  C   UNL     1     -34.005  20.299   1.033  0.00  0.00    +0.041 C 
ATOM     13  C   UNL     1     -33.079  20.963   0.229  0.00  0.00    +0.043 C 
ATOM     14  C   UNL     1     -33.695  19.046   1.565  0.00  0.00    +0.006 C 
ATOM     15  C   UNL     1     -31.843  20.375  -0.044  0.00  0.00    +0.172 C 
ATOM     16  C   UNL     1     -32.460  18.459   1.293  0.00  0.00    +0.040 C 
ATOM     17  C   UNL     1     -31.534  19.124   0.489  0.00  0.00    +0.168 C 
BRANCH  15  18
ATOM     18  O   UNL     1     -30.948  21.034  -0.829  0.00  0.00    -0.468 OA
ATOM     19  C   UNL     1     -31.291  22.364  -1.201  0.00  0.00    +0.253 C 
ENDBRANCH  15  18
BRANCH  17  20
ATOM     20  O   UNL     1     -30.330  18.540   0.230  0.00  0.00    -0.503 OA
ATOM     21  H   UNL     1     -29.723  18.956  -0.349  0.00  0.00    +0.292 HD
ENDBRANCH  17  20
ENDBRANCH   5  12
BRANCH   6  22
ATOM     22  O   UNL     1     -36.538  19.268   0.095  0.00  0.00    -0.465 OA
ATOM     23  C   UNL     1     -36.491  19.584  -1.284  0.00  0.00    +0.253 C 
ENDBRANCH   6  22
BRANCH  10  24
ATOM     24  O   UNL     1     -39.723  24.865   3.598  0.00  0.00    -0.465 OA
ATOM     25  C   UNL     1     -40.105  25.938   2.746  0.00  0.00    +0.253 C 
ENDBRANCH  10  24
BRANCH   8  26
ATOM     26  O   UNL     1     -40.012  22.645   2.040  0.00  0.00    -0.503 OA
ATOM     27  H   UNL     1     -40.651  23.297   1.825  0.00  0.00    +0.292 HD
ENDBRANCH   8  26
BRANCH  11  28
ATOM     28  O   UNL     1     -37.212  25.679   4.416  0.00  0.00    -0.503 OA
ATOM     29  H   UNL     1     -36.354  25.997   4.626  0.00  0.00    +0.292 HD
ENDBRANCH  11  28
TORSDOF 7
ENDMDL
