MODEL 1
REMARK VINA RESULT:      -6.6      0.000      0.000
REMARK  Name = 5464102
REMARK  6 active torsions:
REMARK  status: ('A' for Active; 'I' for Inactive)
REMARK    1  A    between atoms: C_1  and  N_7
REMARK    2  A    between atoms: C_4  and  N_19
REMARK    3  A    between atoms: N_7  and  C_10
REMARK    4  A    between atoms: C_10  and  N_12
REMARK    5  A    between atoms: N_19  and  C_21
REMARK    6  A    between atoms: C_26  and  N_29
REMARK                            x       y       z     vdW  Elec       q    Type
REMARK                         _______ _______ _______ _____ _____    ______ ____
ROOT
ATOM      1  C   UNL     1     -36.349  19.954   1.324  0.00  0.00    +0.050 C 
ATOM      2  C   UNL     1     -37.451  20.777   1.165  0.00  0.00    +0.016 C 
ATOM      3  C   UNL     1     -35.370  20.227   2.264  0.00  0.00    +0.016 C 
ATOM      4  C   UNL     1     -36.601  22.198   2.924  0.00  0.00    +0.048 C 
ATOM      5  C   UNL     1     -37.578  21.908   1.972  0.00  0.00    +0.016 C 
ATOM      6  C   UNL     1     -35.497  21.358   3.070  0.00  0.00    +0.016 C 
ENDROOT
BRANCH   1   7
ATOM      7  N   UNL     1     -36.221  18.804   0.505  0.00  0.00    -0.296 N 
ATOM      8  H   UNL     1     -36.991  18.192   0.540  0.00  0.00    +0.154 HD
BRANCH   7  10
ATOM      9  S   UNL     1     -34.949  19.196  -1.779  0.00  0.00    -0.018 S 
ATOM     10  C   UNL     1     -35.211  18.398  -0.328  0.00  0.00    +0.138 C 
BRANCH  10  12
ATOM     11  N   UNL     1     -32.359  15.395   0.136  0.00  0.00    +0.388 N 
ATOM     12  N   UNL     1     -34.387  17.390   0.050  0.00  0.00    -0.295 N 
ATOM     13  C   UNL     1     -33.550  15.207  -0.709  0.00  0.00    -0.056 C 
ATOM     14  C   UNL     1     -32.001  16.820   0.217  0.00  0.00    -0.056 C 
ATOM     15  C   UNL     1     -34.739  15.993  -0.158  0.00  0.00    +0.070 C 
ATOM     16  C   UNL     1     -33.157  17.640   0.788  0.00  0.00    +0.070 C 
ATOM     17  C   UNL     1     -31.237  14.611  -0.379  0.00  0.00    -0.101 C 
ATOM     18  H   UNL     1     -32.579  15.066   1.076  0.00  0.00    -0.080 HD
ENDBRANCH  10  12
ENDBRANCH   7  10
ENDBRANCH   1   7
BRANCH   4  19
ATOM     19  N   UNL     1     -36.729  23.342   3.740  0.00  0.00    -0.313 N 
ATOM     20  H   UNL     1     -37.641  23.481   4.086  0.00  0.00    +0.152 HD
BRANCH  19  21
ATOM     21  C   UNL     1     -35.810  24.323   4.157  0.00  0.00    +0.048 C 
ATOM     22  C   UNL     1     -34.898  24.860   3.247  0.00  0.00    +0.016 C 
ATOM     23  C   UNL     1     -35.810  24.762   5.482  0.00  0.00    +0.016 C 
ATOM     24  C   UNL     1     -33.987  25.833   3.661  0.00  0.00    +0.025 C 
ATOM     25  C   UNL     1     -34.899  25.735   5.897  0.00  0.00    +0.025 C 
ATOM     26  C   UNL     1     -33.988  26.271   4.986  0.00  0.00    +0.143 C 
BRANCH  26  29
ATOM     27  O   UNL     1     -32.953  28.316   4.738  0.00  0.00    -0.126 OA
ATOM     28  O   UNL     1     -32.376  27.052   6.438  0.00  0.00    -0.126 OA
ATOM     29  N   UNL     1     -33.061  27.260   5.407  0.00  0.00    +0.058 N 
ENDBRANCH  26  29
ENDBRANCH  19  21
ENDBRANCH   4  19
TORSDOF 6
ENDMDL
MODEL 2
REMARK VINA RESULT:      -6.5      4.003      8.629
REMARK  Name = 5464102
REMARK  6 active torsions:
REMARK  status: ('A' for Active; 'I' for Inactive)
REMARK    1  A    between atoms: C_1  and  N_7
REMARK    2  A    between atoms: C_4  and  N_19
REMARK    3  A    between atoms: N_7  and  C_10
REMARK    4  A    between atoms: C_10  and  N_12
REMARK    5  A    between atoms: N_19  and  C_21
REMARK    6  A    between atoms: C_26  and  N_29
REMARK                            x       y       z     vdW  Elec       q    Type
REMARK                         _______ _______ _______ _____ _____    ______ ____
ROOT
ATOM      1  C   UNL     1     -37.018  22.688   3.143  0.00  0.00    +0.050 C 
ATOM      2  C   UNL     1     -35.815  22.309   3.713  0.00  0.00    +0.016 C 
ATOM      3  C   UNL     1     -37.536  22.030   2.040  0.00  0.00    +0.016 C 
ATOM      4  C   UNL     1     -35.616  20.563   2.054  0.00  0.00    +0.048 C 
ATOM      5  C   UNL     1     -35.108  21.238   3.165  0.00  0.00    +0.016 C 
ATOM      6  C   UNL     1     -36.830  20.959   1.492  0.00  0.00    +0.016 C 
ENDROOT
BRANCH   1   7
ATOM      7  N   UNL     1     -37.735  23.775   3.701  0.00  0.00    -0.296 N 
ATOM      8  H   UNL     1     -38.274  23.543   4.491  0.00  0.00    +0.154 HD
BRANCH   7  10
ATOM      9  S   UNL     1     -39.152  25.658   2.501  0.00  0.00    -0.018 S 
ATOM     10  C   UNL     1     -37.808  25.093   3.331  0.00  0.00    +0.138 C 
BRANCH  10  12
ATOM     11  N   UNL     1     -34.302  27.192   4.147  0.00  0.00    +0.388 N 
ATOM     12  N   UNL     1     -36.822  25.951   3.688  0.00  0.00    -0.295 N 
ATOM     13  C   UNL     1     -34.723  26.042   4.964  0.00  0.00    -0.056 C 
ATOM     14  C   UNL     1     -34.834  27.078   2.779  0.00  0.00    -0.056 C 
ATOM     15  C   UNL     1     -36.248  25.946   5.025  0.00  0.00    +0.070 C 
ATOM     16  C   UNL     1     -36.361  27.004   2.793  0.00  0.00    +0.070 C 
ATOM     17  C   UNL     1     -32.844  27.297   4.123  0.00  0.00    -0.101 C 
ATOM     18  H   UNL     1     -34.681  28.040   4.568  0.00  0.00    -0.080 HD
ENDBRANCH  10  12
ENDBRANCH   7  10
ENDBRANCH   1   7
BRANCH   4  19
ATOM     19  N   UNL     1     -34.903  19.480   1.500  0.00  0.00    -0.313 N 
ATOM     20  H   UNL     1     -35.450  18.672   1.367  0.00  0.00    +0.152 HD
BRANCH  19  21
ATOM     21  C   UNL     1     -33.562  19.327   1.100  0.00  0.00    +0.048 C 
ATOM     22  C   UNL     1     -32.853  18.177   1.454  0.00  0.00    +0.016 C 
ATOM     23  C   UNL     1     -32.938  20.323   0.347  0.00  0.00    +0.016 C 
ATOM     24  C   UNL     1     -31.524  18.025   1.057  0.00  0.00    +0.025 C 
ATOM     25  C   UNL     1     -31.609  20.171  -0.050  0.00  0.00    +0.025 C 
ATOM     26  C   UNL     1     -30.902  19.022   0.305  0.00  0.00    +0.143 C 
BRANCH  26  29
ATOM     27  O   UNL     1     -28.908  19.878  -0.475  0.00  0.00    -0.126 OA
ATOM     28  O   UNL     1     -29.032  17.724  -0.064  0.00  0.00    -0.126 OA
ATOM     29  N   UNL     1     -29.550  18.867  -0.098  0.00  0.00    +0.058 N 
ENDBRANCH  26  29
ENDBRANCH  19  21
ENDBRANCH   4  19
TORSDOF 6
ENDMDL
MODEL 3
REMARK VINA RESULT:      -6.5      1.349      1.767
REMARK  Name = 5464102
REMARK  6 active torsions:
REMARK  status: ('A' for Active; 'I' for Inactive)
REMARK    1  A    between atoms: C_1  and  N_7
REMARK    2  A    between atoms: C_4  and  N_19
REMARK    3  A    between atoms: N_7  and  C_10
REMARK    4  A    between atoms: C_10  and  N_12
REMARK    5  A    between atoms: N_19  and  C_21
REMARK    6  A    between atoms: C_26  and  N_29
REMARK                            x       y       z     vdW  Elec       q    Type
REMARK                         _______ _______ _______ _____ _____    ______ ____
ROOT
ATOM      1  C   UNL     1     -36.675  20.421   1.985  0.00  0.00    +0.050 C 
ATOM      2  C   UNL     1     -37.759  21.272   1.850  0.00  0.00    +0.016 C 
ATOM      3  C   UNL     1     -35.600  20.740   2.797  0.00  0.00    +0.016 C 
ATOM      4  C   UNL     1     -36.693  22.817   3.372  0.00  0.00    +0.048 C 
ATOM      5  C   UNL     1     -37.768  22.479   2.549  0.00  0.00    +0.016 C 
ATOM      6  C   UNL     1     -35.610  21.947   3.496  0.00  0.00    +0.016 C 
ENDROOT
BRANCH   1   7
ATOM      7  N   UNL     1     -36.666  19.194   1.276  0.00  0.00    -0.296 N 
ATOM      8  H   UNL     1     -37.045  18.434   1.774  0.00  0.00    +0.154 HD
BRANCH   7  10
ATOM      9  S   UNL     1     -37.301  18.857  -1.268  0.00  0.00    -0.018 S 
ATOM     10  C   UNL     1     -36.223  18.883   0.017  0.00  0.00    +0.138 C 
BRANCH  10  12
ATOM     11  N   UNL     1     -32.114  18.200   0.122  0.00  0.00    +0.388 N 
ATOM     12  N   UNL     1     -34.905  18.656  -0.199  0.00  0.00    -0.295 N 
ATOM     13  C   UNL     1     -32.684  19.532   0.385  0.00  0.00    -0.056 C 
ATOM     14  C   UNL     1     -33.082  17.145   0.465  0.00  0.00    -0.056 C 
ATOM     15  C   UNL     1     -33.965  19.745  -0.420  0.00  0.00    +0.070 C 
ATOM     16  C   UNL     1     -34.372  17.308  -0.338  0.00  0.00    +0.070 C 
ATOM     17  C   UNL     1     -30.870  18.018   0.869  0.00  0.00    -0.101 C 
ATOM     18  H   UNL     1     -31.906  18.132  -0.874  0.00  0.00    -0.080 HD
ENDBRANCH  10  12
ENDBRANCH   7  10
ENDBRANCH   1   7
BRANCH   4  19
ATOM     19  N   UNL     1     -36.702  24.037   4.079  0.00  0.00    -0.313 N 
ATOM     20  H   UNL     1     -37.587  24.281   4.437  0.00  0.00    +0.152 HD
BRANCH  19  21
ATOM     21  C   UNL     1     -35.696  24.976   4.374  0.00  0.00    +0.048 C 
ATOM     22  C   UNL     1     -35.240  25.848   3.382  0.00  0.00    +0.016 C 
ATOM     23  C   UNL     1     -35.151  25.038   5.657  0.00  0.00    +0.016 C 
ATOM     24  C   UNL     1     -34.242  26.778   3.675  0.00  0.00    +0.025 C 
ATOM     25  C   UNL     1     -34.153  25.969   5.950  0.00  0.00    +0.025 C 
ATOM     26  C   UNL     1     -33.699  26.839   4.958  0.00  0.00    +0.143 C 
BRANCH  26  29
ATOM     27  O   UNL     1     -32.710  28.904   4.687  0.00  0.00    -0.126 OA
ATOM     28  O   UNL     1     -31.788  27.479   6.079  0.00  0.00    -0.126 OA
ATOM     29  N   UNL     1     -32.684  27.786   5.255  0.00  0.00    +0.058 N 
ENDBRANCH  26  29
ENDBRANCH  19  21
ENDBRANCH   4  19
TORSDOF 6
ENDMDL
MODEL 4
REMARK VINA RESULT:      -6.4      1.338      2.054
REMARK  Name = 5464102
REMARK  6 active torsions:
REMARK  status: ('A' for Active; 'I' for Inactive)
REMARK    1  A    between atoms: C_1  and  N_7
REMARK    2  A    between atoms: C_4  and  N_19
REMARK    3  A    between atoms: N_7  and  C_10
REMARK    4  A    between atoms: C_10  and  N_12
REMARK    5  A    between atoms: N_19  and  C_21
REMARK    6  A    between atoms: C_26  and  N_29
REMARK                            x       y       z     vdW  Elec       q    Type
REMARK                         _______ _______ _______ _____ _____    ______ ____
ROOT
ATOM      1  C   UNL     1     -36.698  20.422   1.920  0.00  0.00    +0.050 C 
ATOM      2  C   UNL     1     -37.784  21.273   1.804  0.00  0.00    +0.016 C 
ATOM      3  C   UNL     1     -35.619  20.731   2.730  0.00  0.00    +0.016 C 
ATOM      4  C   UNL     1     -36.712  22.796   3.343  0.00  0.00    +0.048 C 
ATOM      5  C   UNL     1     -37.791  22.469   2.521  0.00  0.00    +0.016 C 
ATOM      6  C   UNL     1     -35.626  21.927   3.447  0.00  0.00    +0.016 C 
ENDROOT
BRANCH   1   7
ATOM      7  N   UNL     1     -36.691  19.206   1.192  0.00  0.00    -0.296 N 
ATOM      8  H   UNL     1     -37.095  18.445   1.669  0.00  0.00    +0.154 HD
BRANCH   7  10
ATOM      9  S   UNL     1     -37.266  18.917  -1.372  0.00  0.00    -0.018 S 
ATOM     10  C   UNL     1     -36.222  18.906  -0.060  0.00  0.00    +0.138 C 
BRANCH  10  12
ATOM     11  N   UNL     1     -32.120  18.192   0.137  0.00  0.00    +0.388 N 
ATOM     12  N   UNL     1     -34.902  18.660  -0.246  0.00  0.00    -0.295 N 
ATOM     13  C   UNL     1     -32.682  19.537   0.344  0.00  0.00    -0.056 C 
ATOM     14  C   UNL     1     -33.104  17.158   0.500  0.00  0.00    -0.056 C 
ATOM     15  C   UNL     1     -33.949  19.733  -0.489  0.00  0.00    +0.070 C 
ATOM     16  C   UNL     1     -34.379  17.304  -0.330  0.00  0.00    +0.070 C 
ATOM     17  C   UNL     1     -30.891  18.025   0.910  0.00  0.00    -0.101 C 
ATOM     18  H   UNL     1     -31.897  18.087  -0.853  0.00  0.00    -0.080 HD
ENDBRANCH  10  12
ENDBRANCH   7  10
ENDBRANCH   1   7
BRANCH   4  19
ATOM     19  N   UNL     1     -36.719  24.006   4.068  0.00  0.00    -0.313 N 
ATOM     20  H   UNL     1     -37.601  24.242   4.436  0.00  0.00    +0.152 HD
BRANCH  19  21
ATOM     21  C   UNL     1     -35.712  24.943   4.370  0.00  0.00    +0.048 C 
ATOM     22  C   UNL     1     -35.154  24.983   5.649  0.00  0.00    +0.016 C 
ATOM     23  C   UNL     1     -35.270  25.834   3.391  0.00  0.00    +0.016 C 
ATOM     24  C   UNL     1     -34.156  25.912   5.948  0.00  0.00    +0.025 C 
ATOM     25  C   UNL     1     -34.272  26.763   3.689  0.00  0.00    +0.025 C 
ATOM     26  C   UNL     1     -33.715  26.801   4.968  0.00  0.00    +0.143 C 
BRANCH  26  29
ATOM     27  O   UNL     1     -31.824  27.446   6.118  0.00  0.00    -0.126 OA
ATOM     28  O   UNL     1     -32.708  28.856   4.686  0.00  0.00    -0.126 OA
ATOM     29  N   UNL     1     -32.701  27.746   5.273  0.00  0.00    +0.058 N 
ENDBRANCH  26  29
ENDBRANCH  19  21
ENDBRANCH   4  19
TORSDOF 6
ENDMDL
MODEL 5
REMARK VINA RESULT:      -6.3      2.668      5.072
REMARK  Name = 5464102
REMARK  6 active torsions:
REMARK  status: ('A' for Active; 'I' for Inactive)
REMARK    1  A    between atoms: C_1  and  N_7
REMARK    2  A    between atoms: C_4  and  N_19
REMARK    3  A    between atoms: N_7  and  C_10
REMARK    4  A    between atoms: C_10  and  N_12
REMARK    5  A    between atoms: N_19  and  C_21
REMARK    6  A    between atoms: C_26  and  N_29
REMARK                            x       y       z     vdW  Elec       q    Type
REMARK                         _______ _______ _______ _____ _____    ______ ____
ROOT
ATOM      1  C   UNL     1     -36.193  23.854   4.369  0.00  0.00    +0.050 C 
ATOM      2  C   UNL     1     -34.893  23.480   4.665  0.00  0.00    +0.016 C 
ATOM      3  C   UNL     1     -36.671  25.117   4.677  0.00  0.00    +0.016 C 
ATOM      4  C   UNL     1     -34.511  25.673   5.605  0.00  0.00    +0.048 C 
ATOM      5  C   UNL     1     -34.045  24.396   5.288  0.00  0.00    +0.016 C 
ATOM      6  C   UNL     1     -35.823  26.033   5.300  0.00  0.00    +0.016 C 
ENDROOT
BRANCH   1   7
ATOM      7  N   UNL     1     -37.053  22.924   3.735  0.00  0.00    -0.296 N 
ATOM      8  H   UNL     1     -37.691  22.483   4.341  0.00  0.00    +0.154 HD
BRANCH   7  10
ATOM      9  S   UNL     1     -37.671  23.623   1.262  0.00  0.00    -0.018 S 
ATOM     10  C   UNL     1     -37.151  22.533   2.425  0.00  0.00    +0.138 C 
BRANCH  10  12
ATOM     11  N   UNL     1     -35.533  19.056   0.795  0.00  0.00    +0.388 N 
ATOM     12  N   UNL     1     -36.771  21.284   2.061  0.00  0.00    -0.295 N 
ATOM     13  C   UNL     1     -36.554  19.842   0.082  0.00  0.00    -0.056 C 
ATOM     14  C   UNL     1     -34.759  19.916   1.705  0.00  0.00    -0.056 C 
ATOM     15  C   UNL     1     -37.508  20.517   1.068  0.00  0.00    +0.070 C 
ATOM     16  C   UNL     1     -35.674  20.592   2.724  0.00  0.00    +0.070 C 
ATOM     17  C   UNL     1     -34.647  18.385  -0.156  0.00  0.00    -0.101 C 
ATOM     18  H   UNL     1     -36.007  18.345   1.351  0.00  0.00    -0.080 HD
ENDBRANCH  10  12
ENDBRANCH   7  10
ENDBRANCH   1   7
BRANCH   4  19
ATOM     19  N   UNL     1     -33.654  26.600   6.234  0.00  0.00    -0.313 N 
ATOM     20  H   UNL     1     -33.679  26.558   7.218  0.00  0.00    +0.152 HD
BRANCH  19  21
ATOM     21  C   UNL     1     -32.771  27.575   5.733  0.00  0.00    +0.048 C 
ATOM     22  C   UNL     1     -32.012  28.351   6.613  0.00  0.00    +0.016 C 
ATOM     23  C   UNL     1     -32.651  27.768   4.356  0.00  0.00    +0.016 C 
ATOM     24  C   UNL     1     -31.137  29.316   6.115  0.00  0.00    +0.025 C 
ATOM     25  C   UNL     1     -31.775  28.734   3.859  0.00  0.00    +0.025 C 
ATOM     26  C   UNL     1     -31.018  29.508   4.738  0.00  0.00    +0.143 C 
BRANCH  26  29
ATOM     27  O   UNL     1     -29.580  31.285   5.036  0.00  0.00    -0.126 OA
ATOM     28  O   UNL     1     -29.911  30.539   2.998  0.00  0.00    -0.126 OA
ATOM     29  N   UNL     1     -30.128  30.491   4.233  0.00  0.00    +0.058 N 
ENDBRANCH  26  29
ENDBRANCH  19  21
ENDBRANCH   4  19
TORSDOF 6
ENDMDL
MODEL 6
REMARK VINA RESULT:      -6.2      1.714      2.293
REMARK  Name = 5464102
REMARK  6 active torsions:
REMARK  status: ('A' for Active; 'I' for Inactive)
REMARK    1  A    between atoms: C_1  and  N_7
REMARK    2  A    between atoms: C_4  and  N_19
REMARK    3  A    between atoms: N_7  and  C_10
REMARK    4  A    between atoms: C_10  and  N_12
REMARK    5  A    between atoms: N_19  and  C_21
REMARK    6  A    between atoms: C_26  and  N_29
REMARK                            x       y       z     vdW  Elec       q    Type
REMARK                         _______ _______ _______ _____ _____    ______ ____
ROOT
ATOM      1  C   UNL     1     -36.730  20.312   1.835  0.00  0.00    +0.050 C 
ATOM      2  C   UNL     1     -35.658  20.674   2.633  0.00  0.00    +0.016 C 
ATOM      3  C   UNL     1     -37.845  21.123   1.708  0.00  0.00    +0.016 C 
ATOM      4  C   UNL     1     -36.818  22.715   3.206  0.00  0.00    +0.048 C 
ATOM      5  C   UNL     1     -35.702  21.885   3.324  0.00  0.00    +0.016 C 
ATOM      6  C   UNL     1     -37.889  22.334   2.398  0.00  0.00    +0.016 C 
ENDROOT
BRANCH   1   7
ATOM      7  N   UNL     1     -36.685  19.082   1.133  0.00  0.00    -0.296 N 
ATOM      8  H   UNL     1     -37.012  18.308   1.646  0.00  0.00    +0.154 HD
BRANCH   7  10
ATOM      9  S   UNL     1     -37.392  18.480  -1.342  0.00  0.00    -0.018 S 
ATOM     10  C   UNL     1     -36.266  18.784  -0.138  0.00  0.00    +0.138 C 
BRANCH  10  12
ATOM     11  N   UNL     1     -32.182  19.458  -0.624  0.00  0.00    +0.388 N 
ATOM     12  N   UNL     1     -34.943  18.793  -0.434  0.00  0.00    -0.295 N 
ATOM     13  C   UNL     1     -33.189  20.255  -1.345  0.00  0.00    -0.056 C 
ATOM     14  C   UNL     1     -32.735  18.944   0.639  0.00  0.00    -0.056 C 
ATOM     15  C   UNL     1     -34.433  19.418  -1.645  0.00  0.00    +0.070 C 
ATOM     16  C   UNL     1     -33.970  18.080   0.381  0.00  0.00    +0.070 C 
ATOM     17  C   UNL     1     -30.982  20.255  -0.373  0.00  0.00    -0.101 C 
ATOM     18  H   UNL     1     -31.925  18.662  -1.209  0.00  0.00    -0.080 HD
ENDBRANCH  10  12
ENDBRANCH   7  10
ENDBRANCH   1   7
BRANCH   4  19
ATOM     19  N   UNL     1     -36.863  23.940   3.904  0.00  0.00    -0.313 N 
ATOM     20  H   UNL     1     -37.774  24.221   4.154  0.00  0.00    +0.152 HD
BRANCH  19  21
ATOM     21  C   UNL     1     -35.862  24.841   4.314  0.00  0.00    +0.048 C 
ATOM     22  C   UNL     1     -35.417  25.837   3.442  0.00  0.00    +0.016 C 
ATOM     23  C   UNL     1     -35.312  24.741   5.593  0.00  0.00    +0.016 C 
ATOM     24  C   UNL     1     -34.425  26.730   3.849  0.00  0.00    +0.025 C 
ATOM     25  C   UNL     1     -34.320  25.634   6.000  0.00  0.00    +0.025 C 
ATOM     26  C   UNL     1     -33.877  26.629   5.128  0.00  0.00    +0.143 C 
BRANCH  26  29
ATOM     27  O   UNL     1     -32.680  28.583   4.874  0.00  0.00    -0.126 OA
ATOM     28  O   UNL     1     -32.190  27.270   6.564  0.00  0.00    -0.126 OA
ATOM     29  N   UNL     1     -32.867  27.537   5.541  0.00  0.00    +0.058 N 
ENDBRANCH  26  29
ENDBRANCH  19  21
ENDBRANCH   4  19
TORSDOF 6
ENDMDL
MODEL 7
REMARK VINA RESULT:      -6.2      2.386      3.456
REMARK  Name = 5464102
REMARK  6 active torsions:
REMARK  status: ('A' for Active; 'I' for Inactive)
REMARK    1  A    between atoms: C_1  and  N_7
REMARK    2  A    between atoms: C_4  and  N_19
REMARK    3  A    between atoms: N_7  and  C_10
REMARK    4  A    between atoms: C_10  and  N_12
REMARK    5  A    between atoms: N_19  and  C_21
REMARK    6  A    between atoms: C_26  and  N_29
REMARK                            x       y       z     vdW  Elec       q    Type
REMARK                         _______ _______ _______ _____ _____    ______ ____
ROOT
ATOM      1  C   UNL     1     -36.660  20.315   1.870  0.00  0.00    +0.050 C 
ATOM      2  C   UNL     1     -37.744  21.169   1.756  0.00  0.00    +0.016 C 
ATOM      3  C   UNL     1     -35.581  20.620   2.683  0.00  0.00    +0.016 C 
ATOM      4  C   UNL     1     -36.671  22.685   3.300  0.00  0.00    +0.048 C 
ATOM      5  C   UNL     1     -37.750  22.363   2.476  0.00  0.00    +0.016 C 
ATOM      6  C   UNL     1     -35.587  21.814   3.404  0.00  0.00    +0.016 C 
ENDROOT
BRANCH   1   7
ATOM      7  N   UNL     1     -36.654  19.101   1.139  0.00  0.00    -0.296 N 
ATOM      8  H   UNL     1     -36.777  18.295   1.689  0.00  0.00    +0.154 HD
BRANCH   7  10
ATOM      9  S   UNL     1     -35.317  19.649  -1.075  0.00  0.00    -0.018 S 
ATOM     10  C   UNL     1     -36.509  18.857  -0.202  0.00  0.00    +0.138 C 
BRANCH  10  12
ATOM     11  N   UNL     1     -39.385  16.120  -1.469  0.00  0.00    +0.388 N 
ATOM     12  N   UNL     1     -37.291  17.930  -0.809  0.00  0.00    -0.295 N 
ATOM     13  C   UNL     1     -38.462  15.816  -0.362  0.00  0.00    -0.056 C 
ATOM     14  C   UNL     1     -39.597  17.572  -1.583  0.00  0.00    -0.056 C 
ATOM     15  C   UNL     1     -37.114  16.505  -0.572  0.00  0.00    +0.070 C 
ATOM     16  C   UNL     1     -38.273  18.298  -1.819  0.00  0.00    +0.070 C 
ATOM     17  C   UNL     1     -40.660  15.429  -1.278  0.00  0.00    -0.101 C 
ATOM     18  H   UNL     1     -38.964  15.788  -2.337  0.00  0.00    -0.080 HD
ENDBRANCH  10  12
ENDBRANCH   7  10
ENDBRANCH   1   7
BRANCH   4  19
ATOM     19  N   UNL     1     -36.677  23.893   4.030  0.00  0.00    -0.313 N 
ATOM     20  H   UNL     1     -37.553  24.115   4.421  0.00  0.00    +0.152 HD
BRANCH  19  21
ATOM     21  C   UNL     1     -35.676  24.843   4.308  0.00  0.00    +0.048 C 
ATOM     22  C   UNL     1     -35.365  25.164   5.631  0.00  0.00    +0.016 C 
ATOM     23  C   UNL     1     -34.994  25.467   3.263  0.00  0.00    +0.016 C 
ATOM     24  C   UNL     1     -34.373  26.107   5.907  0.00  0.00    +0.025 C 
ATOM     25  C   UNL     1     -34.002  26.409   3.538  0.00  0.00    +0.025 C 
ATOM     26  C   UNL     1     -33.692  26.729   4.860  0.00  0.00    +0.143 C 
BRANCH  26  29
ATOM     27  O   UNL     1     -32.771  28.830   4.629  0.00  0.00    -0.126 OA
ATOM     28  O   UNL     1     -31.734  27.368   5.897  0.00  0.00    -0.126 OA
ATOM     29  N   UNL     1     -32.684  27.688   5.141  0.00  0.00    +0.058 N 
ENDBRANCH  26  29
ENDBRANCH  19  21
ENDBRANCH   4  19
TORSDOF 6
ENDMDL
MODEL 8
REMARK VINA RESULT:      -6.2      2.032      3.225
REMARK  Name = 5464102
REMARK  6 active torsions:
REMARK  status: ('A' for Active; 'I' for Inactive)
REMARK    1  A    between atoms: C_1  and  N_7
REMARK    2  A    between atoms: C_4  and  N_19
REMARK    3  A    between atoms: N_7  and  C_10
REMARK    4  A    between atoms: C_10  and  N_12
REMARK    5  A    between atoms: N_19  and  C_21
REMARK    6  A    between atoms: C_26  and  N_29
REMARK                            x       y       z     vdW  Elec       q    Type
REMARK                         _______ _______ _______ _____ _____    ______ ____
ROOT
ATOM      1  C   UNL     1     -35.574  21.841   3.477  0.00  0.00    +0.050 C 
ATOM      2  C   UNL     1     -35.446  22.926   2.626  0.00  0.00    +0.016 C 
ATOM      3  C   UNL     1     -35.560  21.995   4.854  0.00  0.00    +0.016 C 
ATOM      4  C   UNL     1     -35.284  24.376   4.552  0.00  0.00    +0.048 C 
ATOM      5  C   UNL     1     -35.300  24.203   3.167  0.00  0.00    +0.016 C 
ATOM      6  C   UNL     1     -35.414  23.272   5.394  0.00  0.00    +0.016 C 
ENDROOT
BRANCH   1   7
ATOM      7  N   UNL     1     -35.724  20.544   2.928  0.00  0.00    -0.296 N 
ATOM      8  H   UNL     1     -35.628  19.813   3.579  0.00  0.00    +0.154 HD
BRANCH   7  10
ATOM      9  S   UNL     1     -37.436  20.528   0.913  0.00  0.00    -0.018 S 
ATOM     10  C   UNL     1     -35.980  20.131   1.646  0.00  0.00    +0.138 C 
BRANCH  10  12
ATOM     11  N   UNL     1     -33.211  17.482   0.009  0.00  0.00    +0.388 N 
ATOM     12  N   UNL     1     -35.034  19.455   0.951  0.00  0.00    -0.295 N 
ATOM     13  C   UNL     1     -32.950  18.190   1.273  0.00  0.00    -0.056 C 
ATOM     14  C   UNL     1     -34.659  17.316  -0.203  0.00  0.00    -0.056 C 
ATOM     15  C   UNL     1     -33.619  19.565   1.275  0.00  0.00    +0.070 C 
ATOM     16  C   UNL     1     -35.363  18.672  -0.232  0.00  0.00    +0.070 C 
ATOM     17  C   UNL     1     -32.540  16.183   0.001  0.00  0.00    -0.101 C 
ATOM     18  H   UNL     1     -32.838  18.044  -0.756  0.00  0.00    -0.080 HD
ENDBRANCH  10  12
ENDBRANCH   7  10
ENDBRANCH   1   7
BRANCH   4  19
ATOM     19  N   UNL     1     -35.137  25.667   5.100  0.00  0.00    -0.313 N 
ATOM     20  H   UNL     1     -35.984  26.067   5.405  0.00  0.00    +0.152 HD
BRANCH  19  21
ATOM     21  C   UNL     1     -34.018  26.498   5.296  0.00  0.00    +0.048 C 
ATOM     22  C   UNL     1     -33.442  26.609   6.563  0.00  0.00    +0.016 C 
ATOM     23  C   UNL     1     -33.481  27.213   4.224  0.00  0.00    +0.016 C 
ATOM     24  C   UNL     1     -32.333  27.433   6.757  0.00  0.00    +0.025 C 
ATOM     25  C   UNL     1     -32.372  28.036   4.417  0.00  0.00    +0.025 C 
ATOM     26  C   UNL     1     -31.797  28.146   5.684  0.00  0.00    +0.143 C 
BRANCH  26  29
ATOM     27  O   UNL     1     -29.526  28.468   5.914  0.00  0.00    -0.126 OA
ATOM     28  O   UNL     1     -30.846  30.220   6.018  0.00  0.00    -0.126 OA
ATOM     29  N   UNL     1     -30.669  28.985   5.882  0.00  0.00    +0.058 N 
ENDBRANCH  26  29
ENDBRANCH  19  21
ENDBRANCH   4  19
TORSDOF 6
ENDMDL
MODEL 9
REMARK VINA RESULT:      -6.2      1.806      2.509
REMARK  Name = 5464102
REMARK  6 active torsions:
REMARK  status: ('A' for Active; 'I' for Inactive)
REMARK    1  A    between atoms: C_1  and  N_7
REMARK    2  A    between atoms: C_4  and  N_19
REMARK    3  A    between atoms: N_7  and  C_10
REMARK    4  A    between atoms: C_10  and  N_12
REMARK    5  A    between atoms: N_19  and  C_21
REMARK    6  A    between atoms: C_26  and  N_29
REMARK                            x       y       z     vdW  Elec       q    Type
REMARK                         _______ _______ _______ _____ _____    ______ ____
ROOT
ATOM      1  C   UNL     1     -35.048  18.863   0.090  0.00  0.00    +0.050 C 
ATOM      2  C   UNL     1     -36.352  19.295   0.264  0.00  0.00    +0.016 C 
ATOM      3  C   UNL     1     -34.056  19.168   1.006  0.00  0.00    +0.016 C 
ATOM      4  C   UNL     1     -35.686  20.373   2.321  0.00  0.00    +0.048 C 
ATOM      5  C   UNL     1     -36.674  20.056   1.388  0.00  0.00    +0.016 C 
ATOM      6  C   UNL     1     -34.377  19.929   2.130  0.00  0.00    +0.016 C 
ENDROOT
BRANCH   1   7
ATOM      7  N   UNL     1     -34.722  18.089  -1.051  0.00  0.00    -0.296 N 
ATOM      8  H   UNL     1     -35.358  18.178  -1.798  0.00  0.00    +0.154 HD
BRANCH   7  10
ATOM      9  S   UNL     1     -32.230  17.843  -1.899  0.00  0.00    -0.018 S 
ATOM     10  C   UNL     1     -33.675  17.240  -1.297  0.00  0.00    +0.138 C 
BRANCH  10  12
ATOM     11  N   UNL     1     -34.135  13.102  -1.129  0.00  0.00    +0.388 N 
ATOM     12  N   UNL     1     -33.787  15.923  -0.995  0.00  0.00    -0.295 N 
ATOM     13  C   UNL     1     -35.286  14.001  -1.312  0.00  0.00    -0.056 C 
ATOM     14  C   UNL     1     -32.905  13.722  -1.647  0.00  0.00    -0.056 C 
ATOM     15  C   UNL     1     -35.056  15.333  -0.598  0.00  0.00    +0.070 C 
ATOM     16  C   UNL     1     -32.625  15.048  -0.940  0.00  0.00    +0.070 C 
ATOM     17  C   UNL     1     -34.378  11.818  -1.785  0.00  0.00    -0.101 C 
ATOM     18  H   UNL     1     -34.014  12.936  -0.130  0.00  0.00    -0.080 HD
ENDBRANCH  10  12
ENDBRANCH   7  10
ENDBRANCH   1   7
BRANCH   4  19
ATOM     19  N   UNL     1     -36.010  21.142   3.458  0.00  0.00    -0.313 N 
ATOM     20  H   UNL     1     -36.626  20.689   4.080  0.00  0.00    +0.152 HD
BRANCH  19  21
ATOM     21  C   UNL     1     -35.628  22.429   3.880  0.00  0.00    +0.048 C 
ATOM     22  C   UNL     1     -35.509  22.712   5.243  0.00  0.00    +0.016 C 
ATOM     23  C   UNL     1     -35.365  23.424   2.938  0.00  0.00    +0.016 C 
ATOM     24  C   UNL     1     -35.130  23.988   5.660  0.00  0.00    +0.025 C 
ATOM     25  C   UNL     1     -34.985  24.700   3.356  0.00  0.00    +0.025 C 
ATOM     26  C   UNL     1     -34.867  24.982   4.717  0.00  0.00    +0.143 C 
BRANCH  26  29
ATOM     27  O   UNL     1     -34.719  27.261   4.396  0.00  0.00    -0.126 OA
ATOM     28  O   UNL     1     -33.916  26.413   6.256  0.00  0.00    -0.126 OA
ATOM     29  N   UNL     1     -34.482  26.280   5.143  0.00  0.00    +0.058 N 
ENDBRANCH  26  29
ENDBRANCH  19  21
ENDBRANCH   4  19
TORSDOF 6
ENDMDL
