MODEL 1
REMARK VINA RESULT:      -5.0      0.000      0.000
REMARK  Name = 198275
REMARK  8 active torsions:
REMARK  status: ('A' for Active; 'I' for Inactive)
REMARK    1  A    between atoms: C_2  and  C_18
REMARK    2  A    between atoms: C_3  and  C_10
REMARK    3  A    between atoms: C_4  and  O_8
REMARK    4  A    between atoms: C_10  and  S_11
REMARK    5  A    between atoms: S_11  and  P_12
REMARK    6  A    between atoms: P_12  and  O_14
REMARK    7  A    between atoms: P_12  and  O_16
REMARK    8  A    between atoms: C_18  and  N_19
REMARK                            x       y       z     vdW  Elec       q    Type
REMARK                         _______ _______ _______ _____ _____    ______ ____
ROOT
ATOM      1  N   UNL     1     -33.479  25.248   4.088  0.00  0.00    -0.245 NA
ATOM      2  C   UNL     1     -36.190  25.517   3.462  0.00  0.00    -0.011 C 
ATOM      3  C   UNL     1     -35.330  24.872   2.580  0.00  0.00    +0.005 C 
ATOM      4  C   UNL     1     -35.696  26.027   4.657  0.00  0.00    +0.141 C 
ATOM      5  C   UNL     1     -34.344  25.868   4.922  0.00  0.00    +0.092 C 
ATOM      6  C   UNL     1     -33.995  24.765   2.936  0.00  0.00    +0.095 C 
ATOM      7  C   UNL     1     -33.763  26.399   6.190  0.00  0.00    +0.055 C 
ENDROOT
BRANCH   4   8
ATOM      8  O   UNL     1     -36.513  26.661   5.538  0.00  0.00    -0.505 OA
ATOM      9  H   UNL     1     -36.736  27.562   5.405  0.00  0.00    +0.292 HD
ENDBRANCH   4   8
BRANCH   3  10
ATOM     10  C   UNL     1     -35.805  24.304   1.287  0.00  0.00    +0.096 C 
BRANCH  10  11
ATOM     11  S   UNL     1     -35.605  22.498   1.201  0.00  0.00    -0.026 S 
BRANCH  11  12
ATOM     12  P   UNL     1     -37.015  21.735   2.547  0.00  0.00    +0.387 P 
ATOM     13  O   UNL     1     -38.413  22.139   2.167  0.00  0.00    -0.246 OA
BRANCH  12  14
ATOM     14  O   UNL     1     -36.620  22.188   4.054  0.00  0.00    -0.316 OA
ATOM     15  H   UNL     1     -37.035  21.586   4.691  0.00  0.00    +0.221 HD
ENDBRANCH  12  14
BRANCH  12  16
ATOM     16  O   UNL     1     -36.831  20.125   2.634  0.00  0.00    -0.316 OA
ATOM     17  H   UNL     1     -36.277  19.905   3.400  0.00  0.00    +0.221 HD
ENDBRANCH  12  16
ENDBRANCH  11  12
ENDBRANCH  10  11
ENDBRANCH   3  10
BRANCH   2  18
ATOM     18  C   UNL     1     -37.640  25.661   3.130  0.00  0.00    -0.056 C 
BRANCH  18  19
ATOM     19  N   UNL     1     -38.487  24.811   3.966  0.00  0.00    +0.383 N 
ATOM     20  H   UNL     1     -39.425  24.768   3.567  0.00  0.00    -0.089 HD
ATOM     21  H   UNL     1     -38.535  25.200   4.907  0.00  0.00    -0.089 HD
ATOM     22  H   UNL     1     -38.092  23.871   4.006  0.00  0.00    -0.089 HD
ENDBRANCH  18  19
ENDBRANCH   2  18
TORSDOF 8
ENDMDL
MODEL 2
REMARK VINA RESULT:      -5.0      3.109      4.051
REMARK  Name = 198275
REMARK  8 active torsions:
REMARK  status: ('A' for Active; 'I' for Inactive)
REMARK    1  A    between atoms: C_2  and  C_18
REMARK    2  A    between atoms: C_3  and  C_10
REMARK    3  A    between atoms: C_4  and  O_8
REMARK    4  A    between atoms: C_10  and  S_11
REMARK    5  A    between atoms: S_11  and  P_12
REMARK    6  A    between atoms: P_12  and  O_14
REMARK    7  A    between atoms: P_12  and  O_16
REMARK    8  A    between atoms: C_18  and  N_19
REMARK                            x       y       z     vdW  Elec       q    Type
REMARK                         _______ _______ _______ _____ _____    ______ ____
ROOT
ATOM      1  N   UNL     1     -36.347  23.997   4.908  0.00  0.00    -0.245 NA
ATOM      2  C   UNL     1     -36.231  22.067   2.889  0.00  0.00    -0.011 C 
ATOM      3  C   UNL     1     -36.814  23.305   2.640  0.00  0.00    +0.005 C 
ATOM      4  C   UNL     1     -35.705  21.794   4.147  0.00  0.00    +0.141 C 
ATOM      5  C   UNL     1     -35.787  22.783   5.114  0.00  0.00    +0.092 C 
ATOM      6  C   UNL     1     -36.847  24.227   3.673  0.00  0.00    +0.095 C 
ATOM      7  C   UNL     1     -35.240  22.540   6.482  0.00  0.00    +0.055 C 
ENDROOT
BRANCH   4   8
ATOM      8  O   UNL     1     -35.130  20.593   4.418  0.00  0.00    -0.505 OA
ATOM      9  H   UNL     1     -35.248  19.872   3.830  0.00  0.00    +0.292 HD
ENDBRANCH   4   8
BRANCH   3  10
ATOM     10  C   UNL     1     -37.389  23.653   1.311  0.00  0.00    +0.096 C 
BRANCH  10  11
ATOM     11  S   UNL     1     -39.206  23.733   1.335  0.00  0.00    -0.026 S 
BRANCH  11  12
ATOM     12  P   UNL     1     -39.838  21.811   0.801  0.00  0.00    +0.387 P 
ATOM     13  O   UNL     1     -38.873  21.159  -0.152  0.00  0.00    -0.246 OA
BRANCH  12  14
ATOM     14  O   UNL     1     -41.348  21.886   0.210  0.00  0.00    -0.316 OA
ATOM     15  H   UNL     1     -41.869  21.148   0.564  0.00  0.00    +0.221 HD
ENDBRANCH  12  14
BRANCH  12  16
ATOM     16  O   UNL     1     -40.063  20.944   2.154  0.00  0.00    -0.316 OA
ATOM     17  H   UNL     1     -39.216  20.843   2.618  0.00  0.00    +0.221 HD
ENDBRANCH  12  16
ENDBRANCH  11  12
ENDBRANCH  10  11
ENDBRANCH   3  10
BRANCH   2  18
ATOM     18  C   UNL     1     -36.167  21.034   1.811  0.00  0.00    -0.056 C 
BRANCH  18  19
ATOM     19  N   UNL     1     -36.957  19.847   2.134  0.00  0.00    +0.383 N 
ATOM     20  H   UNL     1     -37.776  20.121   2.678  0.00  0.00    -0.089 HD
ATOM     21  H   UNL     1     -36.389  19.198   2.678  0.00  0.00    -0.089 HD
ATOM     22  H   UNL     1     -37.259  19.393   1.271  0.00  0.00    -0.089 HD
ENDBRANCH  18  19
ENDBRANCH   2  18
TORSDOF 8
ENDMDL
MODEL 3
REMARK VINA RESULT:      -4.9      3.487      4.274
REMARK  Name = 198275
REMARK  8 active torsions:
REMARK  status: ('A' for Active; 'I' for Inactive)
REMARK    1  A    between atoms: C_2  and  C_18
REMARK    2  A    between atoms: C_3  and  C_10
REMARK    3  A    between atoms: C_4  and  O_8
REMARK    4  A    between atoms: C_10  and  S_11
REMARK    5  A    between atoms: S_11  and  P_12
REMARK    6  A    between atoms: P_12  and  O_14
REMARK    7  A    between atoms: P_12  and  O_16
REMARK    8  A    between atoms: C_18  and  N_19
REMARK                            x       y       z     vdW  Elec       q    Type
REMARK                         _______ _______ _______ _____ _____    ______ ____
ROOT
ATOM      1  N   UNL     1     -36.034  24.043   5.252  0.00  0.00    -0.245 NA
ATOM      2  C   UNL     1     -36.399  22.494   2.954  0.00  0.00    -0.011 C 
ATOM      3  C   UNL     1     -36.772  23.833   2.960  0.00  0.00    +0.005 C 
ATOM      4  C   UNL     1     -35.844  21.928   4.097  0.00  0.00    +0.141 C 
ATOM      5  C   UNL     1     -35.683  22.738   5.210  0.00  0.00    +0.092 C 
ATOM      6  C   UNL     1     -36.570  24.558   4.123  0.00  0.00    +0.095 C 
ATOM      7  C   UNL     1     -35.093  22.180   6.462  0.00  0.00    +0.055 C 
ENDROOT
BRANCH   4   8
ATOM      8  O   UNL     1     -35.471  20.621   4.119  0.00  0.00    -0.505 OA
ATOM      9  H   UNL     1     -35.867  20.010   3.529  0.00  0.00    +0.292 HD
ENDBRANCH   4   8
BRANCH   3  10
ATOM     10  C   UNL     1     -37.368  24.492   1.764  0.00  0.00    +0.096 C 
BRANCH  10  11
ATOM     11  S   UNL     1     -38.093  26.115   2.148  0.00  0.00    -0.026 S 
BRANCH  11  12
ATOM     12  P   UNL     1     -40.063  25.703   2.722  0.00  0.00    +0.387 P 
ATOM     13  O   UNL     1     -40.921  26.939   2.670  0.00  0.00    -0.246 OA
BRANCH  12  14
ATOM     14  O   UNL     1     -40.062  25.003   4.186  0.00  0.00    -0.316 OA
ATOM     15  H   UNL     1     -40.328  25.654   4.855  0.00  0.00    +0.221 HD
ENDBRANCH  12  14
BRANCH  12  16
ATOM     16  O   UNL     1     -40.636  24.505   1.790  0.00  0.00    -0.316 OA
ATOM     17  H   UNL     1     -39.898  24.066   1.338  0.00  0.00    +0.221 HD
ENDBRANCH  12  16
ENDBRANCH  11  12
ENDBRANCH  10  11
ENDBRANCH   3  10
BRANCH   2  18
ATOM     18  C   UNL     1     -36.593  21.663   1.727  0.00  0.00    -0.056 C 
BRANCH  18  19
ATOM     19  N   UNL     1     -37.481  20.525   1.963  0.00  0.00    +0.383 N 
ATOM     20  H   UNL     1     -36.923  19.684   2.116  0.00  0.00    -0.089 HD
ATOM     21  H   UNL     1     -38.083  20.390   1.152  0.00  0.00    -0.089 HD
ATOM     22  H   UNL     1     -38.055  20.706   2.787  0.00  0.00    -0.089 HD
ENDBRANCH  18  19
ENDBRANCH   2  18
TORSDOF 8
ENDMDL
MODEL 4
REMARK VINA RESULT:      -4.8      3.262      4.980
REMARK  Name = 198275
REMARK  8 active torsions:
REMARK  status: ('A' for Active; 'I' for Inactive)
REMARK    1  A    between atoms: C_2  and  C_18
REMARK    2  A    between atoms: C_3  and  C_10
REMARK    3  A    between atoms: C_4  and  O_8
REMARK    4  A    between atoms: C_10  and  S_11
REMARK    5  A    between atoms: S_11  and  P_12
REMARK    6  A    between atoms: P_12  and  O_14
REMARK    7  A    between atoms: P_12  and  O_16
REMARK    8  A    between atoms: C_18  and  N_19
REMARK                            x       y       z     vdW  Elec       q    Type
REMARK                         _______ _______ _______ _____ _____    ______ ____
ROOT
ATOM      1  N   UNL     1     -34.030  21.631   0.895  0.00  0.00    -0.245 NA
ATOM      2  C   UNL     1     -36.570  21.957   2.015  0.00  0.00    -0.011 C 
ATOM      3  C   UNL     1     -35.896  23.051   1.483  0.00  0.00    +0.005 C 
ATOM      4  C   UNL     1     -35.976  20.701   1.987  0.00  0.00    +0.141 C 
ATOM      5  C   UNL     1     -34.716  20.591   1.421  0.00  0.00    +0.092 C 
ATOM      6  C   UNL     1     -34.639  22.837   0.940  0.00  0.00    +0.095 C 
ATOM      7  C   UNL     1     -34.032  19.265   1.367  0.00  0.00    +0.055 C 
ENDROOT
BRANCH   4   8
ATOM      8  O   UNL     1     -36.613  19.615   2.499  0.00  0.00    -0.505 OA
ATOM      9  H   UNL     1     -37.427  19.719   2.952  0.00  0.00    +0.292 HD
ENDBRANCH   4   8
BRANCH   3  10
ATOM     10  C   UNL     1     -36.486  24.419   1.484  0.00  0.00    +0.096 C 
BRANCH  10  11
ATOM     11  S   UNL     1     -35.662  25.535   2.659  0.00  0.00    -0.026 S 
BRANCH  11  12
ATOM     12  P   UNL     1     -36.655  25.234   4.476  0.00  0.00    +0.387 P 
ATOM     13  O   UNL     1     -36.153  24.003   5.181  0.00  0.00    -0.246 OA
BRANCH  12  14
ATOM     14  O   UNL     1     -38.256  25.196   4.214  0.00  0.00    -0.316 OA
ATOM     15  H   UNL     1     -38.722  25.453   5.025  0.00  0.00    +0.221 HD
ENDBRANCH  12  14
BRANCH  12  16
ATOM     16  O   UNL     1     -36.507  26.575   5.378  0.00  0.00    -0.316 OA
ATOM     17  H   UNL     1     -37.361  26.782   5.791  0.00  0.00    +0.221 HD
ENDBRANCH  12  16
ENDBRANCH  11  12
ENDBRANCH  10  11
ENDBRANCH   3  10
BRANCH   2  18
ATOM     18  C   UNL     1     -37.929  22.129   2.613  0.00  0.00    -0.056 C 
BRANCH  18  19
ATOM     19  N   UNL     1     -38.899  21.180   2.067  0.00  0.00    +0.383 N 
ATOM     20  H   UNL     1     -38.466  20.260   1.986  0.00  0.00    -0.089 HD
ATOM     21  H   UNL     1     -39.202  21.496   1.146  0.00  0.00    -0.089 HD
ATOM     22  H   UNL     1     -39.706  21.122   2.689  0.00  0.00    -0.089 HD
ENDBRANCH  18  19
ENDBRANCH   2  18
TORSDOF 8
ENDMDL
MODEL 5
REMARK VINA RESULT:      -4.8      2.878      3.296
REMARK  Name = 198275
REMARK  8 active torsions:
REMARK  status: ('A' for Active; 'I' for Inactive)
REMARK    1  A    between atoms: C_2  and  C_18
REMARK    2  A    between atoms: C_3  and  C_10
REMARK    3  A    between atoms: C_4  and  O_8
REMARK    4  A    between atoms: C_10  and  S_11
REMARK    5  A    between atoms: S_11  and  P_12
REMARK    6  A    between atoms: P_12  and  O_14
REMARK    7  A    between atoms: P_12  and  O_16
REMARK    8  A    between atoms: C_18  and  N_19
REMARK                            x       y       z     vdW  Elec       q    Type
REMARK                         _______ _______ _______ _____ _____    ______ ____
ROOT
ATOM      1  N   UNL     1     -35.253  21.003   3.863  0.00  0.00    -0.245 NA
ATOM      2  C   UNL     1     -36.625  23.352   3.220  0.00  0.00    -0.011 C 
ATOM      3  C   UNL     1     -36.429  22.371   2.254  0.00  0.00    +0.005 C 
ATOM      4  C   UNL     1     -36.136  23.159   4.507  0.00  0.00    +0.141 C 
ATOM      5  C   UNL     1     -35.462  21.978   4.776  0.00  0.00    +0.092 C 
ATOM      6  C   UNL     1     -35.742  21.226   2.622  0.00  0.00    +0.095 C 
ATOM      7  C   UNL     1     -34.916  21.722   6.141  0.00  0.00    +0.055 C 
ENDROOT
BRANCH   4   8
ATOM      8  O   UNL     1     -36.314  24.101   5.471  0.00  0.00    -0.505 OA
ATOM      9  H   UNL     1     -36.404  25.004   5.233  0.00  0.00    +0.292 HD
ENDBRANCH   4   8
BRANCH   3  10
ATOM     10  C   UNL     1     -36.933  22.523   0.861  0.00  0.00    +0.096 C 
BRANCH  10  11
ATOM     11  S   UNL     1     -38.035  21.164   0.363  0.00  0.00    -0.026 S 
BRANCH  11  12
ATOM     12  P   UNL     1     -39.907  21.671   1.148  0.00  0.00    +0.387 P 
ATOM     13  O   UNL     1     -40.071  23.163   1.259  0.00  0.00    -0.246 OA
BRANCH  12  14
ATOM     14  O   UNL     1     -40.120  20.912   2.567  0.00  0.00    -0.316 OA
ATOM     15  H   UNL     1     -41.069  20.799   2.733  0.00  0.00    +0.221 HD
ENDBRANCH  12  14
BRANCH  12  16
ATOM     16  O   UNL     1     -41.058  20.981   0.236  0.00  0.00    -0.316 OA
ATOM     17  H   UNL     1     -40.993  20.015   0.311  0.00  0.00    +0.221 HD
ENDBRANCH  12  16
ENDBRANCH  11  12
ENDBRANCH  10  11
ENDBRANCH   3  10
BRANCH   2  18
ATOM     18  C   UNL     1     -37.360  24.608   2.879  0.00  0.00    -0.056 C 
BRANCH  18  19
ATOM     19  N   UNL     1     -38.600  24.749   3.641  0.00  0.00    +0.383 N 
ATOM     20  H   UNL     1     -39.106  25.574   3.318  0.00  0.00    -0.089 HD
ATOM     21  H   UNL     1     -38.381  24.851   4.631  0.00  0.00    -0.089 HD
ATOM     22  H   UNL     1     -39.180  23.920   3.504  0.00  0.00    -0.089 HD
ENDBRANCH  18  19
ENDBRANCH   2  18
TORSDOF 8
ENDMDL
MODEL 6
REMARK VINA RESULT:      -4.6      3.281      5.215
REMARK  Name = 198275
REMARK  8 active torsions:
REMARK  status: ('A' for Active; 'I' for Inactive)
REMARK    1  A    between atoms: C_2  and  C_18
REMARK    2  A    between atoms: C_3  and  C_10
REMARK    3  A    between atoms: C_4  and  O_8
REMARK    4  A    between atoms: C_10  and  S_11
REMARK    5  A    between atoms: S_11  and  P_12
REMARK    6  A    between atoms: P_12  and  O_14
REMARK    7  A    between atoms: P_12  and  O_16
REMARK    8  A    between atoms: C_18  and  N_19
REMARK                            x       y       z     vdW  Elec       q    Type
REMARK                         _______ _______ _______ _____ _____    ______ ____
ROOT
ATOM      1  N   UNL     1     -33.897  21.688   0.542  0.00  0.00    -0.245 NA
ATOM      2  C   UNL     1     -35.709  22.438   2.534  0.00  0.00    -0.011 C 
ATOM      3  C   UNL     1     -35.031  23.409   1.806  0.00  0.00    +0.005 C 
ATOM      4  C   UNL     1     -35.483  21.092   2.267  0.00  0.00    +0.141 C 
ATOM      5  C   UNL     1     -34.575  20.772   1.270  0.00  0.00    +0.092 C 
ATOM      6  C   UNL     1     -34.143  22.986   0.830  0.00  0.00    +0.095 C 
ATOM      7  C   UNL     1     -34.294  19.343   0.945  0.00  0.00    +0.055 C 
ENDROOT
BRANCH   4   8
ATOM      8  O   UNL     1     -36.132  20.123   2.963  0.00  0.00    -0.505 OA
ATOM      9  H   UNL     1     -35.679  19.637   3.625  0.00  0.00    +0.292 HD
ENDBRANCH   4   8
BRANCH   3  10
ATOM     10  C   UNL     1     -35.236  24.865   2.047  0.00  0.00    +0.096 C 
BRANCH  10  11
ATOM     11  S   UNL     1     -33.822  25.641   2.886  0.00  0.00    -0.026 S 
BRANCH  11  12
ATOM     12  P   UNL     1     -34.490  26.020   4.832  0.00  0.00    +0.387 P 
ATOM     13  O   UNL     1     -34.620  24.749   5.626  0.00  0.00    -0.246 OA
BRANCH  12  14
ATOM     14  O   UNL     1     -35.874  26.865   4.771  0.00  0.00    -0.316 OA
ATOM     15  H   UNL     1     -36.565  26.322   4.361  0.00  0.00    +0.221 HD
ENDBRANCH  12  14
BRANCH  12  16
ATOM     16  O   UNL     1     -33.487  27.091   5.526  0.00  0.00    -0.316 OA
ATOM     17  H   UNL     1     -33.022  26.667   6.265  0.00  0.00    +0.221 HD
ENDBRANCH  12  16
ENDBRANCH  11  12
ENDBRANCH  10  11
ENDBRANCH   3  10
BRANCH   2  18
ATOM     18  C   UNL     1     -36.680  22.836   3.599  0.00  0.00    -0.056 C 
BRANCH  18  19
ATOM     19  N   UNL     1     -36.235  22.433   4.932  0.00  0.00    +0.383 N 
ATOM     20  H   UNL     1     -35.220  22.519   4.993  0.00  0.00    -0.089 HD
ATOM     21  H   UNL     1     -36.505  21.465   5.102  0.00  0.00    -0.089 HD
ATOM     22  H   UNL     1     -36.668  23.035   5.633  0.00  0.00    -0.089 HD
ENDBRANCH  18  19
ENDBRANCH   2  18
TORSDOF 8
ENDMDL
MODEL 7
REMARK VINA RESULT:      -4.6      1.379      1.866
REMARK  Name = 198275
REMARK  8 active torsions:
REMARK  status: ('A' for Active; 'I' for Inactive)
REMARK    1  A    between atoms: C_2  and  C_18
REMARK    2  A    between atoms: C_3  and  C_10
REMARK    3  A    between atoms: C_4  and  O_8
REMARK    4  A    between atoms: C_10  and  S_11
REMARK    5  A    between atoms: S_11  and  P_12
REMARK    6  A    between atoms: P_12  and  O_14
REMARK    7  A    between atoms: P_12  and  O_16
REMARK    8  A    between atoms: C_18  and  N_19
REMARK                            x       y       z     vdW  Elec       q    Type
REMARK                         _______ _______ _______ _____ _____    ______ ____
ROOT
ATOM      1  N   UNL     1     -33.912  24.758   3.885  0.00  0.00    -0.245 NA
ATOM      2  C   UNL     1     -36.700  24.884   3.728  0.00  0.00    -0.011 C 
ATOM      3  C   UNL     1     -35.990  24.043   2.878  0.00  0.00    +0.005 C 
ATOM      4  C   UNL     1     -36.018  25.662   4.656  0.00  0.00    +0.141 C 
ATOM      5  C   UNL     1     -34.636  25.564   4.695  0.00  0.00    +0.092 C 
ATOM      6  C   UNL     1     -34.610  24.017   2.996  0.00  0.00    +0.095 C 
ATOM      7  C   UNL     1     -33.855  26.379   5.672  0.00  0.00    +0.055 C 
ENDROOT
BRANCH   4   8
ATOM      8  O   UNL     1     -36.687  26.492   5.499  0.00  0.00    -0.505 OA
ATOM      9  H   UNL     1     -37.544  26.799   5.273  0.00  0.00    +0.292 HD
ENDBRANCH   4   8
BRANCH   3  10
ATOM     10  C   UNL     1     -36.669  23.185   1.867  0.00  0.00    +0.096 C 
BRANCH  10  11
ATOM     11  S   UNL     1     -35.506  22.125   0.954  0.00  0.00    -0.026 S 
BRANCH  11  12
ATOM     12  P   UNL     1     -35.448  20.334   2.034  0.00  0.00    +0.387 P 
ATOM     13  O   UNL     1     -34.144  19.611   1.831  0.00  0.00    -0.246 OA
BRANCH  12  14
ATOM     14  O   UNL     1     -36.734  19.427   1.642  0.00  0.00    -0.316 OA
ATOM     15  H   UNL     1     -37.355  19.408   2.387  0.00  0.00    +0.221 HD
ENDBRANCH  12  14
BRANCH  12  16
ATOM     16  O   UNL     1     -35.745  20.659   3.596  0.00  0.00    -0.316 OA
ATOM     17  H   UNL     1     -34.943  20.496   4.118  0.00  0.00    +0.221 HD
ENDBRANCH  12  16
ENDBRANCH  11  12
ENDBRANCH  10  11
ENDBRANCH   3  10
BRANCH   2  18
ATOM     18  C   UNL     1     -38.191  24.952   3.646  0.00  0.00    -0.056 C 
BRANCH  18  19
ATOM     19  N   UNL     1     -38.663  26.273   3.234  0.00  0.00    +0.383 N 
ATOM     20  H   UNL     1     -38.261  26.511   2.327  0.00  0.00    -0.089 HD
ATOM     21  H   UNL     1     -38.378  26.967   3.925  0.00  0.00    -0.089 HD
ATOM     22  H   UNL     1     -39.681  26.264   3.162  0.00  0.00    -0.089 HD
ENDBRANCH  18  19
ENDBRANCH   2  18
TORSDOF 8
ENDMDL
MODEL 8
REMARK VINA RESULT:      -4.6      3.024      3.624
REMARK  Name = 198275
REMARK  8 active torsions:
REMARK  status: ('A' for Active; 'I' for Inactive)
REMARK    1  A    between atoms: C_2  and  C_18
REMARK    2  A    between atoms: C_3  and  C_10
REMARK    3  A    between atoms: C_4  and  O_8
REMARK    4  A    between atoms: C_10  and  S_11
REMARK    5  A    between atoms: S_11  and  P_12
REMARK    6  A    between atoms: P_12  and  O_14
REMARK    7  A    between atoms: P_12  and  O_16
REMARK    8  A    between atoms: C_18  and  N_19
REMARK                            x       y       z     vdW  Elec       q    Type
REMARK                         _______ _______ _______ _____ _____    ______ ____
ROOT
ATOM      1  N   UNL     1     -36.384  22.308   4.250  0.00  0.00    -0.245 NA
ATOM      2  C   UNL     1     -35.423  24.850   3.595  0.00  0.00    -0.011 C 
ATOM      3  C   UNL     1     -36.299  24.192   2.738  0.00  0.00    +0.005 C 
ATOM      4  C   UNL     1     -35.028  24.238   4.779  0.00  0.00    +0.141 C 
ATOM      5  C   UNL     1     -35.532  22.977   5.059  0.00  0.00    +0.092 C 
ATOM      6  C   UNL     1     -36.747  22.934   3.108  0.00  0.00    +0.095 C 
ATOM      7  C   UNL     1     -35.138  22.276   6.316  0.00  0.00    +0.055 C 
ENDROOT
BRANCH   4   8
ATOM      8  O   UNL     1     -34.172  24.857   5.634  0.00  0.00    -0.505 OA
ATOM      9  H   UNL     1     -34.021  24.500   6.488  0.00  0.00    +0.292 HD
ENDBRANCH   4   8
BRANCH   3  10
ATOM     10  C   UNL     1     -36.759  24.801   1.459  0.00  0.00    +0.096 C 
BRANCH  10  11
ATOM     11  S   UNL     1     -38.541  24.576   1.177  0.00  0.00    -0.026 S 
BRANCH  11  12
ATOM     12  P   UNL     1     -39.471  25.720   2.663  0.00  0.00    +0.387 P 
ATOM     13  O   UNL     1     -40.580  26.563   2.095  0.00  0.00    -0.246 OA
BRANCH  12  14
ATOM     14  O   UNL     1     -38.352  26.600   3.443  0.00  0.00    -0.316 OA
ATOM     15  H   UNL     1     -37.693  26.007   3.836  0.00  0.00    +0.221 HD
ENDBRANCH  12  14
BRANCH  12  16
ATOM     16  O   UNL     1     -39.980  24.727   3.841  0.00  0.00    -0.316 OA
ATOM     17  H   UNL     1     -40.246  23.877   3.454  0.00  0.00    +0.221 HD
ENDBRANCH  12  16
ENDBRANCH  11  12
ENDBRANCH  10  11
ENDBRANCH   3  10
BRANCH   2  18
ATOM     18  C   UNL     1     -34.908  26.209   3.247  0.00  0.00    -0.056 C 
BRANCH  18  19
ATOM     19  N   UNL     1     -35.473  27.251   4.104  0.00  0.00    +0.383 N 
ATOM     20  H   UNL     1     -35.120  28.162   3.809  0.00  0.00    -0.089 HD
ATOM     21  H   UNL     1     -35.204  27.079   5.072  0.00  0.00    -0.089 HD
ATOM     22  H   UNL     1     -36.491  27.241   4.027  0.00  0.00    -0.089 HD
ENDBRANCH  18  19
ENDBRANCH   2  18
TORSDOF 8
ENDMDL
MODEL 9
REMARK VINA RESULT:      -4.5      3.385      5.473
REMARK  Name = 198275
REMARK  8 active torsions:
REMARK  status: ('A' for Active; 'I' for Inactive)
REMARK    1  A    between atoms: C_2  and  C_18
REMARK    2  A    between atoms: C_3  and  C_10
REMARK    3  A    between atoms: C_4  and  O_8
REMARK    4  A    between atoms: C_10  and  S_11
REMARK    5  A    between atoms: S_11  and  P_12
REMARK    6  A    between atoms: P_12  and  O_14
REMARK    7  A    between atoms: P_12  and  O_16
REMARK    8  A    between atoms: C_18  and  N_19
REMARK                            x       y       z     vdW  Elec       q    Type
REMARK                         _______ _______ _______ _____ _____    ______ ____
ROOT
ATOM      1  N   UNL     1     -37.745  22.916   1.549  0.00  0.00    -0.245 NA
ATOM      2  C   UNL     1     -36.199  22.840   3.877  0.00  0.00    -0.011 C 
ATOM      3  C   UNL     1     -36.855  24.011   3.512  0.00  0.00    +0.005 C 
ATOM      4  C   UNL     1     -36.316  21.708   3.079  0.00  0.00    +0.141 C 
ATOM      5  C   UNL     1     -37.093  21.796   1.935  0.00  0.00    +0.092 C 
ATOM      6  C   UNL     1     -37.608  23.997   2.349  0.00  0.00    +0.095 C 
ATOM      7  C   UNL     1     -37.250  20.609   1.043  0.00  0.00    +0.055 C 
ENDROOT
BRANCH   4   8
ATOM      8  O   UNL     1     -35.685  20.551   3.412  0.00  0.00    -0.505 OA
ATOM      9  H   UNL     1     -35.998  20.035   4.130  0.00  0.00    +0.292 HD
ENDBRANCH   4   8
BRANCH   3  10
ATOM     10  C   UNL     1     -36.768  25.253   4.330  0.00  0.00    +0.096 C 
BRANCH  10  11
ATOM     11  S   UNL     1     -35.733  26.531   3.553  0.00  0.00    -0.026 S 
BRANCH  11  12
ATOM     12  P   UNL     1     -33.927  26.479   4.609  0.00  0.00    +0.387 P 
ATOM     13  O   UNL     1     -33.031  25.378   4.111  0.00  0.00    -0.246 OA
BRANCH  12  14
ATOM     14  O   UNL     1     -34.236  26.365   6.198  0.00  0.00    -0.316 OA
ATOM     15  H   UNL     1     -35.079  26.802   6.394  0.00  0.00    +0.221 HD
ENDBRANCH  12  14
BRANCH  12  16
ATOM     16  O   UNL     1     -33.230  27.941   4.519  0.00  0.00    -0.316 OA
ATOM     17  H   UNL     1     -32.546  28.015   5.203  0.00  0.00    +0.221 HD
ENDBRANCH  12  16
ENDBRANCH  11  12
ENDBRANCH  10  11
ENDBRANCH   3  10
BRANCH   2  18
ATOM     18  C   UNL     1     -35.372  22.797   5.122  0.00  0.00    -0.056 C 
BRANCH  18  19
ATOM     19  N   UNL     1     -35.954  21.927   6.143  0.00  0.00    +0.383 N 
ATOM     20  H   UNL     1     -36.078  22.453   7.008  0.00  0.00    -0.089 HD
ATOM     21  H   UNL     1     -35.331  21.137   6.311  0.00  0.00    -0.089 HD
ATOM     22  H   UNL     1     -36.860  21.583   5.822  0.00  0.00    -0.089 HD
ENDBRANCH  18  19
ENDBRANCH   2  18
TORSDOF 8
ENDMDL
