MODEL 1
REMARK VINA RESULT:      -7.6      0.000      0.000
REMARK  Name = 57337607
REMARK  3 active torsions:
REMARK  status: ('A' for Active; 'I' for Inactive)
REMARK    1  A    between atoms: C_1  and  C_6
REMARK    2  A    between atoms: C_1  and  C_22
REMARK    3  A    between atoms: C_22  and  O_32
REMARK                            x       y       z     vdW  Elec       q    Type
REMARK                         _______ _______ _______ _____ _____    ______ ____
ROOT
ATOM      1  C   UNL     1     -34.034  26.235   2.365  0.00  0.00    +0.106 C 
ENDROOT
BRANCH   1   6
ATOM      2  O   UNL     1     -37.122  26.266   0.915  0.00  0.00    -0.273 OA
ATOM      3  O   UNL     1     -35.996  26.283   6.160  0.00  0.00    -0.270 OA
ATOM      4  N   UNL     1     -35.807  26.908   3.988  0.00  0.00    -0.296 N 
ATOM      5  N   UNL     1     -36.691  24.597   2.365  0.00  0.00    -0.283 N 
ATOM      6  C   UNL     1     -35.456  26.769   2.580  0.00  0.00    +0.133 C 
ATOM      7  C   UNL     1     -35.517  28.177   1.945  0.00  0.00    +0.029 C 
ATOM      8  C   UNL     1     -36.514  25.885   1.922  0.00  0.00    +0.242 C 
ATOM      9  C   UNL     1     -35.827  25.964   4.982  0.00  0.00    +0.247 C 
ATOM     10  C   UNL     1     -36.157  23.930   3.483  0.00  0.00    +0.055 C 
ATOM     11  C   UNL     1     -35.675  24.532   4.651  0.00  0.00    +0.067 C 
ATOM     12  C   UNL     1     -36.144  22.525   3.391  0.00  0.00    +0.015 C 
ATOM     13  C   UNL     1     -35.136  23.725   5.672  0.00  0.00    +0.006 C 
ATOM     14  C   UNL     1     -35.609  21.735   4.408  0.00  0.00    +0.001 C 
ATOM     15  C   UNL     1     -35.094  22.337   5.546  0.00  0.00    +0.000 C 
ATOM     16  H   UNL     1     -36.070  27.815   4.267  0.00  0.00    +0.150 HD
ATOM     17  H   UNL     1     -37.292  24.050   1.809  0.00  0.00    +0.155 HD
ENDBRANCH   1   6
BRANCH   1  22
ATOM     18  O   UNL     1     -33.534  28.357   3.257  0.00  0.00    -0.419 OA
ATOM     19  O   UNL     1     -31.469  26.460   1.451  0.00  0.00    -0.268 OA
ATOM     20  O   UNL     1     -33.595  30.439   4.089  0.00  0.00    -0.245 OA
ATOM     21  N   UNL     1     -30.631  27.650   3.195  0.00  0.00    -0.279 N 
ATOM     22  C   UNL     1     -33.023  27.019   3.213  0.00  0.00    +0.301 C 
ATOM     23  C   UNL     1     -31.662  27.029   2.529  0.00  0.00    +0.290 C 
ATOM     24  C   UNL     1     -30.693  28.410   4.377  0.00  0.00    +0.057 C 
ATOM     25  C   UNL     1     -33.043  29.344   4.033  0.00  0.00    +0.344 C 
ATOM     26  C   UNL     1     -31.821  29.104   4.835  0.00  0.00    +0.089 C 
ATOM     27  C   UNL     1     -29.504  28.471   5.126  0.00  0.00    +0.015 C 
ATOM     28  C   UNL     1     -31.759  29.786   6.064  0.00  0.00    +0.008 C 
ATOM     29  C   UNL     1     -29.455  29.150   6.342  0.00  0.00    +0.001 C 
ATOM     30  C   UNL     1     -30.587  29.797   6.818  0.00  0.00    +0.000 C 
ATOM     31  H   UNL     1     -29.737  27.550   2.793  0.00  0.00    +0.155 HD
BRANCH  22  32
ATOM     32  O   UNL     1     -32.929  26.400   4.487  0.00  0.00    -0.348 OA
ATOM     33  H   UNL     1     -32.734  25.456   4.376  0.00  0.00    +0.214 HD
ENDBRANCH  22  32
ENDBRANCH   1  22
TORSDOF 3
ENDMDL
MODEL 2
REMARK VINA RESULT:      -7.4      2.747      4.464
REMARK  Name = 57337607
REMARK  3 active torsions:
REMARK  status: ('A' for Active; 'I' for Inactive)
REMARK    1  A    between atoms: C_1  and  C_6
REMARK    2  A    between atoms: C_1  and  C_22
REMARK    3  A    between atoms: C_22  and  O_32
REMARK                            x       y       z     vdW  Elec       q    Type
REMARK                         _______ _______ _______ _____ _____    ______ ____
ROOT
ATOM      1  C   UNL     1     -36.850  23.793   1.651  0.00  0.00    +0.106 C 
ENDROOT
BRANCH   1   6
ATOM      2  O   UNL     1     -39.849  22.218   2.072  0.00  0.00    -0.273 OA
ATOM      3  O   UNL     1     -35.268  21.235   4.685  0.00  0.00    -0.270 OA
ATOM      4  N   UNL     1     -36.922  22.500   3.786  0.00  0.00    -0.296 N 
ATOM      5  N   UNL     1     -38.077  20.923   1.564  0.00  0.00    -0.283 N 
ATOM      6  C   UNL     1     -37.711  23.115   2.726  0.00  0.00    +0.133 C 
ATOM      7  C   UNL     1     -38.582  24.215   3.375  0.00  0.00    +0.029 C 
ATOM      8  C   UNL     1     -38.627  22.040   2.144  0.00  0.00    +0.242 C 
ATOM      9  C   UNL     1     -35.954  21.531   3.707  0.00  0.00    +0.247 C 
ATOM     10  C   UNL     1     -36.745  20.469   1.529  0.00  0.00    +0.055 C 
ATOM     11  C   UNL     1     -35.736  20.800   2.441  0.00  0.00    +0.067 C 
ATOM     12  C   UNL     1     -36.444  19.582   0.478  0.00  0.00    +0.015 C 
ATOM     13  C   UNL     1     -34.437  20.289   2.249  0.00  0.00    +0.006 C 
ATOM     14  C   UNL     1     -35.155  19.081   0.297  0.00  0.00    +0.001 C 
ATOM     15  C   UNL     1     -34.147  19.445   1.178  0.00  0.00    +0.000 C 
ATOM     16  H   UNL     1     -37.111  22.828   4.694  0.00  0.00    +0.150 HD
ATOM     17  H   UNL     1     -38.721  20.344   1.096  0.00  0.00    +0.155 HD
ENDBRANCH   1   6
BRANCH   1  22
ATOM     18  O   UNL     1     -36.448  25.071   3.589  0.00  0.00    -0.419 OA
ATOM     19  O   UNL     1     -36.683  26.254   0.479  0.00  0.00    -0.268 OA
ATOM     20  O   UNL     1     -36.313  25.875   5.678  0.00  0.00    -0.245 OA
ATOM     21  N   UNL     1     -35.147  27.156   1.888  0.00  0.00    -0.279 N 
ATOM     22  C   UNL     1     -35.918  24.838   2.277  0.00  0.00    +0.301 C 
ATOM     23  C   UNL     1     -35.974  26.134   1.481  0.00  0.00    +0.290 C 
ATOM     24  C   UNL     1     -34.345  27.216   3.042  0.00  0.00    +0.057 C 
ATOM     25  C   UNL     1     -35.841  25.800   4.547  0.00  0.00    +0.344 C 
ATOM     26  C   UNL     1     -34.585  26.519   4.233  0.00  0.00    +0.089 C 
ATOM     27  C   UNL     1     -33.230  28.070   2.965  0.00  0.00    +0.015 C 
ATOM     28  C   UNL     1     -33.671  26.633   5.296  0.00  0.00    +0.008 C 
ATOM     29  C   UNL     1     -32.331  28.176   4.026  0.00  0.00    +0.001 C 
ATOM     30  C   UNL     1     -32.544  27.447   5.187  0.00  0.00    +0.000 C 
ATOM     31  H   UNL     1     -35.113  27.943   1.298  0.00  0.00    +0.155 HD
BRANCH  22  32
ATOM     32  O   UNL     1     -34.596  24.316   2.280  0.00  0.00    -0.348 OA
ATOM     33  H   UNL     1     -33.960  25.047   2.223  0.00  0.00    +0.214 HD
ENDBRANCH  22  32
ENDBRANCH   1  22
TORSDOF 3
ENDMDL
MODEL 3
REMARK VINA RESULT:      -7.4      2.700      4.405
REMARK  Name = 57337607
REMARK  3 active torsions:
REMARK  status: ('A' for Active; 'I' for Inactive)
REMARK    1  A    between atoms: C_1  and  C_6
REMARK    2  A    between atoms: C_1  and  C_22
REMARK    3  A    between atoms: C_22  and  O_32
REMARK                            x       y       z     vdW  Elec       q    Type
REMARK                         _______ _______ _______ _____ _____    ______ ____
ROOT
ATOM      1  C   UNL     1     -34.909  24.767   3.560  0.00  0.00    +0.106 C 
ENDROOT
BRANCH   1   6
ATOM      2  O   UNL     1     -38.299  24.957   3.899  0.00  0.00    -0.273 OA
ATOM      3  O   UNL     1     -35.105  20.916   5.399  0.00  0.00    -0.270 OA
ATOM      4  N   UNL     1     -35.770  23.074   5.179  0.00  0.00    -0.296 N 
ATOM      5  N   UNL     1     -37.483  23.188   2.769  0.00  0.00    -0.283 N 
ATOM      6  C   UNL     1     -36.050  24.324   4.486  0.00  0.00    +0.133 C 
ATOM      7  C   UNL     1     -36.221  25.423   5.559  0.00  0.00    +0.029 C 
ATOM      8  C   UNL     1     -37.371  24.155   3.737  0.00  0.00    +0.242 C 
ATOM      9  C   UNL     1     -35.474  21.836   4.668  0.00  0.00    +0.247 C 
ATOM     10  C   UNL     1     -36.605  22.148   2.406  0.00  0.00    +0.055 C 
ATOM     11  C   UNL     1     -35.623  21.574   3.221  0.00  0.00    +0.067 C 
ATOM     12  C   UNL     1     -36.779  21.649   1.101  0.00  0.00    +0.015 C 
ATOM     13  C   UNL     1     -34.797  20.560   2.697  0.00  0.00    +0.006 C 
ATOM     14  C   UNL     1     -35.956  20.644   0.593  0.00  0.00    +0.001 C 
ATOM     15  C   UNL     1     -34.956  20.108   1.389  0.00  0.00    +0.000 C 
ATOM     16  H   UNL     1     -35.797  23.124   6.162  0.00  0.00    +0.150 HD
ATOM     17  H   UNL     1     -38.313  23.227   2.242  0.00  0.00    +0.155 HD
ENDBRANCH   1   6
BRANCH   1  22
ATOM     18  O   UNL     1     -35.009  26.266   1.745  0.00  0.00    -0.419 OA
ATOM     19  O   UNL     1     -32.989  26.526   4.387  0.00  0.00    -0.268 OA
ATOM     20  O   UNL     1     -35.296  27.261  -0.244  0.00  0.00    -0.245 OA
ATOM     21  N   UNL     1     -33.909  28.410   3.514  0.00  0.00    -0.279 N 
ATOM     22  C   UNL     1     -35.060  26.246   3.178  0.00  0.00    +0.301 C 
ATOM     23  C   UNL     1     -33.890  27.051   3.728  0.00  0.00    +0.290 C 
ATOM     24  C   UNL     1     -34.806  29.152   2.724  0.00  0.00    +0.057 C 
ATOM     25  C   UNL     1     -35.266  27.346   0.980  0.00  0.00    +0.344 C 
ATOM     26  C   UNL     1     -35.520  28.655   1.625  0.00  0.00    +0.089 C 
ATOM     27  C   UNL     1     -34.959  30.503   3.081  0.00  0.00    +0.015 C 
ATOM     28  C   UNL     1     -36.424  29.497   0.952  0.00  0.00    +0.008 C 
ATOM     29  C   UNL     1     -35.858  31.329   2.406  0.00  0.00    +0.001 C 
ATOM     30  C   UNL     1     -36.601  30.821   1.349  0.00  0.00    +0.000 C 
ATOM     31  H   UNL     1     -33.208  28.927   3.971  0.00  0.00    +0.155 HD
BRANCH  22  32
ATOM     32  O   UNL     1     -36.285  26.725   3.713  0.00  0.00    -0.348 OA
ATOM     33  H   UNL     1     -36.903  25.986   3.819  0.00  0.00    +0.214 HD
ENDBRANCH  22  32
ENDBRANCH   1  22
TORSDOF 3
ENDMDL
MODEL 4
REMARK VINA RESULT:      -7.2      2.352      3.641
REMARK  Name = 57337607
REMARK  3 active torsions:
REMARK  status: ('A' for Active; 'I' for Inactive)
REMARK    1  A    between atoms: C_1  and  C_6
REMARK    2  A    between atoms: C_1  and  C_22
REMARK    3  A    between atoms: C_22  and  O_32
REMARK                            x       y       z     vdW  Elec       q    Type
REMARK                         _______ _______ _______ _____ _____    ______ ____
ROOT
ATOM      1  C   UNL     1     -33.895  25.119   3.940  0.00  0.00    +0.106 C 
ENDROOT
BRANCH   1   6
ATOM      2  O   UNL     1     -36.535  26.468   5.629  0.00  0.00    -0.273 OA
ATOM      3  O   UNL     1     -34.864  21.371   5.748  0.00  0.00    -0.270 OA
ATOM      4  N   UNL     1     -34.663  23.630   5.791  0.00  0.00    -0.296 N 
ATOM      5  N   UNL     1     -36.970  24.712   4.288  0.00  0.00    -0.283 N 
ATOM      6  C   UNL     1     -34.673  24.985   5.256  0.00  0.00    +0.133 C 
ATOM      7  C   UNL     1     -33.980  25.899   6.292  0.00  0.00    +0.029 C 
ATOM      8  C   UNL     1     -36.131  25.418   5.114  0.00  0.00    +0.242 C 
ATOM      9  C   UNL     1     -35.092  22.460   5.220  0.00  0.00    +0.247 C 
ATOM     10  C   UNL     1     -36.778  23.492   3.612  0.00  0.00    +0.055 C 
ATOM     11  C   UNL     1     -35.869  22.488   3.963  0.00  0.00    +0.067 C 
ATOM     12  C   UNL     1     -37.615  23.289   2.497  0.00  0.00    +0.015 C 
ATOM     13  C   UNL     1     -35.771  21.334   3.160  0.00  0.00    +0.006 C 
ATOM     14  C   UNL     1     -37.510  22.143   1.710  0.00  0.00    +0.001 C 
ATOM     15  C   UNL     1     -36.578  21.169   2.036  0.00  0.00    +0.000 C 
ATOM     16  H   UNL     1     -34.292  23.540   6.698  0.00  0.00    +0.150 HD
ATOM     17  H   UNL     1     -37.852  25.127   4.144  0.00  0.00    +0.155 HD
ENDBRANCH   1   6
BRANCH   1  22
ATOM     18  O   UNL     1     -35.030  26.707   2.622  0.00  0.00    -0.419 OA
ATOM     19  O   UNL     1     -31.784  25.963   2.425  0.00  0.00    -0.268 OA
ATOM     20  O   UNL     1     -36.540  27.915   1.486  0.00  0.00    -0.245 OA
ATOM     21  N   UNL     1     -32.436  28.125   2.177  0.00  0.00    -0.279 N 
ATOM     22  C   UNL     1     -33.876  26.577   3.463  0.00  0.00    +0.301 C 
ATOM     23  C   UNL     1     -32.625  26.841   2.635  0.00  0.00    +0.290 C 
ATOM     24  C   UNL     1     -33.323  29.213   2.254  0.00  0.00    +0.057 C 
ATOM     25  C   UNL     1     -35.489  27.871   2.120  0.00  0.00    +0.344 C 
ATOM     26  C   UNL     1     -34.719  29.117   2.338  0.00  0.00    +0.089 C 
ATOM     27  C   UNL     1     -32.730  30.488   2.222  0.00  0.00    +0.015 C 
ATOM     28  C   UNL     1     -35.486  30.290   2.460  0.00  0.00    +0.008 C 
ATOM     29  C   UNL     1     -33.499  31.644   2.343  0.00  0.00    +0.001 C 
ATOM     30  C   UNL     1     -34.878  31.544   2.475  0.00  0.00    +0.000 C 
ATOM     31  H   UNL     1     -31.571  28.303   1.742  0.00  0.00    +0.155 HD
BRANCH  22  32
ATOM     32  O   UNL     1     -33.901  27.423   4.603  0.00  0.00    -0.348 OA
ATOM     33  H   UNL     1     -34.020  26.887   5.402  0.00  0.00    +0.214 HD
ENDBRANCH  22  32
ENDBRANCH   1  22
TORSDOF 3
ENDMDL
MODEL 5
REMARK VINA RESULT:      -7.0      3.947      7.922
REMARK  Name = 57337607
REMARK  3 active torsions:
REMARK  status: ('A' for Active; 'I' for Inactive)
REMARK    1  A    between atoms: C_1  and  C_6
REMARK    2  A    between atoms: C_1  and  C_22
REMARK    3  A    between atoms: C_22  and  O_32
REMARK                            x       y       z     vdW  Elec       q    Type
REMARK                         _______ _______ _______ _____ _____    ______ ____
ROOT
ATOM      1  C   UNL     1     -37.101  22.386   2.994  0.00  0.00    +0.106 C 
ENDROOT
BRANCH   1   6
ATOM      2  O   UNL     1     -39.801  24.425   3.435  0.00  0.00    -0.273 OA
ATOM      3  O   UNL     1     -35.191  25.626   0.966  0.00  0.00    -0.270 OA
ATOM      4  N   UNL     1     -37.010  24.375   1.487  0.00  0.00    -0.296 N 
ATOM      5  N   UNL     1     -37.824  25.164   4.221  0.00  0.00    -0.283 N 
ATOM      6  C   UNL     1     -37.863  23.533   2.317  0.00  0.00    +0.133 C 
ATOM      7  C   UNL     1     -38.924  22.893   1.392  0.00  0.00    +0.029 C 
ATOM      8  C   UNL     1     -38.569  24.437   3.326  0.00  0.00    +0.242 C 
ATOM      9  C   UNL     1     -35.891  25.091   1.827  0.00  0.00    +0.247 C 
ATOM     10  C   UNL     1     -36.434  25.372   4.301  0.00  0.00    +0.055 C 
ATOM     11  C   UNL     1     -35.520  25.260   3.248  0.00  0.00    +0.067 C 
ATOM     12  C   UNL     1     -35.960  25.751   5.572  0.00  0.00    +0.015 C 
ATOM     13  C   UNL     1     -34.149  25.466   3.498  0.00  0.00    +0.006 C 
ATOM     14  C   UNL     1     -34.601  25.954   5.809  0.00  0.00    +0.001 C 
ATOM     15  C   UNL     1     -33.692  25.800   4.772  0.00  0.00    +0.000 C 
ATOM     16  H   UNL     1     -37.276  24.439   0.542  0.00  0.00    +0.150 HD
ATOM     17  H   UNL     1     -38.348  25.616   4.921  0.00  0.00    +0.155 HD
ENDBRANCH   1   6
BRANCH   1  22
ATOM     18  O   UNL     1     -37.459  20.725   1.362  0.00  0.00    -0.419 OA
ATOM     19  O   UNL     1     -35.247  20.574   3.854  0.00  0.00    -0.268 OA
ATOM     20  O   UNL     1     -38.289  19.372  -0.222  0.00  0.00    -0.245 OA
ATOM     21  N   UNL     1     -34.675  19.739   1.821  0.00  0.00    -0.279 N 
ATOM     22  C   UNL     1     -36.407  21.501   1.951  0.00  0.00    +0.301 C 
ATOM     23  C   UNL     1     -35.420  20.563   2.633  0.00  0.00    +0.290 C 
ATOM     24  C   UNL     1     -34.801  19.542   0.434  0.00  0.00    +0.057 C 
ATOM     25  C   UNL     1     -37.319  19.930   0.283  0.00  0.00    +0.344 C 
ATOM     26  C   UNL     1     -35.976  19.729  -0.308  0.00  0.00    +0.089 C 
ATOM     27  C   UNL     1     -33.640  19.104  -0.228  0.00  0.00    +0.015 C 
ATOM     28  C   UNL     1     -35.948  19.544  -1.702  0.00  0.00    +0.008 C 
ATOM     29  C   UNL     1     -33.625  18.922  -1.610  0.00  0.00    +0.001 C 
ATOM     30  C   UNL     1     -34.776  19.155  -2.350  0.00  0.00    +0.000 C 
ATOM     31  H   UNL     1     -33.966  19.222   2.267  0.00  0.00    +0.155 HD
BRANCH  22  32
ATOM     32  O   UNL     1     -35.731  22.342   1.027  0.00  0.00    -0.348 OA
ATOM     33  H   UNL     1     -35.193  22.988   1.511  0.00  0.00    +0.214 HD
ENDBRANCH  22  32
ENDBRANCH   1  22
TORSDOF 3
ENDMDL
MODEL 6
REMARK VINA RESULT:      -7.0      4.550      7.494
REMARK  Name = 57337607
REMARK  3 active torsions:
REMARK  status: ('A' for Active; 'I' for Inactive)
REMARK    1  A    between atoms: C_1  and  C_6
REMARK    2  A    between atoms: C_1  and  C_22
REMARK    3  A    between atoms: C_22  and  O_32
REMARK                            x       y       z     vdW  Elec       q    Type
REMARK                         _______ _______ _______ _____ _____    ______ ____
ROOT
ATOM      1  C   UNL     1     -36.078  20.164   1.759  0.00  0.00    +0.106 C 
ENDROOT
BRANCH   1   6
ATOM      2  O   UNL     1     -34.082  18.238  -0.230  0.00  0.00    -0.273 OA
ATOM      3  O   UNL     1     -36.847  22.608  -1.660  0.00  0.00    -0.270 OA
ATOM      4  N   UNL     1     -35.487  21.335  -0.365  0.00  0.00    -0.296 N 
ATOM      5  N   UNL     1     -36.218  18.516  -0.889  0.00  0.00    -0.283 N 
ATOM      6  C   UNL     1     -35.135  20.259   0.552  0.00  0.00    +0.133 C 
ATOM      7  C   UNL     1     -33.721  20.561   1.100  0.00  0.00    +0.029 C 
ATOM      8  C   UNL     1     -35.086  18.961  -0.251  0.00  0.00    +0.242 C 
ATOM      9  C   UNL     1     -36.657  21.558  -1.045  0.00  0.00    +0.247 C 
ATOM     10  C   UNL     1     -37.464  19.141  -1.088  0.00  0.00    +0.055 C 
ATOM     11  C   UNL     1     -37.708  20.519  -1.077  0.00  0.00    +0.067 C 
ATOM     12  C   UNL     1     -38.537  18.265  -1.343  0.00  0.00    +0.015 C 
ATOM     13  C   UNL     1     -39.024  20.988  -1.258  0.00  0.00    +0.006 C 
ATOM     14  C   UNL     1     -39.835  18.741  -1.522  0.00  0.00    +0.001 C 
ATOM     15  C   UNL     1     -40.081  20.104  -1.467  0.00  0.00    +0.000 C 
ATOM     16  H   UNL     1     -34.781  22.003  -0.520  0.00  0.00    +0.150 HD
ATOM     17  H   UNL     1     -36.146  17.612  -1.272  0.00  0.00    +0.155 HD
ENDBRANCH   1   6
BRANCH   1  22
ATOM     18  O   UNL     1     -35.619  21.023   3.904  0.00  0.00    -0.419 OA
ATOM     19  O   UNL     1     -38.390  21.571   2.129  0.00  0.00    -0.268 OA
ATOM     20  O   UNL     1     -34.858  21.410   5.978  0.00  0.00    -0.245 OA
ATOM     21  N   UNL     1     -37.516  23.268   3.361  0.00  0.00    -0.279 N 
ATOM     22  C   UNL     1     -36.024  21.448   2.596  0.00  0.00    +0.301 C 
ATOM     23  C   UNL     1     -37.410  22.075   2.684  0.00  0.00    +0.290 C 
ATOM     24  C   UNL     1     -36.529  23.931   4.113  0.00  0.00    +0.057 C 
ATOM     25  C   UNL     1     -35.288  21.850   4.915  0.00  0.00    +0.344 C 
ATOM     26  C   UNL     1     -35.440  23.313   4.743  0.00  0.00    +0.089 C 
ATOM     27  C   UNL     1     -36.690  25.322   4.239  0.00  0.00    +0.015 C 
ATOM     28  C   UNL     1     -34.497  24.105   5.424  0.00  0.00    +0.008 C 
ATOM     29  C   UNL     1     -35.750  26.096   4.918  0.00  0.00    +0.001 C 
ATOM     30  C   UNL     1     -34.646  25.489   5.499  0.00  0.00    +0.000 C 
ATOM     31  H   UNL     1     -38.393  23.713   3.312  0.00  0.00    +0.155 HD
BRANCH  22  32
ATOM     32  O   UNL     1     -35.114  22.348   1.981  0.00  0.00    -0.348 OA
ATOM     33  H   UNL     1     -34.273  21.895   1.815  0.00  0.00    +0.214 HD
ENDBRANCH  22  32
ENDBRANCH   1  22
TORSDOF 3
ENDMDL
MODEL 7
REMARK VINA RESULT:      -7.0      3.552      7.777
REMARK  Name = 57337607
REMARK  3 active torsions:
REMARK  status: ('A' for Active; 'I' for Inactive)
REMARK    1  A    between atoms: C_1  and  C_6
REMARK    2  A    between atoms: C_1  and  C_22
REMARK    3  A    between atoms: C_22  and  O_32
REMARK                            x       y       z     vdW  Elec       q    Type
REMARK                         _______ _______ _______ _____ _____    ______ ____
ROOT
ATOM      1  C   UNL     1     -37.770  25.714   3.314  0.00  0.00    +0.106 C 
ENDROOT
BRANCH   1   6
ATOM      2  O   UNL     1     -35.015  27.707   3.597  0.00  0.00    -0.273 OA
ATOM      3  O   UNL     1     -35.346  22.953   1.132  0.00  0.00    -0.270 OA
ATOM      4  N   UNL     1     -35.986  25.055   1.697  0.00  0.00    -0.296 N 
ATOM      5  N   UNL     1     -34.834  25.599   4.368  0.00  0.00    -0.283 N 
ATOM      6  C   UNL     1     -36.494  26.113   2.560  0.00  0.00    +0.133 C 
ATOM      7  C   UNL     1     -36.854  27.316   1.658  0.00  0.00    +0.029 C 
ATOM      8  C   UNL     1     -35.367  26.525   3.506  0.00  0.00    +0.242 C 
ATOM      9  C   UNL     1     -35.604  23.776   2.012  0.00  0.00    +0.247 C 
ATOM     10  C   UNL     1     -35.032  24.208   4.457  0.00  0.00    +0.055 C 
ATOM     11  C   UNL     1     -35.466  23.368   3.425  0.00  0.00    +0.067 C 
ATOM     12  C   UNL     1     -34.732  23.641   5.711  0.00  0.00    +0.015 C 
ATOM     13  C   UNL     1     -35.651  21.995   3.684  0.00  0.00    +0.006 C 
ATOM     14  C   UNL     1     -34.917  22.281   5.956  0.00  0.00    +0.001 C 
ATOM     15  C   UNL     1     -35.389  21.459   4.943  0.00  0.00    +0.000 C 
ATOM     16  H   UNL     1     -35.903  25.294   0.745  0.00  0.00    +0.150 HD
ATOM     17  H   UNL     1     -34.209  25.968   5.034  0.00  0.00    +0.155 HD
ENDBRANCH   1   6
BRANCH   1  22
ATOM     18  O   UNL     1     -39.960  26.404   2.787  0.00  0.00    -0.419 OA
ATOM     19  O   UNL     1     -38.950  23.253   3.206  0.00  0.00    -0.268 OA
ATOM     20  O   UNL     1     -41.886  27.521   2.520  0.00  0.00    -0.245 OA
ATOM     21  N   UNL     1     -40.468  23.717   1.581  0.00  0.00    -0.279 N 
ATOM     22  C   UNL     1     -38.937  25.506   2.339  0.00  0.00    +0.301 C 
ATOM     23  C   UNL     1     -39.452  24.076   2.437  0.00  0.00    +0.290 C 
ATOM     24  C   UNL     1     -41.203  24.542   0.710  0.00  0.00    +0.057 C 
ATOM     25  C   UNL     1     -41.101  26.667   2.119  0.00  0.00    +0.344 C 
ATOM     26  C   UNL     1     -41.413  25.917   0.881  0.00  0.00    +0.089 C 
ATOM     27  C   UNL     1     -41.773  23.899  -0.402  0.00  0.00    +0.015 C 
ATOM     28  C   UNL     1     -42.127  26.632  -0.097  0.00  0.00    +0.008 C 
ATOM     29  C   UNL     1     -42.480  24.618  -1.365  0.00  0.00    +0.001 C 
ATOM     30  C   UNL     1     -42.646  25.988  -1.219  0.00  0.00    +0.000 C 
ATOM     31  H   UNL     1     -40.712  22.763   1.580  0.00  0.00    +0.155 HD
BRANCH  22  32
ATOM     32  O   UNL     1     -38.476  25.775   1.023  0.00  0.00    -0.348 OA
ATOM     33  H   UNL     1     -37.523  25.955   1.044  0.00  0.00    +0.214 HD
ENDBRANCH  22  32
ENDBRANCH   1  22
TORSDOF 3
ENDMDL
MODEL 8
REMARK VINA RESULT:      -6.9      1.416      2.063
REMARK  Name = 57337607
REMARK  3 active torsions:
REMARK  status: ('A' for Active; 'I' for Inactive)
REMARK    1  A    between atoms: C_1  and  C_6
REMARK    2  A    between atoms: C_1  and  C_22
REMARK    3  A    between atoms: C_22  and  O_32
REMARK                            x       y       z     vdW  Elec       q    Type
REMARK                         _______ _______ _______ _____ _____    ______ ____
ROOT
ATOM      1  C   UNL     1     -34.823  26.065   2.108  0.00  0.00    +0.106 C 
ENDROOT
BRANCH   1   6
ATOM      2  O   UNL     1     -37.927  25.314   0.905  0.00  0.00    -0.273 OA
ATOM      3  O   UNL     1     -36.516  26.040   6.030  0.00  0.00    -0.270 OA
ATOM      4  N   UNL     1     -36.599  26.493   3.809  0.00  0.00    -0.296 N 
ATOM      5  N   UNL     1     -37.058  23.911   2.438  0.00  0.00    -0.283 N 
ATOM      6  C   UNL     1     -36.312  26.305   2.393  0.00  0.00    +0.133 C 
ATOM      7  C   UNL     1     -36.714  27.605   1.661  0.00  0.00    +0.029 C 
ATOM      8  C   UNL     1     -37.190  25.162   1.887  0.00  0.00    +0.242 C 
ATOM      9  C   UNL     1     -36.354  25.659   4.870  0.00  0.00    +0.247 C 
ATOM     10  C   UNL     1     -36.325  23.475   3.558  0.00  0.00    +0.055 C 
ATOM     11  C   UNL     1     -35.916  24.267   4.636  0.00  0.00    +0.067 C 
ATOM     12  C   UNL     1     -36.014  22.101   3.570  0.00  0.00    +0.015 C 
ATOM     13  C   UNL     1     -35.155  23.687   5.670  0.00  0.00    +0.006 C 
ATOM     14  C   UNL     1     -35.261  21.537   4.599  0.00  0.00    +0.001 C 
ATOM     15  C   UNL     1     -34.820  22.334   5.645  0.00  0.00    +0.000 C 
ATOM     16  H   UNL     1     -37.034  27.345   4.039  0.00  0.00    +0.150 HD
ATOM     17  H   UNL     1     -37.558  23.202   1.973  0.00  0.00    +0.155 HD
ENDBRANCH   1   6
BRANCH   1  22
ATOM     18  O   UNL     1     -33.299  27.724   1.416  0.00  0.00    -0.419 OA
ATOM     19  O   UNL     1     -32.863  25.604   3.954  0.00  0.00    -0.268 OA
ATOM     20  O   UNL     1     -32.103  29.246   0.284  0.00  0.00    -0.245 OA
ATOM     21  N   UNL     1     -32.143  27.747   4.172  0.00  0.00    -0.279 N 
ATOM     22  C   UNL     1     -33.978  27.253   2.588  0.00  0.00    +0.301 C 
ATOM     23  C   UNL     1     -32.946  26.784   3.605  0.00  0.00    +0.290 C 
ATOM     24  C   UNL     1     -32.049  29.109   3.834  0.00  0.00    +0.057 C 
ATOM     25  C   UNL     1     -32.575  28.859   1.349  0.00  0.00    +0.344 C 
ATOM     26  C   UNL     1     -32.347  29.654   2.577  0.00  0.00    +0.089 C 
ATOM     27  C   UNL     1     -31.599  29.962   4.857  0.00  0.00    +0.015 C 
ATOM     28  C   UNL     1     -32.257  31.046   2.390  0.00  0.00    +0.008 C 
ATOM     29  C   UNL     1     -31.514  31.340   4.660  0.00  0.00    +0.001 C 
ATOM     30  C   UNL     1     -31.856  31.883   3.430  0.00  0.00    +0.000 C 
ATOM     31  H   UNL     1     -31.561  27.444   4.906  0.00  0.00    +0.155 HD
BRANCH  22  32
ATOM     32  O   UNL     1     -34.845  28.214   3.172  0.00  0.00    -0.348 OA
ATOM     33  H   UNL     1     -35.620  28.339   2.603  0.00  0.00    +0.214 HD
ENDBRANCH  22  32
ENDBRANCH   1  22
TORSDOF 3
ENDMDL
MODEL 9
REMARK VINA RESULT:      -6.8      2.833      7.511
REMARK  Name = 57337607
REMARK  3 active torsions:
REMARK  status: ('A' for Active; 'I' for Inactive)
REMARK    1  A    between atoms: C_1  and  C_6
REMARK    2  A    between atoms: C_1  and  C_22
REMARK    3  A    between atoms: C_22  and  O_32
REMARK                            x       y       z     vdW  Elec       q    Type
REMARK                         _______ _______ _______ _____ _____    ______ ____
ROOT
ATOM      1  C   UNL     1     -35.069  24.436   3.587  0.00  0.00    +0.106 C 
ENDROOT
BRANCH   1   6
ATOM      2  O   UNL     1     -33.930  26.564   5.999  0.00  0.00    -0.273 OA
ATOM      3  O   UNL     1     -36.849  27.817   1.676  0.00  0.00    -0.270 OA
ATOM      4  N   UNL     1     -36.257  26.630   3.516  0.00  0.00    -0.296 N 
ATOM      5  N   UNL     1     -33.346  27.023   3.873  0.00  0.00    -0.283 N 
ATOM      6  C   UNL     1     -35.446  25.729   4.324  0.00  0.00    +0.133 C 
ATOM      7  C   UNL     1     -36.287  25.324   5.556  0.00  0.00    +0.029 C 
ATOM      8  C   UNL     1     -34.218  26.505   4.798  0.00  0.00    +0.242 C 
ATOM      9  C   UNL     1     -35.984  27.201   2.299  0.00  0.00    +0.247 C 
ATOM     10  C   UNL     1     -33.443  27.116   2.472  0.00  0.00    +0.055 C 
ATOM     11  C   UNL     1     -34.625  27.110   1.724  0.00  0.00    +0.067 C 
ATOM     12  C   UNL     1     -32.215  27.249   1.796  0.00  0.00    +0.015 C 
ATOM     13  C   UNL     1     -34.554  27.175   0.318  0.00  0.00    +0.006 C 
ATOM     14  C   UNL     1     -32.155  27.313   0.404  0.00  0.00    +0.001 C 
ATOM     15  C   UNL     1     -33.326  27.264  -0.336  0.00  0.00    +0.000 C 
ATOM     16  H   UNL     1     -37.132  26.866   3.901  0.00  0.00    +0.150 HD
ATOM     17  H   UNL     1     -32.515  27.392   4.253  0.00  0.00    +0.155 HD
ENDBRANCH   1   6
BRANCH   1  22
ATOM     18  O   UNL     1     -37.424  24.383   3.608  0.00  0.00    -0.419 OA
ATOM     19  O   UNL     1     -35.407  21.733   3.785  0.00  0.00    -0.268 OA
ATOM     20  O   UNL     1     -39.611  24.837   3.813  0.00  0.00    -0.245 OA
ATOM     21  N   UNL     1     -37.325  21.579   2.578  0.00  0.00    -0.279 N 
ATOM     22  C   UNL     1     -36.302  23.804   2.928  0.00  0.00    +0.301 C 
ATOM     23  C   UNL     1     -36.305  22.299   3.157  0.00  0.00    +0.290 C 
ATOM     24  C   UNL     1     -38.461  22.068   1.908  0.00  0.00    +0.057 C 
ATOM     25  C   UNL     1     -38.711  24.231   3.238  0.00  0.00    +0.344 C 
ATOM     26  C   UNL     1     -39.047  23.323   2.117  0.00  0.00    +0.089 C 
ATOM     27  C   UNL     1     -39.040  21.192   0.972  0.00  0.00    +0.015 C 
ATOM     28  C   UNL     1     -40.156  23.705   1.339  0.00  0.00    +0.008 C 
ATOM     29  C   UNL     1     -40.139  21.581   0.207  0.00  0.00    +0.001 C 
ATOM     30  C   UNL     1     -40.689  22.844   0.382  0.00  0.00    +0.000 C 
ATOM     31  H   UNL     1     -37.249  20.599   2.641  0.00  0.00    +0.155 HD
BRANCH  22  32
ATOM     32  O   UNL     1     -36.265  24.092   1.538  0.00  0.00    -0.348 OA
ATOM     33  H   UNL     1     -35.343  24.164   1.247  0.00  0.00    +0.214 HD
ENDBRANCH  22  32
ENDBRANCH   1  22
TORSDOF 3
ENDMDL
