MODEL 1
REMARK VINA RESULT:      -7.1      0.000      0.000
REMARK  Name = 5281887
REMARK  8 active torsions:
REMARK  status: ('A' for Active; 'I' for Inactive)
REMARK    1  A    between atoms: C_4  and  O_21
REMARK    2  A    between atoms: C_18  and  O_19
REMARK    3  A    between atoms: O_21  and  C_23
REMARK    4  A    between atoms: C_24  and  O_28
REMARK    5  A    between atoms: C_25  and  O_30
REMARK    6  A    between atoms: C_26  and  C_35
REMARK    7  A    between atoms: C_27  and  O_32
REMARK    8  A    between atoms: C_35  and  O_36
REMARK                            x       y       z     vdW  Elec       q    Type
REMARK                         _______ _______ _______ _____ _____    ______ ____
ROOT
ATOM      1  C   UNL     1     -34.563  26.800   3.381  0.00  0.00    +0.025 C 
ATOM      2  C   UNL     1     -34.070  26.942   4.834  0.00  0.00    +0.003 C 
ATOM      3  C   UNL     1     -32.742  27.694   4.922  0.00  0.00    +0.004 C 
ATOM      4  C   UNL     1     -35.837  25.970   3.632  0.00  0.00    +0.118 C 
ATOM      5  C   UNL     1     -32.945  29.133   4.356  0.00  0.00    +0.022 C 
ATOM      6  C   UNL     1     -34.810  28.206   2.820  0.00  0.00    +0.003 C 
ATOM      7  C   UNL     1     -34.161  25.521   5.382  0.00  0.00    +0.003 C 
ATOM      8  C   UNL     1     -35.404  24.935   4.689  0.00  0.00    +0.030 C 
ATOM      9  C   UNL     1     -33.557  29.094   2.930  0.00  0.00    +0.004 C 
ATOM     10  C   UNL     1     -32.215  27.792   6.354  0.00  0.00    +0.005 C 
ATOM     11  C   UNL     1     -33.599  26.035   2.439  0.00  0.00    +0.002 C 
ATOM     12  C   UNL     1     -31.673  29.966   4.492  0.00  0.00    -0.026 C 
ATOM     13  C   UNL     1     -30.825  28.424   6.352  0.00  0.00    +0.026 C 
ATOM     14  C   UNL     1     -30.705  29.641   5.468  0.00  0.00    -0.023 C 
ATOM     15  C   UNL     1     -31.474  31.122   3.718  0.00  0.00    -0.001 C 
ATOM     16  C   UNL     1     -29.554  30.437   5.605  0.00  0.00    +0.032 C 
ATOM     17  C   UNL     1     -30.330  31.910   3.870  0.00  0.00    +0.036 C 
ATOM     18  C   UNL     1     -29.367  31.565   4.810  0.00  0.00    +0.133 C 
ENDROOT
BRANCH  18  19
ATOM     19  O   UNL     1     -28.252  32.329   4.959  0.00  0.00    -0.506 OA
ATOM     20  H   UNL     1     -27.662  32.441   4.240  0.00  0.00    +0.292 HD
ENDBRANCH  18  19
BRANCH   4  21
ATOM     21  O   UNL     1     -36.332  25.348   2.461  0.00  0.00    -0.331 OA
BRANCH  21  23
ATOM     22  O   UNL     1     -36.650  23.053   2.190  0.00  0.00    -0.317 OA
ATOM     23  C   UNL     1     -37.180  24.242   2.768  0.00  0.00    +0.266 C 
ATOM     24  C   UNL     1     -38.566  24.539   2.195  0.00  0.00    +0.196 C 
ATOM     25  C   UNL     1     -39.503  23.341   2.362  0.00  0.00    +0.172 C 
ATOM     26  C   UNL     1     -37.443  21.908   2.480  0.00  0.00    +0.245 C 
ATOM     27  C   UNL     1     -38.841  22.046   1.890  0.00  0.00    +0.178 C 
BRANCH  24  28
ATOM     28  O   UNL     1     -39.107  25.663   2.891  0.00  0.00    -0.378 OA
ATOM     29  H   UNL     1     -40.067  25.694   2.757  0.00  0.00    +0.211 HD
ENDBRANCH  24  28
BRANCH  25  30
ATOM     30  O   UNL     1     -40.682  23.544   1.583  0.00  0.00    -0.379 OA
ATOM     31  H   UNL     1     -40.748  22.848   0.910  0.00  0.00    +0.211 HD
ENDBRANCH  25  30
BRANCH  27  32
ATOM     32  O   UNL     1     -39.629  20.936   2.317  0.00  0.00    -0.379 OA
ATOM     33  H   UNL     1     -39.975  20.467   1.541  0.00  0.00    +0.211 HD
ENDBRANCH  27  32
BRANCH  26  35
ATOM     34  O   UNL     1     -36.033  20.899   0.801  0.00  0.00    -0.247 OA
ATOM     35  C   UNL     1     -36.692  20.794   1.824  0.00  0.00    +0.344 C 
BRANCH  35  36
ATOM     36  O   UNL     1     -36.844  19.640   2.519  0.00  0.00    -0.478 OA
ATOM     37  H   UNL     1     -36.275  19.448   3.238  0.00  0.00    +0.295 HD
ENDBRANCH  35  36
ENDBRANCH  26  35
ENDBRANCH  21  23
ENDBRANCH   4  21
TORSDOF 8
ENDMDL
MODEL 2
REMARK VINA RESULT:      -6.9      5.337      7.779
REMARK  Name = 5281887
REMARK  8 active torsions:
REMARK  status: ('A' for Active; 'I' for Inactive)
REMARK    1  A    between atoms: C_4  and  O_21
REMARK    2  A    between atoms: C_18  and  O_19
REMARK    3  A    between atoms: O_21  and  C_23
REMARK    4  A    between atoms: C_24  and  O_28
REMARK    5  A    between atoms: C_25  and  O_30
REMARK    6  A    between atoms: C_26  and  C_35
REMARK    7  A    between atoms: C_27  and  O_32
REMARK    8  A    between atoms: C_35  and  O_36
REMARK                            x       y       z     vdW  Elec       q    Type
REMARK                         _______ _______ _______ _____ _____    ______ ____
ROOT
ATOM      1  C   UNL     1     -35.721  23.058   1.806  0.00  0.00    +0.025 C 
ATOM      2  C   UNL     1     -34.949  23.086   0.472  0.00  0.00    +0.003 C 
ATOM      3  C   UNL     1     -33.692  22.217   0.515  0.00  0.00    +0.004 C 
ATOM      4  C   UNL     1     -36.848  24.050   1.460  0.00  0.00    +0.118 C 
ATOM      5  C   UNL     1     -34.116  20.739   0.777  0.00  0.00    +0.022 C 
ATOM      6  C   UNL     1     -36.185  21.618   2.059  0.00  0.00    +0.003 C 
ATOM      7  C   UNL     1     -34.817  24.575   0.168  0.00  0.00    +0.003 C 
ATOM      8  C   UNL     1     -36.129  25.181   0.699  0.00  0.00    +0.030 C 
ATOM      9  C   UNL     1     -35.007  20.626   2.043  0.00  0.00    +0.004 C 
ATOM     10  C   UNL     1     -32.888  22.281  -0.784  0.00  0.00    +0.005 C 
ATOM     11  C   UNL     1     -34.918  23.562   3.033  0.00  0.00    +0.002 C 
ATOM     12  C   UNL     1     -32.910  19.803   0.748  0.00  0.00    -0.026 C 
ATOM     13  C   UNL     1     -31.580  21.509  -0.623  0.00  0.00    +0.026 C 
ATOM     14  C   UNL     1     -31.739  20.166   0.047  0.00  0.00    -0.023 C 
ATOM     15  C   UNL     1     -32.965  18.529   1.337  0.00  0.00    -0.001 C 
ATOM     16  C   UNL     1     -30.648  19.280   0.001  0.00  0.00    +0.032 C 
ATOM     17  C   UNL     1     -31.877  17.654   1.275  0.00  0.00    +0.036 C 
ATOM     18  C   UNL     1     -30.717  18.031   0.612  0.00  0.00    +0.133 C 
ENDROOT
BRANCH  18  19
ATOM     19  O   UNL     1     -29.656  17.182   0.552  0.00  0.00    -0.506 OA
ATOM     20  H   UNL     1     -28.801  17.483   0.789  0.00  0.00    +0.292 HD
ENDBRANCH  18  19
BRANCH   4  21
ATOM     21  O   UNL     1     -37.528  24.537   2.602  0.00  0.00    -0.331 OA
BRANCH  21  23
ATOM     22  O   UNL     1     -39.237  23.505   1.396  0.00  0.00    -0.317 OA
ATOM     23  C   UNL     1     -38.941  24.369   2.489  0.00  0.00    +0.266 C 
ATOM     24  C   UNL     1     -39.561  25.747   2.261  0.00  0.00    +0.196 C 
ATOM     25  C   UNL     1     -41.064  25.641   1.995  0.00  0.00    +0.172 C 
ATOM     26  C   UNL     1     -40.635  23.282   1.246  0.00  0.00    +0.245 C 
ATOM     27  C   UNL     1     -41.368  24.581   0.935  0.00  0.00    +0.178 C 
BRANCH  24  28
ATOM     28  O   UNL     1     -39.344  26.535   3.433  0.00  0.00    -0.378 OA
ATOM     29  H   UNL     1     -38.441  26.393   3.755  0.00  0.00    +0.211 HD
ENDBRANCH  24  28
BRANCH  25  30
ATOM     30  O   UNL     1     -41.554  26.894   1.518  0.00  0.00    -0.379 OA
ATOM     31  H   UNL     1     -41.556  26.893   0.548  0.00  0.00    +0.211 HD
ENDBRANCH  25  30
BRANCH  27  32
ATOM     32  O   UNL     1     -42.770  24.323   0.922  0.00  0.00    -0.379 OA
ATOM     33  H   UNL     1     -43.166  24.641   1.748  0.00  0.00    +0.211 HD
ENDBRANCH  27  32
BRANCH  26  35
ATOM     34  O   UNL     1     -40.792  22.665  -1.083  0.00  0.00    -0.247 OA
ATOM     35  C   UNL     1     -40.709  22.335   0.091  0.00  0.00    +0.344 C 
BRANCH  35  36
ATOM     36  O   UNL     1     -40.675  21.051   0.522  0.00  0.00    -0.478 OA
ATOM     37  H   UNL     1     -41.453  20.646   0.852  0.00  0.00    +0.295 HD
ENDBRANCH  35  36
ENDBRANCH  26  35
ENDBRANCH  21  23
ENDBRANCH   4  21
TORSDOF 8
ENDMDL
MODEL 3
REMARK VINA RESULT:      -6.9      5.159      9.828
REMARK  Name = 5281887
REMARK  8 active torsions:
REMARK  status: ('A' for Active; 'I' for Inactive)
REMARK    1  A    between atoms: C_4  and  O_21
REMARK    2  A    between atoms: C_18  and  O_19
REMARK    3  A    between atoms: O_21  and  C_23
REMARK    4  A    between atoms: C_24  and  O_28
REMARK    5  A    between atoms: C_25  and  O_30
REMARK    6  A    between atoms: C_26  and  C_35
REMARK    7  A    between atoms: C_27  and  O_32
REMARK    8  A    between atoms: C_35  and  O_36
REMARK                            x       y       z     vdW  Elec       q    Type
REMARK                         _______ _______ _______ _____ _____    ______ ____
ROOT
ATOM      1  C   UNL     1     -35.284  20.468   0.401  0.00  0.00    +0.025 C 
ATOM      2  C   UNL     1     -35.706  18.987   0.478  0.00  0.00    +0.003 C 
ATOM      3  C   UNL     1     -34.645  18.053  -0.104  0.00  0.00    +0.004 C 
ATOM      4  C   UNL     1     -36.553  21.118   0.985  0.00  0.00    +0.118 C 
ATOM      5  C   UNL     1     -33.335  18.208   0.727  0.00  0.00    +0.022 C 
ATOM      6  C   UNL     1     -34.019  20.648   1.250  0.00  0.00    +0.003 C 
ATOM      7  C   UNL     1     -37.111  18.985  -0.118  0.00  0.00    +0.003 C 
ATOM      8  C   UNL     1     -37.708  20.331   0.334  0.00  0.00    +0.030 C 
ATOM      9  C   UNL     1     -32.894  19.694   0.809  0.00  0.00    +0.004 C 
ATOM     10  C   UNL     1     -35.077  16.587  -0.084  0.00  0.00    +0.005 C 
ATOM     11  C   UNL     1     -35.019  20.994  -1.032  0.00  0.00    +0.002 C 
ATOM     12  C   UNL     1     -32.258  17.238   0.248  0.00  0.00    -0.026 C 
ATOM     13  C   UNL     1     -34.040  15.731  -0.806  0.00  0.00    +0.026 C 
ATOM     14  C   UNL     1     -32.613  16.054  -0.436  0.00  0.00    -0.023 C 
ATOM     15  C   UNL     1     -30.902  17.449   0.550  0.00  0.00    -0.001 C 
ATOM     16  C   UNL     1     -31.612  15.153  -0.842  0.00  0.00    +0.032 C 
ATOM     17  C   UNL     1     -29.918  16.541   0.149  0.00  0.00    +0.036 C 
ATOM     18  C   UNL     1     -30.273  15.396  -0.551  0.00  0.00    +0.133 C 
ENDROOT
BRANCH  18  19
ATOM     19  O   UNL     1     -29.317  14.512  -0.945  0.00  0.00    -0.506 OA
ATOM     20  H   UNL     1     -28.421  14.780  -0.991  0.00  0.00    +0.292 HD
ENDBRANCH  18  19
BRANCH   4  21
ATOM     21  O   UNL     1     -36.643  22.503   0.710  0.00  0.00    -0.331 OA
BRANCH  21  23
ATOM     22  O   UNL     1     -36.135  22.493   2.986  0.00  0.00    -0.317 OA
ATOM     23  C   UNL     1     -36.185  23.292   1.808  0.00  0.00    +0.266 C 
ATOM     24  C   UNL     1     -37.163  24.452   1.992  0.00  0.00    +0.196 C 
ATOM     25  C   UNL     1     -36.819  25.272   3.237  0.00  0.00    +0.172 C 
ATOM     26  C   UNL     1     -35.664  23.222   4.115  0.00  0.00    +0.245 C 
ATOM     27  C   UNL     1     -36.603  24.373   4.454  0.00  0.00    +0.178 C 
BRANCH  24  28
ATOM     28  O   UNL     1     -37.086  25.291   0.838  0.00  0.00    -0.378 OA
ATOM     29  H   UNL     1     -37.585  26.107   0.998  0.00  0.00    +0.211 HD
ENDBRANCH  24  28
BRANCH  25  30
ATOM     30  O   UNL     1     -37.895  26.164   3.533  0.00  0.00    -0.379 OA
ATOM     31  H   UNL     1     -38.717  25.817   3.152  0.00  0.00    +0.211 HD
ENDBRANCH  25  30
BRANCH  27  32
ATOM     32  O   UNL     1     -36.021  25.142   5.506  0.00  0.00    -0.379 OA
ATOM     33  H   UNL     1     -36.000  26.078   5.249  0.00  0.00    +0.211 HD
ENDBRANCH  27  32
BRANCH  26  35
ATOM     34  O   UNL     1     -35.886  22.425   6.382  0.00  0.00    -0.247 OA
ATOM     35  C   UNL     1     -35.655  22.199   5.204  0.00  0.00    +0.344 C 
BRANCH  35  36
ATOM     36  O   UNL     1     -35.350  20.974   4.708  0.00  0.00    -0.478 OA
ATOM     37  H   UNL     1     -35.012  20.310   5.275  0.00  0.00    +0.295 HD
ENDBRANCH  35  36
ENDBRANCH  26  35
ENDBRANCH  21  23
ENDBRANCH   4  21
TORSDOF 8
ENDMDL
MODEL 4
REMARK VINA RESULT:      -6.9      5.009      8.756
REMARK  Name = 5281887
REMARK  8 active torsions:
REMARK  status: ('A' for Active; 'I' for Inactive)
REMARK    1  A    between atoms: C_4  and  O_21
REMARK    2  A    between atoms: C_18  and  O_19
REMARK    3  A    between atoms: O_21  and  C_23
REMARK    4  A    between atoms: C_24  and  O_28
REMARK    5  A    between atoms: C_25  and  O_30
REMARK    6  A    between atoms: C_26  and  C_35
REMARK    7  A    between atoms: C_27  and  O_32
REMARK    8  A    between atoms: C_35  and  O_36
REMARK                            x       y       z     vdW  Elec       q    Type
REMARK                         _______ _______ _______ _____ _____    ______ ____
ROOT
ATOM      1  C   UNL     1     -34.115  21.424   0.364  0.00  0.00    +0.025 C 
ATOM      2  C   UNL     1     -33.588  20.219   1.167  0.00  0.00    +0.003 C 
ATOM      3  C   UNL     1     -32.605  19.372   0.358  0.00  0.00    +0.004 C 
ATOM      4  C   UNL     1     -35.093  22.005   1.403  0.00  0.00    +0.118 C 
ATOM      5  C   UNL     1     -31.376  20.256  -0.017  0.00  0.00    +0.022 C 
ATOM      6  C   UNL     1     -32.925  22.329   0.023  0.00  0.00    +0.003 C 
ATOM      7  C   UNL     1     -34.857  19.572   1.714  0.00  0.00    +0.003 C 
ATOM      8  C   UNL     1     -35.791  20.763   1.993  0.00  0.00    +0.030 C 
ATOM      9  C   UNL     1     -31.820  21.562  -0.728  0.00  0.00    +0.004 C 
ATOM     10  C   UNL     1     -32.118  18.142   1.125  0.00  0.00    +0.005 C 
ATOM     11  C   UNL     1     -34.870  21.057  -0.940  0.00  0.00    +0.002 C 
ATOM     12  C   UNL     1     -30.315  19.444  -0.756  0.00  0.00    -0.026 C 
ATOM     13  C   UNL     1     -31.258  17.270   0.214  0.00  0.00    +0.026 C 
ATOM     14  C   UNL     1     -30.249  18.042  -0.601  0.00  0.00    -0.023 C 
ATOM     15  C   UNL     1     -29.328  20.074  -1.534  0.00  0.00    -0.001 C 
ATOM     16  C   UNL     1     -29.246  17.311  -1.262  0.00  0.00    +0.032 C 
ATOM     17  C   UNL     1     -28.331  19.337  -2.177  0.00  0.00    +0.036 C 
ATOM     18  C   UNL     1     -28.292  17.955  -2.046  0.00  0.00    +0.133 C 
ENDROOT
BRANCH  18  19
ATOM     19  O   UNL     1     -27.324  17.235  -2.673  0.00  0.00    -0.506 OA
ATOM     20  H   UNL     1     -27.047  17.474  -3.535  0.00  0.00    +0.292 HD
ENDBRANCH  18  19
BRANCH   4  21
ATOM     21  O   UNL     1     -36.024  22.911   0.842  0.00  0.00    -0.331 OA
BRANCH  21  23
ATOM     22  O   UNL     1     -35.271  24.043   2.738  0.00  0.00    -0.317 OA
ATOM     23  C   UNL     1     -36.222  24.052   1.677  0.00  0.00    +0.266 C 
ATOM     24  C   UNL     1     -37.643  23.984   2.236  0.00  0.00    +0.196 C 
ATOM     25  C   UNL     1     -37.893  25.101   3.251  0.00  0.00    +0.172 C 
ATOM     26  C   UNL     1     -35.406  25.171   3.595  0.00  0.00    +0.245 C 
ATOM     27  C   UNL     1     -36.766  25.179   4.281  0.00  0.00    +0.178 C 
BRANCH  24  28
ATOM     28  O   UNL     1     -38.560  24.120   1.149  0.00  0.00    -0.378 OA
ATOM     29  H   UNL     1     -38.091  24.462   0.372  0.00  0.00    +0.211 HD
ENDBRANCH  24  28
BRANCH  25  30
ATOM     30  O   UNL     1     -39.112  24.847   3.949  0.00  0.00    -0.379 OA
ATOM     31  H   UNL     1     -39.411  23.944   3.761  0.00  0.00    +0.211 HD
ENDBRANCH  25  30
BRANCH  27  32
ATOM     32  O   UNL     1     -36.896  26.390   5.024  0.00  0.00    -0.379 OA
ATOM     33  H   UNL     1     -37.514  26.984   4.570  0.00  0.00    +0.211 HD
ENDBRANCH  27  32
BRANCH  26  35
ATOM     34  O   UNL     1     -33.153  25.362   4.443  0.00  0.00    -0.247 OA
ATOM     35  C   UNL     1     -34.305  24.980   4.588  0.00  0.00    +0.344 C 
BRANCH  35  36
ATOM     36  O   UNL     1     -34.757  24.319   5.681  0.00  0.00    -0.478 OA
ATOM     37  H   UNL     1     -35.328  24.749   6.287  0.00  0.00    +0.295 HD
ENDBRANCH  35  36
ENDBRANCH  26  35
ENDBRANCH  21  23
ENDBRANCH   4  21
TORSDOF 8
ENDMDL
MODEL 5
REMARK VINA RESULT:      -6.9      1.186      2.882
REMARK  Name = 5281887
REMARK  8 active torsions:
REMARK  status: ('A' for Active; 'I' for Inactive)
REMARK    1  A    between atoms: C_4  and  O_21
REMARK    2  A    between atoms: C_18  and  O_19
REMARK    3  A    between atoms: O_21  and  C_23
REMARK    4  A    between atoms: C_24  and  O_28
REMARK    5  A    between atoms: C_25  and  O_30
REMARK    6  A    between atoms: C_26  and  C_35
REMARK    7  A    between atoms: C_27  and  O_32
REMARK    8  A    between atoms: C_35  and  O_36
REMARK                            x       y       z     vdW  Elec       q    Type
REMARK                         _______ _______ _______ _____ _____    ______ ____
ROOT
ATOM      1  C   UNL     1     -34.716  25.189   3.218  0.00  0.00    +0.025 C 
ATOM      2  C   UNL     1     -34.488  25.618   4.681  0.00  0.00    +0.003 C 
ATOM      3  C   UNL     1     -33.385  26.668   4.809  0.00  0.00    +0.004 C 
ATOM      4  C   UNL     1     -35.799  24.116   3.441  0.00  0.00    +0.118 C 
ATOM      5  C   UNL     1     -33.812  27.939   4.013  0.00  0.00    +0.022 C 
ATOM      6  C   UNL     1     -35.180  26.419   2.427  0.00  0.00    +0.003 C 
ATOM      7  C   UNL     1     -34.346  24.292   5.423  0.00  0.00    +0.003 C 
ATOM      8  C   UNL     1     -35.313  23.348   4.685  0.00  0.00    +0.030 C 
ATOM      9  C   UNL     1     -34.182  27.586   2.548  0.00  0.00    +0.004 C 
ATOM     10  C   UNL     1     -33.111  27.060   6.262  0.00  0.00    +0.005 C 
ATOM     11  C   UNL     1     -33.478  24.568   2.522  0.00  0.00    +0.002 C 
ATOM     12  C   UNL     1     -32.788  29.061   4.170  0.00  0.00    -0.026 C 
ATOM     13  C   UNL     1     -31.909  27.999   6.327  0.00  0.00    +0.026 C 
ATOM     14  C   UNL     1     -31.929  29.095   5.290  0.00  0.00    -0.023 C 
ATOM     15  C   UNL     1     -32.735  30.130   3.259  0.00  0.00    -0.001 C 
ATOM     16  C   UNL     1     -31.014  30.152   5.439  0.00  0.00    +0.032 C 
ATOM     17  C   UNL     1     -31.827  31.179   3.423  0.00  0.00    +0.036 C 
ATOM     18  C   UNL     1     -30.963  31.188   4.510  0.00  0.00    +0.133 C 
ENDROOT
BRANCH  18  19
ATOM     19  O   UNL     1     -30.077  32.208   4.671  0.00  0.00    -0.506 OA
ATOM     20  H   UNL     1     -29.708  32.630   3.921  0.00  0.00    +0.292 HD
ENDBRANCH  18  19
BRANCH   4  21
ATOM     21  O   UNL     1     -35.967  23.259   2.328  0.00  0.00    -0.331 OA
BRANCH  21  23
ATOM     22  O   UNL     1     -37.917  24.538   2.288  0.00  0.00    -0.317 OA
ATOM     23  C   UNL     1     -37.261  23.397   1.743  0.00  0.00    +0.266 C 
ATOM     24  C   UNL     1     -38.056  22.128   2.053  0.00  0.00    +0.196 C 
ATOM     25  C   UNL     1     -39.504  22.252   1.576  0.00  0.00    +0.172 C 
ATOM     26  C   UNL     1     -39.208  24.742   1.725  0.00  0.00    +0.245 C 
ATOM     27  C   UNL     1     -40.131  23.569   2.033  0.00  0.00    +0.178 C 
BRANCH  24  28
ATOM     28  O   UNL     1     -37.430  21.033   1.384  0.00  0.00    -0.378 OA
ATOM     29  H   UNL     1     -36.886  20.537   2.016  0.00  0.00    +0.211 HD
ENDBRANCH  24  28
BRANCH  25  30
ATOM     30  O   UNL     1     -40.278  21.182   2.119  0.00  0.00    -0.379 OA
ATOM     31  H   UNL     1     -39.790  20.767   2.847  0.00  0.00    +0.211 HD
ENDBRANCH  25  30
BRANCH  27  32
ATOM     32  O   UNL     1     -41.364  23.764   1.342  0.00  0.00    -0.379 OA
ATOM     33  H   UNL     1     -41.682  24.668   1.496  0.00  0.00    +0.211 HD
ENDBRANCH  27  32
BRANCH  26  35
ATOM     34  O   UNL     1     -40.726  26.572   2.143  0.00  0.00    -0.247 OA
ATOM     35  C   UNL     1     -39.684  25.989   2.398  0.00  0.00    +0.344 C 
BRANCH  35  36
ATOM     36  O   UNL     1     -38.794  26.394   3.338  0.00  0.00    -0.478 OA
ATOM     37  H   UNL     1     -38.241  27.132   3.172  0.00  0.00    +0.295 HD
ENDBRANCH  35  36
ENDBRANCH  26  35
ENDBRANCH  21  23
ENDBRANCH   4  21
TORSDOF 8
ENDMDL
MODEL 6
REMARK VINA RESULT:      -6.8      3.019      9.231
REMARK  Name = 5281887
REMARK  8 active torsions:
REMARK  status: ('A' for Active; 'I' for Inactive)
REMARK    1  A    between atoms: C_4  and  O_21
REMARK    2  A    between atoms: C_18  and  O_19
REMARK    3  A    between atoms: O_21  and  C_23
REMARK    4  A    between atoms: C_24  and  O_28
REMARK    5  A    between atoms: C_25  and  O_30
REMARK    6  A    between atoms: C_26  and  C_35
REMARK    7  A    between atoms: C_27  and  O_32
REMARK    8  A    between atoms: C_35  and  O_36
REMARK                            x       y       z     vdW  Elec       q    Type
REMARK                         _______ _______ _______ _____ _____    ______ ____
ROOT
ATOM      1  C   UNL     1     -34.002  26.172   3.535  0.00  0.00    +0.025 C 
ATOM      2  C   UNL     1     -34.291  24.779   4.129  0.00  0.00    +0.003 C 
ATOM      3  C   UNL     1     -35.172  23.932   3.210  0.00  0.00    +0.004 C 
ATOM      4  C   UNL     1     -33.181  26.769   4.694  0.00  0.00    +0.118 C 
ATOM      5  C   UNL     1     -34.422  23.716   1.860  0.00  0.00    +0.022 C 
ATOM      6  C   UNL     1     -33.225  25.981   2.226  0.00  0.00    +0.003 C 
ATOM      7  C   UNL     1     -34.769  25.087   5.545  0.00  0.00    +0.003 C 
ATOM      8  C   UNL     1     -33.936  26.315   5.958  0.00  0.00    +0.030 C 
ATOM      9  C   UNL     1     -33.979  25.069   1.241  0.00  0.00    +0.004 C 
ATOM     10  C   UNL     1     -35.513  22.569   3.814  0.00  0.00    +0.005 C 
ATOM     11  C   UNL     1     -35.258  27.037   3.263  0.00  0.00    +0.002 C 
ATOM     12  C   UNL     1     -35.215  22.805   0.926  0.00  0.00    -0.026 C 
ATOM     13  C   UNL     1     -36.505  21.837   2.914  0.00  0.00    +0.026 C 
ATOM     14  C   UNL     1     -36.162  21.896   1.446  0.00  0.00    -0.023 C 
ATOM     15  C   UNL     1     -34.961  22.782  -0.456  0.00  0.00    -0.001 C 
ATOM     16  C   UNL     1     -36.860  21.039   0.577  0.00  0.00    +0.032 C 
ATOM     17  C   UNL     1     -35.655  21.919  -1.307  0.00  0.00    +0.036 C 
ATOM     18  C   UNL     1     -36.609  21.051  -0.792  0.00  0.00    +0.133 C 
ENDROOT
BRANCH  18  19
ATOM     19  O   UNL     1     -37.287  20.211  -1.619  0.00  0.00    -0.506 OA
ATOM     20  H   UNL     1     -38.095  20.486  -2.006  0.00  0.00    +0.292 HD
ENDBRANCH  18  19
BRANCH   4  21
ATOM     21  O   UNL     1     -33.071  28.178   4.627  0.00  0.00    -0.331 OA
BRANCH  21  23
ATOM     22  O   UNL     1     -30.860  27.558   4.217  0.00  0.00    -0.317 OA
ATOM     23  C   UNL     1     -31.711  28.607   4.671  0.00  0.00    +0.266 C 
ATOM     24  C   UNL     1     -31.379  28.971   6.118  0.00  0.00    +0.196 C 
ATOM     25  C   UNL     1     -29.897  29.313   6.278  0.00  0.00    +0.172 C 
ATOM     26  C   UNL     1     -29.488  27.935   4.218  0.00  0.00    +0.245 C 
ATOM     27  C   UNL     1     -29.008  28.252   5.629  0.00  0.00    +0.178 C 
BRANCH  24  28
ATOM     28  O   UNL     1     -32.168  30.103   6.487  0.00  0.00    -0.378 OA
ATOM     29  H   UNL     1     -31.747  30.561   7.231  0.00  0.00    +0.211 HD
ENDBRANCH  24  28
BRANCH  25  30
ATOM     30  O   UNL     1     -29.568  29.375   7.666  0.00  0.00    -0.379 OA
ATOM     31  H   UNL     1     -28.850  30.014   7.800  0.00  0.00    +0.211 HD
ENDBRANCH  25  30
BRANCH  27  32
ATOM     32  O   UNL     1     -27.670  28.743   5.557  0.00  0.00    -0.379 OA
ATOM     33  H   UNL     1     -27.474  29.266   6.351  0.00  0.00    +0.211 HD
ENDBRANCH  27  32
BRANCH  26  35
ATOM     34  O   UNL     1     -27.770  26.241   4.126  0.00  0.00    -0.247 OA
ATOM     35  C   UNL     1     -28.799  26.723   3.677  0.00  0.00    +0.344 C 
BRANCH  35  36
ATOM     36  O   UNL     1     -29.473  26.226   2.611  0.00  0.00    -0.478 OA
ATOM     37  H   UNL     1     -30.398  26.355   2.539  0.00  0.00    +0.295 HD
ENDBRANCH  35  36
ENDBRANCH  26  35
ENDBRANCH  21  23
ENDBRANCH   4  21
TORSDOF 8
ENDMDL
MODEL 7
REMARK VINA RESULT:      -6.7      4.676      6.498
REMARK  Name = 5281887
REMARK  8 active torsions:
REMARK  status: ('A' for Active; 'I' for Inactive)
REMARK    1  A    between atoms: C_4  and  O_21
REMARK    2  A    between atoms: C_18  and  O_19
REMARK    3  A    between atoms: O_21  and  C_23
REMARK    4  A    between atoms: C_24  and  O_28
REMARK    5  A    between atoms: C_25  and  O_30
REMARK    6  A    between atoms: C_26  and  C_35
REMARK    7  A    between atoms: C_27  and  O_32
REMARK    8  A    between atoms: C_35  and  O_36
REMARK                            x       y       z     vdW  Elec       q    Type
REMARK                         _______ _______ _______ _____ _____    ______ ____
ROOT
ATOM      1  C   UNL     1     -34.352  31.203   1.832  0.00  0.00    +0.025 C 
ATOM      2  C   UNL     1     -33.546  32.271   2.599  0.00  0.00    +0.003 C 
ATOM      3  C   UNL     1     -33.526  33.613   1.869  0.00  0.00    +0.004 C 
ATOM      4  C   UNL     1     -34.124  30.001   2.769  0.00  0.00    +0.118 C 
ATOM      5  C   UNL     1     -34.990  34.135   1.744  0.00  0.00    +0.022 C 
ATOM      6  C   UNL     1     -35.806  31.679   1.737  0.00  0.00    +0.003 C 
ATOM      7  C   UNL     1     -32.227  31.569   2.908  0.00  0.00    +0.003 C 
ATOM      8  C   UNL     1     -32.634  30.104   3.152  0.00  0.00    +0.030 C 
ATOM      9  C   UNL     1     -35.911  33.071   1.087  0.00  0.00    +0.004 C 
ATOM     10  C   UNL     1     -32.684  34.664   2.592  0.00  0.00    +0.005 C 
ATOM     11  C   UNL     1     -33.822  30.886   0.411  0.00  0.00    +0.002 C 
ATOM     12  C   UNL     1     -35.032  35.516   1.095  0.00  0.00    -0.026 C 
ATOM     13  C   UNL     1     -32.589  35.928   1.742  0.00  0.00    +0.026 C 
ATOM     14  C   UNL     1     -33.904  36.364   1.142  0.00  0.00    -0.023 C 
ATOM     15  C   UNL     1     -36.213  36.014   0.518  0.00  0.00    -0.001 C 
ATOM     16  C   UNL     1     -33.968  37.647   0.570  0.00  0.00    +0.032 C 
ATOM     17  C   UNL     1     -36.266  37.294  -0.038  0.00  0.00    +0.036 C 
ATOM     18  C   UNL     1     -35.142  38.109  -0.017  0.00  0.00    +0.133 C 
ENDROOT
BRANCH  18  19
ATOM     19  O   UNL     1     -35.191  39.356  -0.560  0.00  0.00    -0.506 OA
ATOM     20  H   UNL     1     -34.579  39.600  -1.226  0.00  0.00    +0.292 HD
ENDBRANCH  18  19
BRANCH   4  21
ATOM     21  O   UNL     1     -34.424  28.759   2.160  0.00  0.00    -0.331 OA
BRANCH  21  23
ATOM     22  O   UNL     1     -34.667  27.050   3.729  0.00  0.00    -0.317 OA
ATOM     23  C   UNL     1     -35.359  28.004   2.930  0.00  0.00    +0.266 C 
ATOM     24  C   UNL     1     -36.306  27.299   1.959  0.00  0.00    +0.196 C 
ATOM     25  C   UNL     1     -37.258  26.358   2.699  0.00  0.00    +0.172 C 
ATOM     26  C   UNL     1     -35.548  26.279   4.537  0.00  0.00    +0.245 C 
ATOM     27  C   UNL     1     -36.504  25.459   3.679  0.00  0.00    +0.178 C 
BRANCH  24  28
ATOM     28  O   UNL     1     -37.065  28.294   1.270  0.00  0.00    -0.378 OA
ATOM     29  H   UNL     1     -36.517  28.696   0.578  0.00  0.00    +0.211 HD
ENDBRANCH  24  28
BRANCH  25  30
ATOM     30  O   UNL     1     -37.929  25.520   1.758  0.00  0.00    -0.379 OA
ATOM     31  H   UNL     1     -38.420  26.070   1.127  0.00  0.00    +0.211 HD
ENDBRANCH  25  30
BRANCH  27  32
ATOM     32  O   UNL     1     -37.442  24.808   4.533  0.00  0.00    -0.379 OA
ATOM     33  H   UNL     1     -37.902  24.112   4.038  0.00  0.00    +0.211 HD
ENDBRANCH  27  32
BRANCH  26  35
ATOM     34  O   UNL     1     -34.860  24.236   5.625  0.00  0.00    -0.247 OA
ATOM     35  C   UNL     1     -34.622  25.391   5.305  0.00  0.00    +0.344 C 
BRANCH  35  36
ATOM     36  O   UNL     1     -33.472  26.044   5.603  0.00  0.00    -0.478 OA
ATOM     37  H   UNL     1     -32.698  25.559   5.814  0.00  0.00    +0.295 HD
ENDBRANCH  35  36
ENDBRANCH  26  35
ENDBRANCH  21  23
ENDBRANCH   4  21
TORSDOF 8
ENDMDL
MODEL 8
REMARK VINA RESULT:      -6.7      5.406      8.187
REMARK  Name = 5281887
REMARK  8 active torsions:
REMARK  status: ('A' for Active; 'I' for Inactive)
REMARK    1  A    between atoms: C_4  and  O_21
REMARK    2  A    between atoms: C_18  and  O_19
REMARK    3  A    between atoms: O_21  and  C_23
REMARK    4  A    between atoms: C_24  and  O_28
REMARK    5  A    between atoms: C_25  and  O_30
REMARK    6  A    between atoms: C_26  and  C_35
REMARK    7  A    between atoms: C_27  and  O_32
REMARK    8  A    between atoms: C_35  and  O_36
REMARK                            x       y       z     vdW  Elec       q    Type
REMARK                         _______ _______ _______ _____ _____    ______ ____
ROOT
ATOM      1  C   UNL     1     -35.452  21.541   0.054  0.00  0.00    +0.025 C 
ATOM      2  C   UNL     1     -34.940  20.505   1.075  0.00  0.00    +0.003 C 
ATOM      3  C   UNL     1     -33.709  19.755   0.568  0.00  0.00    +0.004 C 
ATOM      4  C   UNL     1     -36.690  22.050   0.817  0.00  0.00    +0.118 C 
ATOM      5  C   UNL     1     -32.561  20.783   0.333  0.00  0.00    +0.022 C 
ATOM      6  C   UNL     1     -34.350  22.587  -0.158  0.00  0.00    +0.003 C 
ATOM      7  C   UNL     1     -36.195  19.719   1.444  0.00  0.00    +0.003 C 
ATOM      8  C   UNL     1     -37.318  20.771   1.404  0.00  0.00    +0.030 C 
ATOM      9  C   UNL     1     -33.023  21.939  -0.595  0.00  0.00    +0.004 C 
ATOM     10  C   UNL     1     -33.226  18.686   1.549  0.00  0.00    +0.005 C 
ATOM     11  C   UNL     1     -35.869  20.951  -1.317  0.00  0.00    +0.002 C 
ATOM     12  C   UNL     1     -31.272  20.085  -0.096  0.00  0.00    -0.026 C 
ATOM     13  C   UNL     1     -32.089  17.883   0.922  0.00  0.00    +0.026 C 
ATOM     14  C   UNL     1     -31.050  18.729   0.228  0.00  0.00    -0.023 C 
ATOM     15  C   UNL     1     -30.242  20.791  -0.741  0.00  0.00    -0.001 C 
ATOM     16  C   UNL     1     -29.844  18.108  -0.144  0.00  0.00    +0.032 C 
ATOM     17  C   UNL     1     -29.045  20.165  -1.096  0.00  0.00    +0.036 C 
ATOM     18  C   UNL     1     -28.847  18.822  -0.802  0.00  0.00    +0.133 C 
ENDROOT
BRANCH  18  19
ATOM     19  O   UNL     1     -27.683  18.210  -1.150  0.00  0.00    -0.506 OA
ATOM     20  H   UNL     1     -27.077  18.644  -1.717  0.00  0.00    +0.292 HD
ENDBRANCH  18  19
BRANCH   4  21
ATOM     21  O   UNL     1     -37.601  22.750  -0.009  0.00  0.00    -0.331 OA
BRANCH  21  23
ATOM     22  O   UNL     1     -37.581  24.010   1.954  0.00  0.00    -0.317 OA
ATOM     23  C   UNL     1     -38.116  23.914   0.638  0.00  0.00    +0.266 C 
ATOM     24  C   UNL     1     -39.638  23.788   0.690  0.00  0.00    +0.196 C 
ATOM     25  C   UNL     1     -40.261  24.933   1.490  0.00  0.00    +0.172 C 
ATOM     26  C   UNL     1     -38.042  25.166   2.644  0.00  0.00    +0.245 C 
ATOM     27  C   UNL     1     -39.554  25.125   2.831  0.00  0.00    +0.178 C 
BRANCH  24  28
ATOM     28  O   UNL     1     -40.137  23.820  -0.648  0.00  0.00    -0.378 OA
ATOM     29  H   UNL     1     -41.044  24.162  -0.647  0.00  0.00    +0.211 HD
ENDBRANCH  24  28
BRANCH  25  30
ATOM     30  O   UNL     1     -41.634  24.641   1.752  0.00  0.00    -0.379 OA
ATOM     31  H   UNL     1     -41.784  24.627   2.711  0.00  0.00    +0.211 HD
ENDBRANCH  25  30
BRANCH  27  32
ATOM     32  O   UNL     1     -39.977  26.359   3.410  0.00  0.00    -0.379 OA
ATOM     33  H   UNL     1     -39.867  26.319   4.373  0.00  0.00    +0.211 HD
ENDBRANCH  27  32
BRANCH  26  35
ATOM     34  O   UNL     1     -36.999  24.051   4.513  0.00  0.00    -0.247 OA
ATOM     35  C   UNL     1     -37.337  25.086   3.959  0.00  0.00    +0.344 C 
BRANCH  35  36
ATOM     36  O   UNL     1     -37.121  26.327   4.462  0.00  0.00    -0.478 OA
ATOM     37  H   UNL     1     -36.322  26.518   4.913  0.00  0.00    +0.295 HD
ENDBRANCH  35  36
ENDBRANCH  26  35
ENDBRANCH  21  23
ENDBRANCH   4  21
TORSDOF 8
ENDMDL
MODEL 9
REMARK VINA RESULT:      -6.5      1.510      3.575
REMARK  Name = 5281887
REMARK  8 active torsions:
REMARK  status: ('A' for Active; 'I' for Inactive)
REMARK    1  A    between atoms: C_4  and  O_21
REMARK    2  A    between atoms: C_18  and  O_19
REMARK    3  A    between atoms: O_21  and  C_23
REMARK    4  A    between atoms: C_24  and  O_28
REMARK    5  A    between atoms: C_25  and  O_30
REMARK    6  A    between atoms: C_26  and  C_35
REMARK    7  A    between atoms: C_27  and  O_32
REMARK    8  A    between atoms: C_35  and  O_36
REMARK                            x       y       z     vdW  Elec       q    Type
REMARK                         _______ _______ _______ _____ _____    ______ ____
ROOT
ATOM      1  C   UNL     1     -35.217  24.902   3.932  0.00  0.00    +0.025 C 
ATOM      2  C   UNL     1     -33.942  25.041   3.077  0.00  0.00    +0.003 C 
ATOM      3  C   UNL     1     -33.288  26.413   3.236  0.00  0.00    +0.004 C 
ATOM      4  C   UNL     1     -35.649  23.486   3.505  0.00  0.00    +0.118 C 
ATOM      5  C   UNL     1     -32.871  26.597   4.727  0.00  0.00    +0.022 C 
ATOM      6  C   UNL     1     -34.820  25.037   5.408  0.00  0.00    +0.003 C 
ATOM      7  C   UNL     1     -34.389  24.583   1.692  0.00  0.00    +0.003 C 
ATOM      8  C   UNL     1     -35.411  23.468   1.982  0.00  0.00    +0.030 C 
ATOM      9  C   UNL     1     -34.072  26.355   5.680  0.00  0.00    +0.004 C 
ATOM     10  C   UNL     1     -32.053  26.582   2.350  0.00  0.00    +0.005 C 
ATOM     11  C   UNL     1     -36.333  25.927   3.606  0.00  0.00    +0.002 C 
ATOM     12  C   UNL     1     -32.133  27.917   4.938  0.00  0.00    -0.026 C 
ATOM     13  C   UNL     1     -31.536  28.015   2.450  0.00  0.00    +0.026 C 
ATOM     14  C   UNL     1     -31.474  28.549   3.860  0.00  0.00    -0.023 C 
ATOM     15  C   UNL     1     -32.015  28.489   6.216  0.00  0.00    -0.001 C 
ATOM     16  C   UNL     1     -30.770  29.747   4.075  0.00  0.00    +0.032 C 
ATOM     17  C   UNL     1     -31.305  29.675   6.417  0.00  0.00    +0.036 C 
ATOM     18  C   UNL     1     -30.686  30.307   5.347  0.00  0.00    +0.133 C 
ENDROOT
BRANCH  18  19
ATOM     19  O   UNL     1     -29.996  31.464   5.540  0.00  0.00    -0.506 OA
ATOM     20  H   UNL     1     -29.122  31.547   5.216  0.00  0.00    +0.292 HD
ENDBRANCH  18  19
BRANCH   4  21
ATOM     21  O   UNL     1     -36.995  23.196   3.828  0.00  0.00    -0.331 OA
BRANCH  21  23
ATOM     22  O   UNL     1     -38.742  24.387   2.842  0.00  0.00    -0.317 OA
ATOM     23  C   UNL     1     -37.847  23.290   2.687  0.00  0.00    +0.266 C 
ATOM     24  C   UNL     1     -38.626  21.980   2.572  0.00  0.00    +0.196 C 
ATOM     25  C   UNL     1     -39.663  22.050   1.450  0.00  0.00    +0.172 C 
ATOM     26  C   UNL     1     -39.604  24.546   1.722  0.00  0.00    +0.245 C 
ATOM     27  C   UNL     1     -40.500  23.326   1.542  0.00  0.00    +0.178 C 
BRANCH  24  28
ATOM     28  O   UNL     1     -37.699  20.930   2.294  0.00  0.00    -0.378 OA
ATOM     29  H   UNL     1     -37.081  21.218   1.605  0.00  0.00    +0.211 HD
ENDBRANCH  24  28
BRANCH  25  30
ATOM     30  O   UNL     1     -40.549  20.934   1.548  0.00  0.00    -0.379 OA
ATOM     31  H   UNL     1     -40.470  20.535   2.429  0.00  0.00    +0.211 HD
ENDBRANCH  25  30
BRANCH  27  32
ATOM     32  O   UNL     1     -41.249  23.482   0.338  0.00  0.00    -0.379 OA
ATOM     33  H   UNL     1     -41.370  22.616  -0.082  0.00  0.00    +0.211 HD
ENDBRANCH  27  32
BRANCH  26  35
ATOM     34  O   UNL     1     -41.336  26.200   1.417  0.00  0.00    -0.247 OA
ATOM     35  C   UNL     1     -40.410  25.754   2.077  0.00  0.00    +0.344 C 
BRANCH  35  36
ATOM     36  O   UNL     1     -39.971  26.297   3.239  0.00  0.00    -0.478 OA
ATOM     37  H   UNL     1     -40.167  27.190   3.443  0.00  0.00    +0.295 HD
ENDBRANCH  35  36
ENDBRANCH  26  35
ENDBRANCH  21  23
ENDBRANCH   4  21
TORSDOF 8
ENDMDL
