MODEL 1
REMARK VINA RESULT:      -5.3      0.000      0.000
REMARK  Name = 196305
REMARK  13 active torsions:
REMARK  status: ('A' for Active; 'I' for Inactive)
REMARK    1  A    between atoms: N_2  and  CA_18
REMARK    2  A    between atoms: C_3  and  CA_5
REMARK    3  A    between atoms: CA_5  and  N_6
REMARK    4  A    between atoms: CA_5  and  CB_10
REMARK    5  A    between atoms: CB_10  and  CG_11
REMARK    6  A    between atoms: CG_11  and  CD_12
REMARK    7  A    between atoms: CD_12  and  CE_13
REMARK    8  A    between atoms: CE_13  and  NZ_14
REMARK    9  A    between atoms: CA_18  and  C_20
REMARK   10  A    between atoms: CA_18  and  CB_23
REMARK   11  A    between atoms: C_20  and  O_21
REMARK   12  A    between atoms: CB_23  and  CG_24
REMARK   13  A    between atoms: CG_24  and  CD_27
REMARK                            x       y       z     vdW  Elec       q    Type
REMARK                         _______ _______ _______ _____ _____    ______ ____
ROOT
ATOM      1  O   LYS A   1     -36.257  24.493   2.797  0.00  0.00    -0.277 OA
ATOM      2  N   GLN A   2     -37.380  22.554   3.398  0.00  0.00    -0.298 N 
ATOM      3  C   LYS A   1     -36.562  23.649   3.636  0.00  0.00    +0.202 C 
ATOM      4  H   GLN A   2     -37.563  21.935   4.142  0.00  0.00    +0.150 HD
ENDROOT
BRANCH   3   5
ATOM      5  CA  LYS A   1     -36.091  23.709   5.086  0.00  0.00    +0.013 C 
BRANCH   5   6
ATOM      6  N   LYS A   1     -36.109  22.346   5.613  0.00  0.00    +0.387 N 
ATOM      7  H1  LYS A   1     -35.433  22.267   6.374  0.00  0.00    -0.089 HD
ATOM      8  H2  LYS A   1     -35.863  21.690   4.871  0.00  0.00    -0.089 HD
ATOM      9  H3  LYS A   1     -37.042  22.128   5.964  0.00  0.00    -0.089 HD
ENDBRANCH   5   6
BRANCH   5  10
ATOM     10  CB  LYS A   1     -34.690  24.336   5.143  0.00  0.00    -0.013 C 
BRANCH  10  11
ATOM     11  CG  LYS A   1     -34.694  25.792   5.619  0.00  0.00    -0.004 C 
BRANCH  11  12
ATOM     12  CD  LYS A   1     -33.611  26.610   4.912  0.00  0.00    -0.024 C 
BRANCH  12  13
ATOM     13  CE  LYS A   1     -34.178  27.345   3.698  0.00  0.00    -0.086 C 
BRANCH  13  14
ATOM     14  NZ  LYS A   1     -35.630  27.428   3.789  0.00  0.00    +0.380 N 
ATOM     15  HZ1 LYS A   1     -35.953  26.874   4.583  0.00  0.00    -0.089 HD
ATOM     16  HZ2 LYS A   1     -36.046  27.067   2.931  0.00  0.00    -0.089 HD
ATOM     17  HZ3 LYS A   1     -35.909  28.401   3.919  0.00  0.00    -0.089 HD
ENDBRANCH  13  14
ENDBRANCH  12  13
ENDBRANCH  11  12
ENDBRANCH  10  11
ENDBRANCH   5  10
ENDBRANCH   3   5
BRANCH   2  18
ATOM     18  CA  GLN A   2     -37.979  22.276   2.112  0.00  0.00    +0.172 C 
BRANCH  18  20
ATOM     19  OXT GLN A   2     -40.178  23.270   2.233  0.00  0.00    -0.248 OA
ATOM     20  C   GLN A   2     -39.497  22.251   2.166  0.00  0.00    +0.332 C 
BRANCH  20  21
ATOM     21  O   GLN A   2     -40.044  21.012   2.181  0.00  0.00    -0.479 OA
ATOM     22  H   GLN A   2     -40.175  20.568   2.996  0.00  0.00    +0.295 HD
ENDBRANCH  20  21
ENDBRANCH  18  20
BRANCH  18  23
ATOM     23  CB  GLN A   2     -37.429  20.978   1.507  0.00  0.00    +0.041 C 
BRANCH  23  24
ATOM     24  CG  GLN A   2     -35.940  21.042   1.152  0.00  0.00    +0.087 C 
BRANCH  24  27
ATOM     25  OE1 GLN A   2     -35.212  20.415   3.358  0.00  0.00    -0.275 OA
ATOM     26  NE2 GLN A   2     -34.294  19.318   1.554  0.00  0.00    -0.329 N 
ATOM     27  CD  GLN A   2     -35.122  20.246   2.144  0.00  0.00    +0.219 C 
ATOM     28 HE21 GLN A   2     -33.718  18.747   2.113  0.00  0.00    +0.145 HD
ATOM     29 HE22 GLN A   2     -34.278  19.226   0.575  0.00  0.00    +0.145 HD
ENDBRANCH  24  27
ENDBRANCH  23  24
ENDBRANCH  18  23
ENDBRANCH   2  18
TORSDOF 13
ENDMDL
MODEL 2
REMARK VINA RESULT:      -5.1      2.504      5.876
REMARK  Name = 196305
REMARK  13 active torsions:
REMARK  status: ('A' for Active; 'I' for Inactive)
REMARK    1  A    between atoms: N_2  and  CA_18
REMARK    2  A    between atoms: C_3  and  CA_5
REMARK    3  A    between atoms: CA_5  and  N_6
REMARK    4  A    between atoms: CA_5  and  CB_10
REMARK    5  A    between atoms: CB_10  and  CG_11
REMARK    6  A    between atoms: CG_11  and  CD_12
REMARK    7  A    between atoms: CD_12  and  CE_13
REMARK    8  A    between atoms: CE_13  and  NZ_14
REMARK    9  A    between atoms: CA_18  and  C_20
REMARK   10  A    between atoms: CA_18  and  CB_23
REMARK   11  A    between atoms: C_20  and  O_21
REMARK   12  A    between atoms: CB_23  and  CG_24
REMARK   13  A    between atoms: CG_24  and  CD_27
REMARK                            x       y       z     vdW  Elec       q    Type
REMARK                         _______ _______ _______ _____ _____    ______ ____
ROOT
ATOM      1  O   LYS A   1     -36.694  23.638   2.179  0.00  0.00    -0.277 OA
ATOM      2  N   GLN A   2     -36.632  23.817   4.492  0.00  0.00    -0.298 N 
ATOM      3  C   LYS A   1     -37.180  24.034   3.236  0.00  0.00    +0.202 C 
ATOM      4  H   GLN A   2     -37.104  24.178   5.277  0.00  0.00    +0.150 HD
ENDROOT
BRANCH   3   5
ATOM      5  CA  LYS A   1     -38.490  24.814   3.308  0.00  0.00    +0.013 C 
BRANCH   5   6
ATOM      6  N   LYS A   1     -38.175  26.166   3.764  0.00  0.00    +0.387 N 
ATOM      7  H1  LYS A   1     -38.467  26.840   3.055  0.00  0.00    -0.089 HD
ATOM      8  H2  LYS A   1     -37.170  26.248   3.916  0.00  0.00    -0.089 HD
ATOM      9  H3  LYS A   1     -38.668  26.355   4.636  0.00  0.00    -0.089 HD
ENDBRANCH   5   6
BRANCH   5  10
ATOM     10  CB  LYS A   1     -39.165  24.807   1.928  0.00  0.00    -0.013 C 
BRANCH  10  11
ATOM     11  CG  LYS A   1     -40.192  23.682   1.758  0.00  0.00    -0.004 C 
BRANCH  11  12
ATOM     12  CD  LYS A   1     -39.795  22.737   0.621  0.00  0.00    -0.024 C 
BRANCH  12  13
ATOM     13  CE  LYS A   1     -39.734  21.288   1.103  0.00  0.00    -0.086 C 
BRANCH  13  14
ATOM     14  NZ  LYS A   1     -38.760  21.153   2.179  0.00  0.00    +0.380 N 
ATOM     15  HZ1 LYS A   1     -38.835  20.223   2.591  0.00  0.00    -0.089 HD
ATOM     16  HZ2 LYS A   1     -38.943  21.858   2.894  0.00  0.00    -0.089 HD
ATOM     17  HZ3 LYS A   1     -37.820  21.285   1.805  0.00  0.00    -0.089 HD
ENDBRANCH  13  14
ENDBRANCH  12  13
ENDBRANCH  11  12
ENDBRANCH  10  11
ENDBRANCH   5  10
ENDBRANCH   3   5
BRANCH   2  18
ATOM     18  CA  GLN A   2     -35.405  23.084   4.706  0.00  0.00    +0.172 C 
BRANCH  18  20
ATOM     19  OXT GLN A   2     -36.093  22.039   6.773  0.00  0.00    -0.248 OA
ATOM     20  C   GLN A   2     -35.578  21.919   5.666  0.00  0.00    +0.332 C 
BRANCH  20  21
ATOM     21  O   GLN A   2     -35.077  20.741   5.223  0.00  0.00    -0.479 OA
ATOM     22  H   GLN A   2     -35.226  20.472   4.338  0.00  0.00    +0.295 HD
ENDBRANCH  20  21
ENDBRANCH  18  20
BRANCH  18  23
ATOM     23  CB  GLN A   2     -34.273  24.012   5.165  0.00  0.00    +0.041 C 
BRANCH  23  24
ATOM     24  CG  GLN A   2     -33.939  25.124   4.166  0.00  0.00    +0.087 C 
BRANCH  24  27
ATOM     25  OE1 GLN A   2     -35.544  26.628   5.140  0.00  0.00    -0.275 OA
ATOM     26  NE2 GLN A   2     -33.465  27.454   4.598  0.00  0.00    -0.329 N 
ATOM     27  CD  GLN A   2     -34.416  26.463   4.681  0.00  0.00    +0.219 C 
ATOM     28 HE21 GLN A   2     -33.675  28.365   4.908  0.00  0.00    +0.145 HD
ATOM     29 HE22 GLN A   2     -32.575  27.253   4.230  0.00  0.00    +0.145 HD
ENDBRANCH  24  27
ENDBRANCH  23  24
ENDBRANCH  18  23
ENDBRANCH   2  18
TORSDOF 13
ENDMDL
MODEL 3
REMARK VINA RESULT:      -5.1      2.339      5.137
REMARK  Name = 196305
REMARK  13 active torsions:
REMARK  status: ('A' for Active; 'I' for Inactive)
REMARK    1  A    between atoms: N_2  and  CA_18
REMARK    2  A    between atoms: C_3  and  CA_5
REMARK    3  A    between atoms: CA_5  and  N_6
REMARK    4  A    between atoms: CA_5  and  CB_10
REMARK    5  A    between atoms: CB_10  and  CG_11
REMARK    6  A    between atoms: CG_11  and  CD_12
REMARK    7  A    between atoms: CD_12  and  CE_13
REMARK    8  A    between atoms: CE_13  and  NZ_14
REMARK    9  A    between atoms: CA_18  and  C_20
REMARK   10  A    between atoms: CA_18  and  CB_23
REMARK   11  A    between atoms: C_20  and  O_21
REMARK   12  A    between atoms: CB_23  and  CG_24
REMARK   13  A    between atoms: CG_24  and  CD_27
REMARK                            x       y       z     vdW  Elec       q    Type
REMARK                         _______ _______ _______ _____ _____    ______ ____
ROOT
ATOM      1  O   LYS A   1     -35.952  22.068   1.803  0.00  0.00    -0.277 OA
ATOM      2  N   GLN A   2     -36.885  22.801   3.797  0.00  0.00    -0.298 N 
ATOM      3  C   LYS A   1     -36.931  22.392   2.472  0.00  0.00    +0.202 C 
ATOM      4  H   GLN A   2     -37.731  23.040   4.243  0.00  0.00    +0.150 HD
ENDROOT
BRANCH   3   5
ATOM      5  CA  LYS A   1     -38.356  22.365   1.928  0.00  0.00    +0.013 C 
BRANCH   5   6
ATOM      6  N   LYS A   1     -38.907  21.039   2.200  0.00  0.00    +0.387 N 
ATOM      7  H1  LYS A   1     -39.919  21.108   2.313  0.00  0.00    -0.089 HD
ATOM      8  H2  LYS A   1     -38.494  20.667   3.056  0.00  0.00    -0.089 HD
ATOM      9  H3  LYS A   1     -38.695  20.415   1.421  0.00  0.00    -0.089 HD
ENDBRANCH   5   6
BRANCH   5  10
ATOM     10  CB  LYS A   1     -39.176  23.483   2.588  0.00  0.00    -0.013 C 
BRANCH  10  11
ATOM     11  CG  LYS A   1     -39.156  24.798   1.802  0.00  0.00    -0.004 C 
BRANCH  11  12
ATOM     12  CD  LYS A   1     -38.413  25.892   2.573  0.00  0.00    -0.024 C 
BRANCH  12  13
ATOM     13  CE  LYS A   1     -37.047  26.177   1.948  0.00  0.00    -0.086 C 
BRANCH  13  14
ATOM     14  NZ  LYS A   1     -36.449  27.359   2.556  0.00  0.00    +0.380 N 
ATOM     15  HZ1 LYS A   1     -37.095  27.752   3.241  0.00  0.00    -0.089 HD
ATOM     16  HZ2 LYS A   1     -36.255  28.053   1.834  0.00  0.00    -0.089 HD
ATOM     17  HZ3 LYS A   1     -35.578  27.099   3.020  0.00  0.00    -0.089 HD
ENDBRANCH  13  14
ENDBRANCH  12  13
ENDBRANCH  11  12
ENDBRANCH  10  11
ENDBRANCH   5  10
ENDBRANCH   3   5
BRANCH   2  18
ATOM     18  CA  GLN A   2     -35.659  22.893   4.557  0.00  0.00    +0.172 C 
BRANCH  18  20
ATOM     19  OXT GLN A   2     -35.956  22.129   6.831  0.00  0.00    -0.248 OA
ATOM     20  C   GLN A   2     -35.593  21.877   5.686  0.00  0.00    +0.332 C 
BRANCH  20  21
ATOM     21  O   GLN A   2     -35.057  20.682   5.342  0.00  0.00    -0.479 OA
ATOM     22  H   GLN A   2     -35.615  19.982   5.064  0.00  0.00    +0.295 HD
ENDBRANCH  20  21
ENDBRANCH  18  20
BRANCH  18  23
ATOM     23  CB  GLN A   2     -35.432  24.315   5.083  0.00  0.00    +0.041 C 
BRANCH  23  24
ATOM     24  CG  GLN A   2     -34.116  24.946   4.618  0.00  0.00    +0.087 C 
BRANCH  24  27
ATOM     25  OE1 GLN A   2     -34.272  27.328   4.320  0.00  0.00    -0.275 OA
ATOM     26  NE2 GLN A   2     -33.665  26.526   6.391  0.00  0.00    -0.329 N 
ATOM     27  CD  GLN A   2     -34.026  26.386   5.070  0.00  0.00    +0.219 C 
ATOM     28 HE21 GLN A   2     -33.579  27.424   6.784  0.00  0.00    +0.145 HD
ATOM     29 HE22 GLN A   2     -33.493  25.729   6.941  0.00  0.00    +0.145 HD
ENDBRANCH  24  27
ENDBRANCH  23  24
ENDBRANCH  18  23
ENDBRANCH   2  18
TORSDOF 13
ENDMDL
MODEL 4
REMARK VINA RESULT:      -5.0      2.193      3.223
REMARK  Name = 196305
REMARK  13 active torsions:
REMARK  status: ('A' for Active; 'I' for Inactive)
REMARK    1  A    between atoms: N_2  and  CA_18
REMARK    2  A    between atoms: C_3  and  CA_5
REMARK    3  A    between atoms: CA_5  and  N_6
REMARK    4  A    between atoms: CA_5  and  CB_10
REMARK    5  A    between atoms: CB_10  and  CG_11
REMARK    6  A    between atoms: CG_11  and  CD_12
REMARK    7  A    between atoms: CD_12  and  CE_13
REMARK    8  A    between atoms: CE_13  and  NZ_14
REMARK    9  A    between atoms: CA_18  and  C_20
REMARK   10  A    between atoms: CA_18  and  CB_23
REMARK   11  A    between atoms: C_20  and  O_21
REMARK   12  A    between atoms: CB_23  and  CG_24
REMARK   13  A    between atoms: CG_24  and  CD_27
REMARK                            x       y       z     vdW  Elec       q    Type
REMARK                         _______ _______ _______ _____ _____    ______ ____
ROOT
ATOM      1  O   LYS A   1     -36.145  22.807   3.049  0.00  0.00    -0.277 OA
ATOM      2  N   GLN A   2     -37.565  24.398   3.964  0.00  0.00    -0.298 N 
ATOM      3  C   LYS A   1     -36.527  23.478   4.005  0.00  0.00    +0.202 C 
ATOM      4  H   GLN A   2     -37.792  24.885   4.790  0.00  0.00    +0.150 HD
ENDROOT
BRANCH   3   5
ATOM      5  CA  LYS A   1     -35.881  23.402   5.385  0.00  0.00    +0.013 C 
BRANCH   5   6
ATOM      6  N   LYS A   1     -35.867  21.998   5.791  0.00  0.00    +0.387 N 
ATOM      7  H1  LYS A   1     -36.678  21.807   6.381  0.00  0.00    -0.089 HD
ATOM      8  H2  LYS A   1     -35.013  21.803   6.314  0.00  0.00    -0.089 HD
ATOM      9  H3  LYS A   1     -35.902  21.404   4.963  0.00  0.00    -0.089 HD
ENDBRANCH   5   6
BRANCH   5  10
ATOM     10  CB  LYS A   1     -34.469  24.004   5.322  0.00  0.00    -0.013 C 
BRANCH  10  11
ATOM     11  CG  LYS A   1     -34.432  25.504   5.630  0.00  0.00    -0.004 C 
BRANCH  11  12
ATOM     12  CD  LYS A   1     -33.888  26.301   4.441  0.00  0.00    -0.024 C 
BRANCH  12  13
ATOM     13  CE  LYS A   1     -35.022  26.937   3.638  0.00  0.00    -0.086 C 
BRANCH  13  14
ATOM     14  NZ  LYS A   1     -35.074  26.368   2.297  0.00  0.00    +0.380 N 
ATOM     15  HZ1 LYS A   1     -35.510  27.036   1.661  0.00  0.00    -0.089 HD
ATOM     16  HZ2 LYS A   1     -35.620  25.507   2.314  0.00  0.00    -0.089 HD
ATOM     17  HZ3 LYS A   1     -34.126  26.163   1.977  0.00  0.00    -0.089 HD
ENDBRANCH  13  14
ENDBRANCH  12  13
ENDBRANCH  11  12
ENDBRANCH  10  11
ENDBRANCH   5  10
ENDBRANCH   3   5
BRANCH   2  18
ATOM     18  CA  GLN A   2     -38.329  24.678   2.770  0.00  0.00    +0.172 C 
BRANCH  18  20
ATOM     19  OXT GLN A   2     -38.143  26.915   1.872  0.00  0.00    -0.248 OA
ATOM     20  C   GLN A   2     -38.705  26.146   2.647  0.00  0.00    +0.332 C 
BRANCH  20  21
ATOM     21  O   GLN A   2     -39.680  26.554   3.493  0.00  0.00    -0.479 OA
ATOM     22  H   GLN A   2     -39.981  25.982   4.172  0.00  0.00    +0.295 HD
ENDBRANCH  20  21
ENDBRANCH  18  20
BRANCH  18  23
ATOM     23  CB  GLN A   2     -39.571  23.783   2.678  0.00  0.00    +0.041 C 
BRANCH  23  24
ATOM     24  CG  GLN A   2     -39.720  23.066   1.332  0.00  0.00    +0.087 C 
BRANCH  24  27
ATOM     25  OE1 GLN A   2     -40.593  20.840   1.069  0.00  0.00    -0.275 OA
ATOM     26  NE2 GLN A   2     -38.626  21.109   2.235  0.00  0.00    -0.329 N 
ATOM     27  CD  GLN A   2     -39.712  21.566   1.524  0.00  0.00    +0.219 C 
ATOM     28 HE21 GLN A   2     -38.526  20.146   2.415  0.00  0.00    +0.145 HD
ATOM     29 HE22 GLN A   2     -37.950  21.743   2.562  0.00  0.00    +0.145 HD
ENDBRANCH  24  27
ENDBRANCH  23  24
ENDBRANCH  18  23
ENDBRANCH   2  18
TORSDOF 13
ENDMDL
MODEL 5
REMARK VINA RESULT:      -4.8      2.538      6.480
REMARK  Name = 196305
REMARK  13 active torsions:
REMARK  status: ('A' for Active; 'I' for Inactive)
REMARK    1  A    between atoms: N_2  and  CA_18
REMARK    2  A    between atoms: C_3  and  CA_5
REMARK    3  A    between atoms: CA_5  and  N_6
REMARK    4  A    between atoms: CA_5  and  CB_10
REMARK    5  A    between atoms: CB_10  and  CG_11
REMARK    6  A    between atoms: CG_11  and  CD_12
REMARK    7  A    between atoms: CD_12  and  CE_13
REMARK    8  A    between atoms: CE_13  and  NZ_14
REMARK    9  A    between atoms: CA_18  and  C_20
REMARK   10  A    between atoms: CA_18  and  CB_23
REMARK   11  A    between atoms: C_20  and  O_21
REMARK   12  A    between atoms: CB_23  and  CG_24
REMARK   13  A    between atoms: CG_24  and  CD_27
REMARK                            x       y       z     vdW  Elec       q    Type
REMARK                         _______ _______ _______ _____ _____    ______ ____
ROOT
ATOM      1  O   LYS A   1     -34.826  20.199   2.785  0.00  0.00    -0.277 OA
ATOM      2  N   GLN A   2     -36.266  21.903   3.424  0.00  0.00    -0.298 N 
ATOM      3  C   LYS A   1     -35.895  20.795   2.675  0.00  0.00    +0.202 C 
ATOM      4  H   GLN A   2     -37.149  22.307   3.257  0.00  0.00    +0.150 HD
ENDROOT
BRANCH   3   5
ATOM      5  CA  LYS A   1     -36.986  20.373   1.695  0.00  0.00    +0.013 C 
BRANCH   5   6
ATOM      6  N   LYS A   1     -38.222  21.046   2.093  0.00  0.00    +0.387 N 
ATOM      7  H1  LYS A   1     -38.125  22.051   1.942  0.00  0.00    -0.089 HD
ATOM      8  H2  LYS A   1     -38.404  20.866   3.080  0.00  0.00    -0.089 HD
ATOM      9  H3  LYS A   1     -38.998  20.691   1.534  0.00  0.00    -0.089 HD
ENDBRANCH   5   6
BRANCH   5  10
ATOM     10  CB  LYS A   1     -36.559  20.738   0.266  0.00  0.00    -0.013 C 
BRANCH  10  11
ATOM     11  CG  LYS A   1     -36.044  19.541  -0.540  0.00  0.00    -0.004 C 
BRANCH  11  12
ATOM     12  CD  LYS A   1     -34.581  19.734  -0.946  0.00  0.00    -0.024 C 
BRANCH  12  13
ATOM     13  CE  LYS A   1     -33.733  18.525  -0.552  0.00  0.00    -0.086 C 
BRANCH  13  14
ATOM     14  NZ  LYS A   1     -34.208  17.963   0.706  0.00  0.00    +0.380 N 
ATOM     15  HZ1 LYS A   1     -33.763  18.448   1.485  0.00  0.00    -0.089 HD
ATOM     16  HZ2 LYS A   1     -33.974  16.970   0.745  0.00  0.00    -0.089 HD
ATOM     17  HZ3 LYS A   1     -35.220  18.076   0.769  0.00  0.00    -0.089 HD
ENDBRANCH  13  14
ENDBRANCH  12  13
ENDBRANCH  11  12
ENDBRANCH  10  11
ENDBRANCH   5  10
ENDBRANCH   3   5
BRANCH   2  18
ATOM     18  CA  GLN A   2     -35.423  22.492   4.440  0.00  0.00    +0.172 C 
BRANCH  18  20
ATOM     19  OXT GLN A   2     -35.954  22.332   6.792  0.00  0.00    -0.248 OA
ATOM     20  C   GLN A   2     -35.536  21.781   5.778  0.00  0.00    +0.332 C 
BRANCH  20  21
ATOM     21  O   GLN A   2     -35.095  20.501   5.780  0.00  0.00    -0.479 OA
ATOM     22  H   GLN A   2     -35.693  19.800   5.949  0.00  0.00    +0.295 HD
ENDBRANCH  20  21
ENDBRANCH  18  20
BRANCH  18  23
ATOM     23  CB  GLN A   2     -35.695  23.994   4.590  0.00  0.00    +0.041 C 
BRANCH  23  24
ATOM     24  CG  GLN A   2     -34.472  24.875   4.319  0.00  0.00    +0.087 C 
BRANCH  24  27
ATOM     25  OE1 GLN A   2     -34.080  26.455   6.090  0.00  0.00    -0.275 OA
ATOM     26  NE2 GLN A   2     -35.379  27.115   4.308  0.00  0.00    -0.329 N 
ATOM     27  CD  GLN A   2     -34.615  26.212   5.011  0.00  0.00    +0.219 C 
ATOM     28 HE21 GLN A   2     -35.533  28.017   4.671  0.00  0.00    +0.145 HD
ATOM     29 HE22 GLN A   2     -35.769  26.860   3.442  0.00  0.00    +0.145 HD
ENDBRANCH  24  27
ENDBRANCH  23  24
ENDBRANCH  18  23
ENDBRANCH   2  18
TORSDOF 13
ENDMDL
MODEL 6
REMARK VINA RESULT:      -4.7      3.531      7.715
REMARK  Name = 196305
REMARK  13 active torsions:
REMARK  status: ('A' for Active; 'I' for Inactive)
REMARK    1  A    between atoms: N_2  and  CA_18
REMARK    2  A    between atoms: C_3  and  CA_5
REMARK    3  A    between atoms: CA_5  and  N_6
REMARK    4  A    between atoms: CA_5  and  CB_10
REMARK    5  A    between atoms: CB_10  and  CG_11
REMARK    6  A    between atoms: CG_11  and  CD_12
REMARK    7  A    between atoms: CD_12  and  CE_13
REMARK    8  A    between atoms: CE_13  and  NZ_14
REMARK    9  A    between atoms: CA_18  and  C_20
REMARK   10  A    between atoms: CA_18  and  CB_23
REMARK   11  A    between atoms: C_20  and  O_21
REMARK   12  A    between atoms: CB_23  and  CG_24
REMARK   13  A    between atoms: CG_24  and  CD_27
REMARK                            x       y       z     vdW  Elec       q    Type
REMARK                         _______ _______ _______ _____ _____    ______ ____
ROOT
ATOM      1  O   LYS A   1     -33.397  24.945   4.444  0.00  0.00    -0.277 OA
ATOM      2  N   GLN A   2     -33.884  27.163   4.924  0.00  0.00    -0.298 N 
ATOM      3  C   LYS A   1     -34.144  25.800   4.915  0.00  0.00    +0.202 C 
ATOM      4  H   GLN A   2     -34.552  27.764   5.328  0.00  0.00    +0.150 HD
ENDROOT
BRANCH   3   5
ATOM      5  CA  LYS A   1     -35.473  25.464   5.586  0.00  0.00    +0.013 C 
BRANCH   5   6
ATOM      6  N   LYS A   1     -36.412  26.539   5.270  0.00  0.00    +0.387 N 
ATOM      7  H1  LYS A   1     -37.347  26.275   5.581  0.00  0.00    -0.089 HD
ATOM      8  H2  LYS A   1     -36.421  26.697   4.262  0.00  0.00    -0.089 HD
ATOM      9  H3  LYS A   1     -36.124  27.394   5.745  0.00  0.00    -0.089 HD
ENDBRANCH   5   6
BRANCH   5  10
ATOM     10  CB  LYS A   1     -35.965  24.096   5.089  0.00  0.00    -0.013 C 
BRANCH  10  11
ATOM     11  CG  LYS A   1     -35.507  22.928   5.968  0.00  0.00    -0.004 C 
BRANCH  11  12
ATOM     12  CD  LYS A   1     -35.251  21.672   5.131  0.00  0.00    -0.024 C 
BRANCH  12  13
ATOM     13  CE  LYS A   1     -35.541  21.925   3.652  0.00  0.00    -0.086 C 
BRANCH  13  14
ATOM     14  NZ  LYS A   1     -36.108  20.732   3.037  0.00  0.00    +0.380 N 
ATOM     15  HZ1 LYS A   1     -37.122  20.737   3.155  0.00  0.00    -0.089 HD
ATOM     16  HZ2 LYS A   1     -35.718  19.901   3.483  0.00  0.00    -0.089 HD
ATOM     17  HZ3 LYS A   1     -35.882  20.721   2.042  0.00  0.00    -0.089 HD
ENDBRANCH  13  14
ENDBRANCH  12  13
ENDBRANCH  11  12
ENDBRANCH  10  11
ENDBRANCH   5  10
ENDBRANCH   3   5
BRANCH   2  18
ATOM     18  CA  GLN A   2     -32.682  27.745   4.372  0.00  0.00    +0.172 C 
BRANCH  18  20
ATOM     19  OXT GLN A   2     -30.819  27.945   5.899  0.00  0.00    -0.248 OA
ATOM     20  C   GLN A   2     -31.835  28.444   5.422  0.00  0.00    +0.332 C 
BRANCH  20  21
ATOM     21  O   GLN A   2     -32.312  29.644   5.828  0.00  0.00    -0.479 OA
ATOM     22  H   GLN A   2     -32.894  30.128   5.276  0.00  0.00    +0.295 HD
ENDBRANCH  20  21
ENDBRANCH  18  20
BRANCH  18  23
ATOM     23  CB  GLN A   2     -33.002  28.688   3.206  0.00  0.00    +0.041 C 
BRANCH  23  24
ATOM     24  CG  GLN A   2     -34.492  28.764   2.861  0.00  0.00    +0.087 C 
BRANCH  24  27
ATOM     25  OE1 GLN A   2     -34.823  30.772   1.578  0.00  0.00    -0.275 OA
ATOM     26  NE2 GLN A   2     -35.434  30.784   3.797  0.00  0.00    -0.329 N 
ATOM     27  CD  GLN A   2     -34.920  30.202   2.662  0.00  0.00    +0.219 C 
ATOM     28 HE21 GLN A   2     -35.742  31.719   3.774  0.00  0.00    +0.145 HD
ATOM     29 HE22 GLN A   2     -35.494  30.267   4.632  0.00  0.00    +0.145 HD
ENDBRANCH  24  27
ENDBRANCH  23  24
ENDBRANCH  18  23
ENDBRANCH   2  18
TORSDOF 13
ENDMDL
MODEL 7
REMARK VINA RESULT:      -4.7      3.559      7.109
REMARK  Name = 196305
REMARK  13 active torsions:
REMARK  status: ('A' for Active; 'I' for Inactive)
REMARK    1  A    between atoms: N_2  and  CA_18
REMARK    2  A    between atoms: C_3  and  CA_5
REMARK    3  A    between atoms: CA_5  and  N_6
REMARK    4  A    between atoms: CA_5  and  CB_10
REMARK    5  A    between atoms: CB_10  and  CG_11
REMARK    6  A    between atoms: CG_11  and  CD_12
REMARK    7  A    between atoms: CD_12  and  CE_13
REMARK    8  A    between atoms: CE_13  and  NZ_14
REMARK    9  A    between atoms: CA_18  and  C_20
REMARK   10  A    between atoms: CA_18  and  CB_23
REMARK   11  A    between atoms: C_20  and  O_21
REMARK   12  A    between atoms: CB_23  and  CG_24
REMARK   13  A    between atoms: CG_24  and  CD_27
REMARK                            x       y       z     vdW  Elec       q    Type
REMARK                         _______ _______ _______ _____ _____    ______ ____
ROOT
ATOM      1  O   LYS A   1     -33.362  24.985   4.498  0.00  0.00    -0.277 OA
ATOM      2  N   GLN A   2     -33.772  27.130   5.282  0.00  0.00    -0.298 N 
ATOM      3  C   LYS A   1     -34.086  25.795   5.074  0.00  0.00    +0.202 C 
ATOM      4  H   GLN A   2     -34.424  27.696   5.758  0.00  0.00    +0.150 HD
ENDROOT
BRANCH   3   5
ATOM      5  CA  LYS A   1     -35.441  25.423   5.669  0.00  0.00    +0.013 C 
BRANCH   5   6
ATOM      6  N   LYS A   1     -36.379  26.492   5.331  0.00  0.00    +0.387 N 
ATOM      7  H1  LYS A   1     -35.977  27.079   4.600  0.00  0.00    -0.089 HD
ATOM      8  H2  LYS A   1     -36.563  27.058   6.159  0.00  0.00    -0.089 HD
ATOM      9  H3  LYS A   1     -37.253  26.085   4.997  0.00  0.00    -0.089 HD
ENDBRANCH   5   6
BRANCH   5  10
ATOM     10  CB  LYS A   1     -35.886  24.061   5.116  0.00  0.00    -0.013 C 
BRANCH  10  11
ATOM     11  CG  LYS A   1     -35.440  22.878   5.981  0.00  0.00    -0.004 C 
BRANCH  11  12
ATOM     12  CD  LYS A   1     -35.268  21.611   5.140  0.00  0.00    -0.024 C 
BRANCH  12  13
ATOM     13  CE  LYS A   1     -35.531  21.889   3.661  0.00  0.00    -0.086 C 
BRANCH  13  14
ATOM     14  NZ  LYS A   1     -36.175  20.741   3.036  0.00  0.00    +0.380 N 
ATOM     15  HZ1 LYS A   1     -35.694  19.886   3.319  0.00  0.00    -0.089 HD
ATOM     16  HZ2 LYS A   1     -36.132  20.836   2.022  0.00  0.00    -0.089 HD
ATOM     17  HZ3 LYS A   1     -37.151  20.695   3.332  0.00  0.00    -0.089 HD
ENDBRANCH  13  14
ENDBRANCH  12  13
ENDBRANCH  11  12
ENDBRANCH  10  11
ENDBRANCH   5  10
ENDBRANCH   3   5
BRANCH   2  18
ATOM     18  CA  GLN A   2     -32.536  27.734   4.838  0.00  0.00    +0.172 C 
BRANCH  18  20
ATOM     19  OXT GLN A   2     -31.503  29.803   5.539  0.00  0.00    -0.248 OA
ATOM     20  C   GLN A   2     -31.963  28.710   5.853  0.00  0.00    +0.332 C 
BRANCH  20  21
ATOM     21  O   GLN A   2     -31.958  28.261   7.131  0.00  0.00    -0.479 OA
ATOM     22  H   GLN A   2     -31.224  27.775   7.453  0.00  0.00    +0.295 HD
ENDBRANCH  20  21
ENDBRANCH  18  20
BRANCH  18  23
ATOM     23  CB  GLN A   2     -32.699  28.399   3.466  0.00  0.00    +0.041 C 
BRANCH  23  24
ATOM     24  CG  GLN A   2     -31.543  28.122   2.502  0.00  0.00    +0.087 C 
BRANCH  24  27
ATOM     25  OE1 GLN A   2     -30.365  26.026   2.593  0.00  0.00    -0.275 OA
ATOM     26  NE2 GLN A   2     -32.486  26.046   1.699  0.00  0.00    -0.329 N 
ATOM     27  CD  GLN A   2     -31.384  26.635   2.274  0.00  0.00    +0.219 C 
ATOM     28 HE21 GLN A   2     -32.485  25.080   1.510  0.00  0.00    +0.145 HD
ATOM     29 HE22 GLN A   2     -33.275  26.590   1.478  0.00  0.00    +0.145 HD
ENDBRANCH  24  27
ENDBRANCH  23  24
ENDBRANCH  18  23
ENDBRANCH   2  18
TORSDOF 13
ENDMDL
MODEL 8
REMARK VINA RESULT:      -4.7      2.642      5.364
REMARK  Name = 196305
REMARK  13 active torsions:
REMARK  status: ('A' for Active; 'I' for Inactive)
REMARK    1  A    between atoms: N_2  and  CA_18
REMARK    2  A    between atoms: C_3  and  CA_5
REMARK    3  A    between atoms: CA_5  and  N_6
REMARK    4  A    between atoms: CA_5  and  CB_10
REMARK    5  A    between atoms: CB_10  and  CG_11
REMARK    6  A    between atoms: CG_11  and  CD_12
REMARK    7  A    between atoms: CD_12  and  CE_13
REMARK    8  A    between atoms: CE_13  and  NZ_14
REMARK    9  A    between atoms: CA_18  and  C_20
REMARK   10  A    between atoms: CA_18  and  CB_23
REMARK   11  A    between atoms: C_20  and  O_21
REMARK   12  A    between atoms: CB_23  and  CG_24
REMARK   13  A    between atoms: CG_24  and  CD_27
REMARK                            x       y       z     vdW  Elec       q    Type
REMARK                         _______ _______ _______ _____ _____    ______ ____
ROOT
ATOM      1  O   LYS A   1     -36.875  24.897   2.541  0.00  0.00    -0.277 OA
ATOM      2  N   GLN A   2     -37.179  23.052   3.915  0.00  0.00    -0.298 N 
ATOM      3  C   LYS A   1     -37.606  24.053   3.054  0.00  0.00    +0.202 C 
ATOM      4  H   GLN A   2     -37.850  22.424   4.272  0.00  0.00    +0.150 HD
ENDROOT
BRANCH   3   5
ATOM      5  CA  LYS A   1     -39.107  23.981   2.788  0.00  0.00    +0.013 C 
BRANCH   5   6
ATOM      6  N   LYS A   1     -39.771  24.844   3.763  0.00  0.00    +0.387 N 
ATOM      7  H1  LYS A   1     -40.008  25.734   3.323  0.00  0.00    -0.089 HD
ATOM      8  H2  LYS A   1     -39.146  25.011   4.551  0.00  0.00    -0.089 HD
ATOM      9  H3  LYS A   1     -40.623  24.392   4.095  0.00  0.00    -0.089 HD
ENDBRANCH   5   6
BRANCH   5  10
ATOM     10  CB  LYS A   1     -39.391  24.410   1.341  0.00  0.00    -0.013 C 
BRANCH  10  11
ATOM     11  CG  LYS A   1     -40.086  25.772   1.236  0.00  0.00    -0.004 C 
BRANCH  11  12
ATOM     12  CD  LYS A   1     -39.164  26.817   0.603  0.00  0.00    -0.024 C 
BRANCH  12  13
ATOM     13  CE  LYS A   1     -38.231  26.180  -0.426  0.00  0.00    -0.086 C 
BRANCH  13  14
ATOM     14  NZ  LYS A   1     -36.841  26.477  -0.100  0.00  0.00    +0.380 N 
ATOM     15  HZ1 LYS A   1     -36.227  25.893  -0.669  0.00  0.00    -0.089 HD
ATOM     16  HZ2 LYS A   1     -36.675  26.285   0.888  0.00  0.00    -0.089 HD
ATOM     17  HZ3 LYS A   1     -36.649  27.460  -0.293  0.00  0.00    -0.089 HD
ENDBRANCH  13  14
ENDBRANCH  12  13
ENDBRANCH  11  12
ENDBRANCH  10  11
ENDBRANCH   5  10
ENDBRANCH   3   5
BRANCH   2  18
ATOM     18  CA  GLN A   2     -35.800  22.883   4.312  0.00  0.00    +0.172 C 
BRANCH  18  20
ATOM     19  OXT GLN A   2     -35.248  20.649   3.573  0.00  0.00    -0.248 OA
ATOM     20  C   GLN A   2     -35.422  21.424   4.509  0.00  0.00    +0.332 C 
BRANCH  20  21
ATOM     21  O   GLN A   2     -35.336  21.030   5.801  0.00  0.00    -0.479 OA
ATOM     22  H   GLN A   2     -34.886  20.237   6.020  0.00  0.00    +0.295 HD
ENDBRANCH  20  21
ENDBRANCH  18  20
BRANCH  18  23
ATOM     23  CB  GLN A   2     -35.473  23.709   5.563  0.00  0.00    +0.041 C 
BRANCH  23  24
ATOM     24  CG  GLN A   2     -34.398  24.777   5.336  0.00  0.00    +0.087 C 
BRANCH  24  27
ATOM     25  OE1 GLN A   2     -34.419  27.073   4.618  0.00  0.00    -0.275 OA
ATOM     26  NE2 GLN A   2     -36.349  26.193   5.515  0.00  0.00    -0.329 N 
ATOM     27  CD  GLN A   2     -35.032  26.132   5.118  0.00  0.00    +0.219 C 
ATOM     28 HE21 GLN A   2     -36.854  27.032   5.414  0.00  0.00    +0.145 HD
ATOM     29 HE22 GLN A   2     -36.784  25.399   5.897  0.00  0.00    +0.145 HD
ENDBRANCH  24  27
ENDBRANCH  23  24
ENDBRANCH  18  23
ENDBRANCH   2  18
TORSDOF 13
ENDMDL
MODEL 9
REMARK VINA RESULT:      -4.7      2.425      4.054
REMARK  Name = 196305
REMARK  13 active torsions:
REMARK  status: ('A' for Active; 'I' for Inactive)
REMARK    1  A    between atoms: N_2  and  CA_18
REMARK    2  A    between atoms: C_3  and  CA_5
REMARK    3  A    between atoms: CA_5  and  N_6
REMARK    4  A    between atoms: CA_5  and  CB_10
REMARK    5  A    between atoms: CB_10  and  CG_11
REMARK    6  A    between atoms: CG_11  and  CD_12
REMARK    7  A    between atoms: CD_12  and  CE_13
REMARK    8  A    between atoms: CE_13  and  NZ_14
REMARK    9  A    between atoms: CA_18  and  C_20
REMARK   10  A    between atoms: CA_18  and  CB_23
REMARK   11  A    between atoms: C_20  and  O_21
REMARK   12  A    between atoms: CB_23  and  CG_24
REMARK   13  A    between atoms: CG_24  and  CD_27
REMARK                            x       y       z     vdW  Elec       q    Type
REMARK                         _______ _______ _______ _____ _____    ______ ____
ROOT
ATOM      1  O   LYS A   1     -36.676  25.982   1.543  0.00  0.00    -0.277 OA
ATOM      2  N   GLN A   2     -38.099  25.664   3.349  0.00  0.00    -0.298 N 
ATOM      3  C   LYS A   1     -36.875  25.937   2.755  0.00  0.00    +0.202 C 
ATOM      4  H   GLN A   2     -38.150  25.653   4.333  0.00  0.00    +0.150 HD
ENDROOT
BRANCH   3   5
ATOM      5  CA  LYS A   1     -35.783  26.205   3.787  0.00  0.00    +0.013 C 
BRANCH   5   6
ATOM      6  N   LYS A   1     -35.526  27.644   3.795  0.00  0.00    +0.387 N 
ATOM      7  H1  LYS A   1     -35.513  27.982   4.758  0.00  0.00    -0.089 HD
ATOM      8  H2  LYS A   1     -36.261  28.124   3.277  0.00  0.00    -0.089 HD
ATOM      9  H3  LYS A   1     -34.624  27.831   3.358  0.00  0.00    -0.089 HD
ENDBRANCH   5   6
BRANCH   5  10
ATOM     10  CB  LYS A   1     -36.240  25.688   5.160  0.00  0.00    -0.013 C 
BRANCH  10  11
ATOM     11  CG  LYS A   1     -35.304  24.630   5.753  0.00  0.00    -0.004 C 
BRANCH  11  12
ATOM     12  CD  LYS A   1     -34.834  23.642   4.682  0.00  0.00    -0.024 C 
BRANCH  12  13
ATOM     13  CE  LYS A   1     -35.569  22.308   4.802  0.00  0.00    -0.086 C 
BRANCH  13  14
ATOM     14  NZ  LYS A   1     -35.979  22.077   6.181  0.00  0.00    +0.380 N 
ATOM     15  HZ1 LYS A   1     -35.355  22.583   6.810  0.00  0.00    -0.089 HD
ATOM     16  HZ2 LYS A   1     -35.933  21.079   6.387  0.00  0.00    -0.089 HD
ATOM     17  HZ3 LYS A   1     -36.935  22.408   6.313  0.00  0.00    -0.089 HD
ENDBRANCH  13  14
ENDBRANCH  12  13
ENDBRANCH  11  12
ENDBRANCH  10  11
ENDBRANCH   5  10
ENDBRANCH   3   5
BRANCH   2  18
ATOM     18  CA  GLN A   2     -39.303  25.397   2.596  0.00  0.00    +0.172 C 
BRANCH  18  20
ATOM     19  OXT GLN A   2     -40.866  27.217   2.302  0.00  0.00    -0.248 OA
ATOM     20  C   GLN A   2     -40.460  26.295   3.003  0.00  0.00    +0.332 C 
BRANCH  20  21
ATOM     21  O   GLN A   2     -40.981  26.030   4.225  0.00  0.00    -0.479 OA
ATOM     22  H   GLN A   2     -41.559  25.301   4.339  0.00  0.00    +0.295 HD
ENDBRANCH  20  21
ENDBRANCH  18  20
BRANCH  18  23
ATOM     23  CB  GLN A   2     -39.700  23.918   2.681  0.00  0.00    +0.041 C 
BRANCH  23  24
ATOM     24  CG  GLN A   2     -39.071  23.044   1.592  0.00  0.00    +0.087 C 
BRANCH  24  27
ATOM     25  OE1 GLN A   2     -40.443  21.078   1.791  0.00  0.00    -0.275 OA
ATOM     26  NE2 GLN A   2     -38.187  20.879   2.203  0.00  0.00    -0.329 N 
ATOM     27  CD  GLN A   2     -39.324  21.579   1.872  0.00  0.00    +0.219 C 
ATOM     28 HE21 GLN A   2     -38.243  19.916   2.404  0.00  0.00    +0.145 HD
ATOM     29 HE22 GLN A   2     -37.318  21.339   2.239  0.00  0.00    +0.145 HD
ENDBRANCH  24  27
ENDBRANCH  23  24
ENDBRANCH  18  23
ENDBRANCH   2  18
TORSDOF 13
ENDMDL
