MODEL 1
REMARK VINA RESULT:      -6.5      0.000      0.000
REMARK  Name = 56842878
REMARK  6 active torsions:
REMARK  status: ('A' for Active; 'I' for Inactive)
REMARK    1  A    between atoms: C_1  and  C_8
REMARK    2  A    between atoms: C_1  and  N_15
REMARK    3  A    between atoms: C_1  and  C_25
REMARK    4  A    between atoms: C_4  and  C_11
REMARK    5  A    between atoms: C_16  and  C_20
REMARK    6  A    between atoms: C_25  and  C_29
REMARK                            x       y       z     vdW  Elec       q    Type
REMARK                         _______ _______ _______ _____ _____    ______ ____
ROOT
ATOM      1  C   UNL     1     -34.545  25.635   3.868  0.00  0.00    +0.155 C 
ENDROOT
BRANCH   1   8
ATOM      2  O   UNL     1     -36.525  26.263   5.032  0.00  0.00    -0.273 OA
ATOM      3  N   UNL     1     -36.728  25.807   2.773  0.00  0.00    -0.272 N 
ATOM      4  C   UNL     1     -38.122  26.213   2.645  0.00  0.00    +0.152 C 
ATOM      5  C   UNL     1     -38.352  26.341   1.145  0.00  0.00    +0.031 C 
ATOM      6  C   UNL     1     -36.172  25.423   1.478  0.00  0.00    +0.094 C 
ATOM      7  C   UNL     1     -37.371  25.334   0.547  0.00  0.00    +0.024 C 
ATOM      8  C   UNL     1     -36.020  25.937   3.957  0.00  0.00    +0.244 C 
BRANCH   4  11
ATOM      9  O   UNL     1     -38.535  23.976   3.379  0.00  0.00    -0.274 OA
ATOM     10  N   UNL     1     -40.220  25.526   3.608  0.00  0.00    -0.327 N 
ATOM     11  C   UNL     1     -38.956  25.123   3.247  0.00  0.00    +0.237 C 
ATOM     12  H   UNL     1     -40.846  24.883   4.011  0.00  0.00    +0.145 HD
ATOM     13  H   UNL     1     -40.499  26.459   3.462  0.00  0.00    +0.145 HD
ENDBRANCH   4  11
ENDBRANCH   1   8
BRANCH   1  15
ATOM     14  O   UNL     1     -31.917  26.435   2.926  0.00  0.00    -0.273 OA
ATOM     15  N   UNL     1     -33.931  26.926   3.990  0.00  0.00    -0.297 N 
ATOM     16  C   UNL     1     -32.661  27.222   3.506  0.00  0.00    +0.241 C 
ATOM     17  H   UNL     1     -34.436  27.641   4.439  0.00  0.00    +0.150 HD
BRANCH  16  20
ATOM     18  O   UNL     1     -31.862  29.191   7.212  0.00  0.00    -0.275 OA
ATOM     19  N   UNL     1     -32.748  28.989   5.054  0.00  0.00    -0.298 N 
ATOM     20  C   UNL     1     -32.274  28.645   3.743  0.00  0.00    +0.149 C 
ATOM     21  C   UNL     1     -30.772  28.838   3.840  0.00  0.00    +0.039 C 
ATOM     22  C   UNL     1     -30.457  28.608   5.318  0.00  0.00    +0.087 C 
ATOM     23  C   UNL     1     -31.743  28.980   6.016  0.00  0.00    +0.223 C 
ATOM     24  H   UNL     1     -33.687  29.210   5.252  0.00  0.00    +0.150 HD
ENDBRANCH  16  20
ENDBRANCH   1  15
BRANCH   1  25
ATOM     25  C   UNL     1     -34.139  24.668   4.971  0.00  0.00    +0.073 C 
BRANCH  25  29
ATOM     26  F   UNL     1     -35.054  22.433   7.002  0.00  0.00    -0.187 F 
ATOM     27  N   UNL     1     -35.039  22.784   3.553  0.00  0.00    -0.317 N 
ATOM     28  N   UNL     1     -35.668  21.241   5.022  0.00  0.00    -0.293 N 
ATOM     29  C   UNL     1     -34.757  23.303   4.786  0.00  0.00    +0.067 C 
ATOM     30  C   UNL     1     -35.153  22.333   5.676  0.00  0.00    +0.199 C 
ATOM     31  C   UNL     1     -35.584  21.545   3.747  0.00  0.00    +0.183 C 
ATOM     32  H   UNL     1     -34.878  23.221   2.686  0.00  0.00    +0.148 HD
ATOM     33  H   UNL     1     -36.022  20.414   5.422  0.00  0.00    +0.150 HD
ENDBRANCH  25  29
ENDBRANCH   1  25
TORSDOF 6
ENDMDL
MODEL 2
REMARK VINA RESULT:      -6.4      3.402      6.646
REMARK  Name = 56842878
REMARK  6 active torsions:
REMARK  status: ('A' for Active; 'I' for Inactive)
REMARK    1  A    between atoms: C_1  and  C_8
REMARK    2  A    between atoms: C_1  and  N_15
REMARK    3  A    between atoms: C_1  and  C_25
REMARK    4  A    between atoms: C_4  and  C_11
REMARK    5  A    between atoms: C_16  and  C_20
REMARK    6  A    between atoms: C_25  and  C_29
REMARK                            x       y       z     vdW  Elec       q    Type
REMARK                         _______ _______ _______ _____ _____    ______ ____
ROOT
ATOM      1  C   UNL     1     -37.864  24.866   3.106  0.00  0.00    +0.155 C 
ENDROOT
BRANCH   1   8
ATOM      2  O   UNL     1     -38.577  22.595   3.038  0.00  0.00    -0.273 OA
ATOM      3  N   UNL     1     -36.848  23.201   1.624  0.00  0.00    -0.272 N 
ATOM      4  C   UNL     1     -36.765  21.934   0.910  0.00  0.00    +0.152 C 
ATOM      5  C   UNL     1     -35.929  22.241  -0.326  0.00  0.00    +0.031 C 
ATOM      6  C   UNL     1     -35.918  24.181   1.068  0.00  0.00    +0.094 C 
ATOM      7  C   UNL     1     -35.024  23.384   0.131  0.00  0.00    +0.024 C 
ATOM      8  C   UNL     1     -37.809  23.449   2.593  0.00  0.00    +0.244 C 
BRANCH   4  11
ATOM      9  O   UNL     1     -34.885  21.047   2.090  0.00  0.00    -0.274 OA
ATOM     10  N   UNL     1     -36.906  19.965   2.289  0.00  0.00    -0.327 N 
ATOM     11  C   UNL     1     -36.080  20.959   1.818  0.00  0.00    +0.237 C 
ATOM     12  H   UNL     1     -36.550  19.274   2.893  0.00  0.00    +0.145 HD
ATOM     13  H   UNL     1     -37.852  19.944   2.021  0.00  0.00    +0.145 HD
ENDBRANCH   4  11
ENDBRANCH   1   8
BRANCH   1  15
ATOM     14  O   UNL     1     -39.650  26.680   1.708  0.00  0.00    -0.273 OA
ATOM     15  N   UNL     1     -39.261  25.078   3.354  0.00  0.00    -0.297 N 
ATOM     16  C   UNL     1     -40.043  25.972   2.631  0.00  0.00    +0.241 C 
ATOM     17  H   UNL     1     -39.689  24.562   4.075  0.00  0.00    +0.150 HD
BRANCH  16  20
ATOM     18  O   UNL     1     -42.156  29.011   4.765  0.00  0.00    -0.275 OA
ATOM     19  N   UNL     1     -41.531  26.815   4.246  0.00  0.00    -0.298 N 
ATOM     20  C   UNL     1     -41.469  25.980   3.079  0.00  0.00    +0.149 C 
ATOM     21  C   UNL     1     -42.392  26.669   2.092  0.00  0.00    +0.039 C 
ATOM     22  C   UNL     1     -42.356  28.140   2.506  0.00  0.00    +0.087 C 
ATOM     23  C   UNL     1     -42.031  28.085   3.979  0.00  0.00    +0.223 C 
ATOM     24  H   UNL     1     -41.249  26.519   5.141  0.00  0.00    +0.150 HD
ENDBRANCH  16  20
ENDBRANCH   1  15
BRANCH   1  25
ATOM     25  C   UNL     1     -37.001  25.008   4.351  0.00  0.00    +0.073 C 
BRANCH  25  29
ATOM     26  F   UNL     1     -34.341  25.621   5.934  0.00  0.00    -0.187 F 
ATOM     27  N   UNL     1     -35.950  26.982   3.181  0.00  0.00    -0.317 N 
ATOM     28  N   UNL     1     -34.087  27.373   4.327  0.00  0.00    -0.293 N 
ATOM     29  C   UNL     1     -35.919  26.046   4.177  0.00  0.00    +0.067 C 
ATOM     30  C   UNL     1     -34.762  26.308   4.871  0.00  0.00    +0.199 C 
ATOM     31  C   UNL     1     -34.829  27.755   3.313  0.00  0.00    +0.183 C 
ATOM     32  H   UNL     1     -36.650  27.081   2.496  0.00  0.00    +0.148 HD
ATOM     33  H   UNL     1     -33.236  27.764   4.631  0.00  0.00    +0.150 HD
ENDBRANCH  25  29
ENDBRANCH   1  25
TORSDOF 6
ENDMDL
MODEL 3
REMARK VINA RESULT:      -6.4      3.039      6.717
REMARK  Name = 56842878
REMARK  6 active torsions:
REMARK  status: ('A' for Active; 'I' for Inactive)
REMARK    1  A    between atoms: C_1  and  C_8
REMARK    2  A    between atoms: C_1  and  N_15
REMARK    3  A    between atoms: C_1  and  C_25
REMARK    4  A    between atoms: C_4  and  C_11
REMARK    5  A    between atoms: C_16  and  C_20
REMARK    6  A    between atoms: C_25  and  C_29
REMARK                            x       y       z     vdW  Elec       q    Type
REMARK                         _______ _______ _______ _____ _____    ______ ____
ROOT
ATOM      1  C   UNL     1     -35.873  22.925   3.173  0.00  0.00    +0.155 C 
ENDROOT
BRANCH   1   8
ATOM      2  O   UNL     1     -35.353  20.666   3.715  0.00  0.00    -0.273 OA
ATOM      3  N   UNL     1     -35.714  21.160   1.483  0.00  0.00    -0.272 N 
ATOM      4  C   UNL     1     -35.662  19.787   0.998  0.00  0.00    +0.152 C 
ATOM      5  C   UNL     1     -36.247  19.851  -0.408  0.00  0.00    +0.031 C 
ATOM      6  C   UNL     1     -36.033  22.089   0.401  0.00  0.00    +0.094 C 
ATOM      7  C   UNL     1     -35.906  21.266  -0.871  0.00  0.00    +0.024 C 
ATOM      8  C   UNL     1     -35.625  21.478   2.829  0.00  0.00    +0.244 C 
BRANCH   4  11
ATOM      9  O   UNL     1     -33.307  20.200   1.035  0.00  0.00    -0.274 OA
ATOM     10  N   UNL     1     -34.029  18.020   0.888  0.00  0.00    -0.327 N 
ATOM     11  C   UNL     1     -34.220  19.378   0.983  0.00  0.00    +0.237 C 
ATOM     12  H   UNL     1     -33.117  17.651   0.870  0.00  0.00    +0.145 HD
ATOM     13  H   UNL     1     -34.805  17.417   0.836  0.00  0.00    +0.145 HD
ENDBRANCH   4  11
ENDBRANCH   1   8
BRANCH   1  15
ATOM     14  O   UNL     1     -37.566  25.118   2.304  0.00  0.00    -0.273 OA
ATOM     15  N   UNL     1     -37.303  23.009   3.257  0.00  0.00    -0.297 N 
ATOM     16  C   UNL     1     -38.036  24.104   2.813  0.00  0.00    +0.241 C 
ATOM     17  H   UNL     1     -37.791  22.250   3.649  0.00  0.00    +0.150 HD
BRANCH  16  20
ATOM     18  O   UNL     1     -41.022  27.068   3.554  0.00  0.00    -0.275 OA
ATOM     19  N   UNL     1     -39.957  25.001   3.830  0.00  0.00    -0.298 N 
ATOM     20  C   UNL     1     -39.508  23.922   2.996  0.00  0.00    +0.149 C 
ATOM     21  C   UNL     1     -40.289  24.112   1.709  0.00  0.00    +0.039 C 
ATOM     22  C   UNL     1     -40.578  25.611   1.661  0.00  0.00    +0.087 C 
ATOM     23  C   UNL     1     -40.581  26.018   3.115  0.00  0.00    +0.223 C 
ATOM     24  H   UNL     1     -39.835  25.019   4.807  0.00  0.00    +0.150 HD
ENDBRANCH  16  20
ENDBRANCH   1  15
BRANCH   1  25
ATOM     25  C   UNL     1     -35.170  23.284   4.475  0.00  0.00    +0.073 C 
BRANCH  25  29
ATOM     26  F   UNL     1     -36.262  25.805   6.028  0.00  0.00    -0.187 F 
ATOM     27  N   UNL     1     -33.693  25.208   3.779  0.00  0.00    -0.317 N 
ATOM     28  N   UNL     1     -34.497  26.952   4.894  0.00  0.00    -0.293 N 
ATOM     29  C   UNL     1     -34.744  24.732   4.510  0.00  0.00    +0.067 C 
ATOM     30  C   UNL     1     -35.225  25.826   5.189  0.00  0.00    +0.199 C 
ATOM     31  C   UNL     1     -33.583  26.545   4.042  0.00  0.00    +0.183 C 
ATOM     32  H   UNL     1     -33.120  24.684   3.173  0.00  0.00    +0.148 HD
ATOM     33  H   UNL     1     -34.631  27.863   5.243  0.00  0.00    +0.150 HD
ENDBRANCH  25  29
ENDBRANCH   1  25
TORSDOF 6
ENDMDL
MODEL 4
REMARK VINA RESULT:      -6.3      4.673      7.664
REMARK  Name = 56842878
REMARK  6 active torsions:
REMARK  status: ('A' for Active; 'I' for Inactive)
REMARK    1  A    between atoms: C_1  and  C_8
REMARK    2  A    between atoms: C_1  and  N_15
REMARK    3  A    between atoms: C_1  and  C_25
REMARK    4  A    between atoms: C_4  and  C_11
REMARK    5  A    between atoms: C_16  and  C_20
REMARK    6  A    between atoms: C_25  and  C_29
REMARK                            x       y       z     vdW  Elec       q    Type
REMARK                         _______ _______ _______ _____ _____    ______ ____
ROOT
ATOM      1  C   UNL     1     -35.232  20.549   1.454  0.00  0.00    +0.155 C 
ENDROOT
BRANCH   1   8
ATOM      2  O   UNL     1     -35.101  20.517   3.830  0.00  0.00    -0.273 OA
ATOM      3  N   UNL     1     -35.083  22.589   2.800  0.00  0.00    -0.272 N 
ATOM      4  C   UNL     1     -34.823  23.370   4.002  0.00  0.00    +0.152 C 
ATOM      5  C   UNL     1     -34.404  24.742   3.488  0.00  0.00    +0.031 C 
ATOM      6  C   UNL     1     -35.114  23.441   1.615  0.00  0.00    +0.094 C 
ATOM      7  C   UNL     1     -35.139  24.863   2.155  0.00  0.00    +0.024 C 
ATOM      8  C   UNL     1     -35.130  21.203   2.808  0.00  0.00    +0.244 C 
BRANCH   4  11
ATOM      9  O   UNL     1     -37.014  24.203   4.473  0.00  0.00    -0.274 OA
ATOM     10  N   UNL     1     -36.151  22.570   5.845  0.00  0.00    -0.327 N 
ATOM     11  C   UNL     1     -36.106  23.432   4.775  0.00  0.00    +0.237 C 
ATOM     12  H   UNL     1     -36.952  22.536   6.416  0.00  0.00    +0.145 HD
ATOM     13  H   UNL     1     -35.382  21.988   6.041  0.00  0.00    +0.145 HD
ENDBRANCH   4  11
ENDBRANCH   1   8
BRANCH   1  15
ATOM     14  O   UNL     1     -32.707  20.875   0.059  0.00  0.00    -0.273 OA
ATOM     15  N   UNL     1     -34.123  19.640   1.435  0.00  0.00    -0.297 N 
ATOM     16  C   UNL     1     -32.945  19.878   0.736  0.00  0.00    +0.241 C 
ATOM     17  H   UNL     1     -34.200  18.801   1.946  0.00  0.00    +0.150 HD
BRANCH  16  20
ATOM     18  O   UNL     1     -33.381  15.711  -0.100  0.00  0.00    -0.275 OA
ATOM     19  N   UNL     1     -32.689  17.576   1.137  0.00  0.00    -0.298 N 
ATOM     20  C   UNL     1     -31.944  18.782   0.906  0.00  0.00    +0.149 C 
ATOM     21  C   UNL     1     -31.169  18.490  -0.365  0.00  0.00    +0.039 C 
ATOM     22  C   UNL     1     -32.026  17.462  -1.102  0.00  0.00    +0.087 C 
ATOM     23  C   UNL     1     -32.779  16.768   0.008  0.00  0.00    +0.223 C 
ATOM     24  H   UNL     1     -33.093  17.344   2.004  0.00  0.00    +0.150 HD
ENDBRANCH  16  20
ENDBRANCH   1  15
BRANCH   1  25
ATOM     25  C   UNL     1     -36.581  19.858   1.305  0.00  0.00    +0.073 C 
BRANCH  25  29
ATOM     26  F   UNL     1     -37.467  21.967  -0.869  0.00  0.00    -0.187 F 
ATOM     27  N   UNL     1     -38.642  20.977   2.238  0.00  0.00    -0.317 N 
ATOM     28  N   UNL     1     -39.225  22.447   0.678  0.00  0.00    -0.293 N 
ATOM     29  C   UNL     1     -37.721  20.846   1.237  0.00  0.00    +0.067 C 
ATOM     30  C   UNL     1     -38.101  21.763   0.286  0.00  0.00    +0.199 C 
ATOM     31  C   UNL     1     -39.524  21.950   1.857  0.00  0.00    +0.183 C 
ATOM     32  H   UNL     1     -38.665  20.466   3.079  0.00  0.00    +0.148 HD
ATOM     33  H   UNL     1     -39.701  23.153   0.185  0.00  0.00    +0.150 HD
ENDBRANCH  25  29
ENDBRANCH   1  25
TORSDOF 6
ENDMDL
MODEL 5
REMARK VINA RESULT:      -6.2      2.239      3.070
REMARK  Name = 56842878
REMARK  6 active torsions:
REMARK  status: ('A' for Active; 'I' for Inactive)
REMARK    1  A    between atoms: C_1  and  C_8
REMARK    2  A    between atoms: C_1  and  N_15
REMARK    3  A    between atoms: C_1  and  C_25
REMARK    4  A    between atoms: C_4  and  C_11
REMARK    5  A    between atoms: C_16  and  C_20
REMARK    6  A    between atoms: C_25  and  C_29
REMARK                            x       y       z     vdW  Elec       q    Type
REMARK                         _______ _______ _______ _____ _____    ______ ____
ROOT
ATOM      1  C   UNL     1     -34.113  26.353   4.984  0.00  0.00    +0.155 C 
ENDROOT
BRANCH   1   8
ATOM      2  O   UNL     1     -35.040  28.185   3.780  0.00  0.00    -0.273 OA
ATOM      3  N   UNL     1     -33.966  26.548   2.547  0.00  0.00    -0.272 N 
ATOM      4  C   UNL     1     -34.035  27.234   1.263  0.00  0.00    +0.152 C 
ATOM      5  C   UNL     1     -33.050  26.487   0.372  0.00  0.00    +0.031 C 
ATOM      6  C   UNL     1     -33.227  25.294   2.434  0.00  0.00    +0.094 C 
ATOM      7  C   UNL     1     -33.062  25.069   0.939  0.00  0.00    +0.024 C 
ATOM      8  C   UNL     1     -34.419  27.124   3.724  0.00  0.00    +0.244 C 
BRANCH   4  11
ATOM      9  O   UNL     1     -36.217  26.259   1.211  0.00  0.00    -0.274 OA
ATOM     10  N   UNL     1     -35.766  27.999  -0.225  0.00  0.00    -0.327 N 
ATOM     11  C   UNL     1     -35.444  27.105   0.768  0.00  0.00    +0.237 C 
ATOM     12  H   UNL     1     -36.669  27.994  -0.618  0.00  0.00    +0.145 HD
ATOM     13  H   UNL     1     -35.095  28.644  -0.545  0.00  0.00    +0.145 HD
ENDBRANCH   4  11
ENDBRANCH   1   8
BRANCH   1  15
ATOM     14  O   UNL     1     -31.461  27.482   4.631  0.00  0.00    -0.273 OA
ATOM     15  N   UNL     1     -33.459  27.319   5.818  0.00  0.00    -0.297 N 
ATOM     16  C   UNL     1     -32.180  27.807   5.572  0.00  0.00    +0.241 C 
ATOM     17  H   UNL     1     -33.942  27.655   6.607  0.00  0.00    +0.150 HD
BRANCH  16  20
ATOM     18  O   UNL     1     -28.355  29.652   6.038  0.00  0.00    -0.275 OA
ATOM     19  N   UNL     1     -30.336  28.641   6.769  0.00  0.00    -0.298 N 
ATOM     20  C   UNL     1     -31.748  28.821   6.582  0.00  0.00    +0.149 C 
ATOM     21  C   UNL     1     -31.866  30.245   6.073  0.00  0.00    +0.039 C 
ATOM     22  C   UNL     1     -30.530  30.510   5.379  0.00  0.00    +0.087 C 
ATOM     23  C   UNL     1     -29.573  29.586   6.092  0.00  0.00    +0.223 C 
ATOM     24  H   UNL     1     -29.949  27.924   7.321  0.00  0.00    +0.150 HD
ENDBRANCH  16  20
ENDBRANCH   1  15
BRANCH   1  25
ATOM     25  C   UNL     1     -35.397  25.803   5.589  0.00  0.00    +0.073 C 
BRANCH  25  29
ATOM     26  F   UNL     1     -34.981  22.816   6.516  0.00  0.00    -0.187 F 
ATOM     27  N   UNL     1     -36.463  24.379   3.799  0.00  0.00    -0.317 N 
ATOM     28  N   UNL     1     -36.146  22.293   4.495  0.00  0.00    -0.293 N 
ATOM     29  C   UNL     1     -35.788  24.477   4.984  0.00  0.00    +0.067 C 
ATOM     30  C   UNL     1     -35.604  23.178   5.393  0.00  0.00    +0.199 C 
ATOM     31  C   UNL     1     -36.654  23.048   3.547  0.00  0.00    +0.183 C 
ATOM     32  H   UNL     1     -36.756  25.128   3.232  0.00  0.00    +0.148 HD
ATOM     33  H   UNL     1     -36.152  21.310   4.549  0.00  0.00    +0.150 HD
ENDBRANCH  25  29
ENDBRANCH   1  25
TORSDOF 6
ENDMDL
MODEL 6
REMARK VINA RESULT:      -6.2      5.348      8.225
REMARK  Name = 56842878
REMARK  6 active torsions:
REMARK  status: ('A' for Active; 'I' for Inactive)
REMARK    1  A    between atoms: C_1  and  C_8
REMARK    2  A    between atoms: C_1  and  N_15
REMARK    3  A    between atoms: C_1  and  C_25
REMARK    4  A    between atoms: C_4  and  C_11
REMARK    5  A    between atoms: C_16  and  C_20
REMARK    6  A    between atoms: C_25  and  C_29
REMARK                            x       y       z     vdW  Elec       q    Type
REMARK                         _______ _______ _______ _____ _____    ______ ____
ROOT
ATOM      1  C   UNL     1     -35.205  20.369   1.168  0.00  0.00    +0.155 C 
ENDROOT
BRANCH   1   8
ATOM      2  O   UNL     1     -35.100  20.410   3.546  0.00  0.00    -0.273 OA
ATOM      3  N   UNL     1     -35.178  22.450   2.457  0.00  0.00    -0.272 N 
ATOM      4  C   UNL     1     -34.973  23.278   3.639  0.00  0.00    +0.152 C 
ATOM      5  C   UNL     1     -34.620  24.655   3.091  0.00  0.00    +0.031 C 
ATOM      6  C   UNL     1     -35.239  23.267   1.247  0.00  0.00    +0.094 C 
ATOM      7  C   UNL     1     -35.344  24.700   1.747  0.00  0.00    +0.024 C 
ATOM      8  C   UNL     1     -35.152  21.065   2.504  0.00  0.00    +0.244 C 
BRANCH   4  11
ATOM      9  O   UNL     1     -37.249  23.916   3.999  0.00  0.00    -0.274 OA
ATOM     10  N   UNL     1     -36.233  22.573   5.567  0.00  0.00    -0.327 N 
ATOM     11  C   UNL     1     -36.267  23.294   4.396  0.00  0.00    +0.237 C 
ATOM     12  H   UNL     1     -37.034  22.522   6.137  0.00  0.00    +0.145 HD
ATOM     13  H   UNL     1     -35.408  22.108   5.835  0.00  0.00    +0.145 HD
ENDBRANCH   4  11
ENDBRANCH   1   8
BRANCH   1  15
ATOM     14  O   UNL     1     -32.399  20.290   0.426  0.00  0.00    -0.273 OA
ATOM     15  N   UNL     1     -34.292  19.273   1.324  0.00  0.00    -0.297 N 
ATOM     16  C   UNL     1     -32.957  19.324   0.938  0.00  0.00    +0.241 C 
ATOM     17  H   UNL     1     -34.630  18.440   1.726  0.00  0.00    +0.150 HD
BRANCH  16  20
ATOM     18  O   UNL     1     -33.657  15.408  -0.620  0.00  0.00    -0.275 OA
ATOM     19  N   UNL     1     -33.161  16.984   1.040  0.00  0.00    -0.298 N 
ATOM     20  C   UNL     1     -32.225  18.055   1.236  0.00  0.00    +0.149 C 
ATOM     21  C   UNL     1     -31.125  17.762   0.234  0.00  0.00    +0.039 C 
ATOM     22  C   UNL     1     -31.825  16.983  -0.879  0.00  0.00    +0.087 C 
ATOM     23  C   UNL     1     -32.986  16.324  -0.173  0.00  0.00    +0.223 C 
ATOM     24  H   UNL     1     -33.853  16.740   1.695  0.00  0.00    +0.150 HD
ENDBRANCH  16  20
ENDBRANCH   1  15
BRANCH   1  25
ATOM     25  C   UNL     1     -36.630  19.929   0.860  0.00  0.00    +0.073 C 
BRANCH  25  29
ATOM     26  F   UNL     1     -35.390  19.026  -1.898  0.00  0.00    -0.187 F 
ATOM     27  N   UNL     1     -37.336  17.526   0.548  0.00  0.00    -0.317 N 
ATOM     28  N   UNL     1     -36.442  16.938  -1.399  0.00  0.00    -0.293 N 
ATOM     29  C   UNL     1     -36.670  18.629   0.092  0.00  0.00    +0.067 C 
ATOM     30  C   UNL     1     -36.128  18.243  -1.110  0.00  0.00    +0.199 C 
ATOM     31  C   UNL     1     -37.170  16.537  -0.382  0.00  0.00    +0.183 C 
ATOM     32  H   UNL     1     -37.842  17.457   1.389  0.00  0.00    +0.148 HD
ATOM     33  H   UNL     1     -36.180  16.419  -2.193  0.00  0.00    +0.150 HD
ENDBRANCH  25  29
ENDBRANCH   1  25
TORSDOF 6
ENDMDL
MODEL 7
REMARK VINA RESULT:      -6.2      2.402      6.018
REMARK  Name = 56842878
REMARK  6 active torsions:
REMARK  status: ('A' for Active; 'I' for Inactive)
REMARK    1  A    between atoms: C_1  and  C_8
REMARK    2  A    between atoms: C_1  and  N_15
REMARK    3  A    between atoms: C_1  and  C_25
REMARK    4  A    between atoms: C_4  and  C_11
REMARK    5  A    between atoms: C_16  and  C_20
REMARK    6  A    between atoms: C_25  and  C_29
REMARK                            x       y       z     vdW  Elec       q    Type
REMARK                         _______ _______ _______ _____ _____    ______ ____
ROOT
ATOM      1  C   UNL     1     -34.944  26.529   3.960  0.00  0.00    +0.155 C 
ENDROOT
BRANCH   1   8
ATOM      2  O   UNL     1     -33.139  26.234   5.484  0.00  0.00    -0.273 OA
ATOM      3  N   UNL     1     -33.067  28.095   4.111  0.00  0.00    -0.272 N 
ATOM      4  C   UNL     1     -31.733  28.536   4.496  0.00  0.00    +0.152 C 
ATOM      5  C   UNL     1     -31.337  29.549   3.430  0.00  0.00    +0.031 C 
ATOM      6  C   UNL     1     -33.619  28.945   3.058  0.00  0.00    +0.094 C 
ATOM      7  C   UNL     1     -32.675  30.135   2.982  0.00  0.00    +0.024 C 
ATOM      8  C   UNL     1     -33.634  26.925   4.593  0.00  0.00    +0.244 C 
BRANCH   4  11
ATOM      9  O   UNL     1     -32.323  30.290   6.008  0.00  0.00    -0.274 OA
ATOM     10  N   UNL     1     -31.365  28.385   6.871  0.00  0.00    -0.327 N 
ATOM     11  C   UNL     1     -31.850  29.168   5.850  0.00  0.00    +0.237 C 
ATOM     12  H   UNL     1     -31.395  28.712   7.799  0.00  0.00    +0.145 HD
ATOM     13  H   UNL     1     -30.985  27.498   6.674  0.00  0.00    +0.145 HD
ENDBRANCH   4  11
ENDBRANCH   1   8
BRANCH   1  15
ATOM     14  O   UNL     1     -35.751  26.509   1.171  0.00  0.00    -0.273 OA
ATOM     15  N   UNL     1     -34.556  25.591   2.947  0.00  0.00    -0.297 N 
ATOM     16  C   UNL     1     -34.993  25.658   1.628  0.00  0.00    +0.241 C 
ATOM     17  H   UNL     1     -33.946  24.859   3.198  0.00  0.00    +0.150 HD
BRANCH  16  20
ATOM     18  O   UNL     1     -36.043  21.518   1.507  0.00  0.00    -0.275 OA
ATOM     19  N   UNL     1     -34.580  23.347   1.506  0.00  0.00    -0.298 N 
ATOM     20  C   UNL     1     -34.419  24.573   0.776  0.00  0.00    +0.149 C 
ATOM     21  C   UNL     1     -35.211  24.342  -0.496  0.00  0.00    +0.039 C 
ATOM     22  C   UNL     1     -36.282  23.328  -0.096  0.00  0.00    +0.087 C 
ATOM     23  C   UNL     1     -35.648  22.580   1.053  0.00  0.00    +0.223 C 
ATOM     24  H   UNL     1     -33.994  23.076   2.249  0.00  0.00    +0.150 HD
ENDBRANCH  16  20
ENDBRANCH   1  15
BRANCH   1  25
ATOM     25  C   UNL     1     -35.875  25.935   5.007  0.00  0.00    +0.073 C 
BRANCH  25  29
ATOM     26  F   UNL     1     -37.644  23.839   3.445  0.00  0.00    -0.187 F 
ATOM     27  N   UNL     1     -35.017  23.665   5.701  0.00  0.00    -0.317 N 
ATOM     28  N   UNL     1     -36.288  22.229   4.580  0.00  0.00    -0.293 N 
ATOM     29  C   UNL     1     -35.885  24.425   4.969  0.00  0.00    +0.067 C 
ATOM     30  C   UNL     1     -36.659  23.518   4.286  0.00  0.00    +0.199 C 
ATOM     31  C   UNL     1     -35.298  22.354   5.435  0.00  0.00    +0.183 C 
ATOM     32  H   UNL     1     -34.319  24.000   6.309  0.00  0.00    +0.148 HD
ATOM     33  H   UNL     1     -36.678  21.397   4.228  0.00  0.00    +0.150 HD
ENDBRANCH  25  29
ENDBRANCH   1  25
TORSDOF 6
ENDMDL
MODEL 8
REMARK VINA RESULT:      -6.2      2.819      4.255
REMARK  Name = 56842878
REMARK  6 active torsions:
REMARK  status: ('A' for Active; 'I' for Inactive)
REMARK    1  A    between atoms: C_1  and  C_8
REMARK    2  A    between atoms: C_1  and  N_15
REMARK    3  A    between atoms: C_1  and  C_25
REMARK    4  A    between atoms: C_4  and  C_11
REMARK    5  A    between atoms: C_16  and  C_20
REMARK    6  A    between atoms: C_25  and  C_29
REMARK                            x       y       z     vdW  Elec       q    Type
REMARK                         _______ _______ _______ _____ _____    ______ ____
ROOT
ATOM      1  C   UNL     1     -37.646  23.062   2.238  0.00  0.00    +0.155 C 
ENDROOT
BRANCH   1   8
ATOM      2  O   UNL     1     -39.107  24.394   3.564  0.00  0.00    -0.273 OA
ATOM      3  N   UNL     1     -39.133  24.755   1.279  0.00  0.00    -0.272 N 
ATOM      4  C   UNL     1     -40.017  25.913   1.302  0.00  0.00    +0.152 C 
ATOM      5  C   UNL     1     -39.871  26.540  -0.079  0.00  0.00    +0.031 C 
ATOM      6  C   UNL     1     -38.669  24.475  -0.078  0.00  0.00    +0.094 C 
ATOM      7  C   UNL     1     -39.531  25.351  -0.975  0.00  0.00    +0.024 C 
ATOM      8  C   UNL     1     -38.692  24.131   2.435  0.00  0.00    +0.244 C 
BRANCH   4  11
ATOM      9  O   UNL     1     -41.749  24.268   1.222  0.00  0.00    -0.274 OA
ATOM     10  N   UNL     1     -42.244  26.328   2.120  0.00  0.00    -0.327 N 
ATOM     11  C   UNL     1     -41.406  25.404   1.540  0.00  0.00    +0.237 C 
ATOM     12  H   UNL     1     -43.179  26.090   2.316  0.00  0.00    +0.145 HD
ATOM     13  H   UNL     1     -41.909  27.227   2.338  0.00  0.00    +0.145 HD
ENDBRANCH   4  11
ENDBRANCH   1   8
BRANCH   1  15
ATOM     14  O   UNL     1     -34.917  24.040   2.081  0.00  0.00    -0.273 OA
ATOM     15  N   UNL     1     -36.735  23.281   3.324  0.00  0.00    -0.297 N 
ATOM     16  C   UNL     1     -35.438  23.754   3.155  0.00  0.00    +0.241 C 
ATOM     17  H   UNL     1     -37.044  23.085   4.238  0.00  0.00    +0.150 HD
BRANCH  16  20
ATOM     18  O   UNL     1     -33.863  27.315   4.915  0.00  0.00    -0.275 OA
ATOM     19  N   UNL     1     -33.852  25.054   4.305  0.00  0.00    -0.298 N 
ATOM     20  C   UNL     1     -34.712  23.914   4.452  0.00  0.00    +0.149 C 
ATOM     21  C   UNL     1     -35.630  24.298   5.597  0.00  0.00    +0.039 C 
ATOM     22  C   UNL     1     -35.676  25.825   5.547  0.00  0.00    +0.087 C 
ATOM     23  C   UNL     1     -34.357  26.198   4.913  0.00  0.00    +0.223 C 
ATOM     24  H   UNL     1     -32.993  25.028   3.825  0.00  0.00    +0.150 HD
ENDBRANCH  16  20
ENDBRANCH   1  15
BRANCH   1  25
ATOM     25  C   UNL     1     -38.293  21.684   2.261  0.00  0.00    +0.073 C 
BRANCH  25  29
ATOM     26  F   UNL     1     -35.453  20.488   2.942  0.00  0.00    -0.187 F 
ATOM     27  N   UNL     1     -37.814  19.990   0.453  0.00  0.00    -0.317 N 
ATOM     28  N   UNL     1     -35.813  19.178   0.974  0.00  0.00    -0.293 N 
ATOM     29  C   UNL     1     -37.431  20.641   1.592  0.00  0.00    +0.067 C 
ATOM     30  C   UNL     1     -36.194  20.124   1.894  0.00  0.00    +0.199 C 
ATOM     31  C   UNL     1     -36.810  19.123   0.120  0.00  0.00    +0.183 C 
ATOM     32  H   UNL     1     -38.657  20.122  -0.039  0.00  0.00    +0.148 HD
ATOM     33  H   UNL     1     -34.978  18.658   0.958  0.00  0.00    +0.150 HD
ENDBRANCH  25  29
ENDBRANCH   1  25
TORSDOF 6
ENDMDL
MODEL 9
REMARK VINA RESULT:      -6.1      4.321      6.972
REMARK  Name = 56842878
REMARK  6 active torsions:
REMARK  status: ('A' for Active; 'I' for Inactive)
REMARK    1  A    between atoms: C_1  and  C_8
REMARK    2  A    between atoms: C_1  and  N_15
REMARK    3  A    between atoms: C_1  and  C_25
REMARK    4  A    between atoms: C_4  and  C_11
REMARK    5  A    between atoms: C_16  and  C_20
REMARK    6  A    between atoms: C_25  and  C_29
REMARK                            x       y       z     vdW  Elec       q    Type
REMARK                         _______ _______ _______ _____ _____    ______ ____
ROOT
ATOM      1  C   UNL     1     -35.417  20.499   2.147  0.00  0.00    +0.155 C 
ENDROOT
BRANCH   1   8
ATOM      2  O   UNL     1     -34.379  22.083   0.704  0.00  0.00    -0.273 OA
ATOM      3  N   UNL     1     -33.380  20.003   0.883  0.00  0.00    -0.272 N 
ATOM      4  C   UNL     1     -32.194  20.319   0.098  0.00  0.00    +0.152 C 
ATOM      5  C   UNL     1     -31.217  19.189   0.400  0.00  0.00    +0.031 C 
ATOM      6  C   UNL     1     -33.307  18.648   1.424  0.00  0.00    +0.094 C 
ATOM      7  C   UNL     1     -32.129  18.004   0.708  0.00  0.00    +0.024 C 
ATOM      8  C   UNL     1     -34.350  20.947   1.181  0.00  0.00    +0.244 C 
BRANCH   4  11
ATOM      9  O   UNL     1     -32.799  19.294  -1.975  0.00  0.00    -0.274 OA
ATOM     10  N   UNL     1     -32.725  21.592  -1.876  0.00  0.00    -0.327 N 
ATOM     11  C   UNL     1     -32.607  20.330  -1.343  0.00  0.00    +0.237 C 
ATOM     12  H   UNL     1     -32.991  21.705  -2.817  0.00  0.00    +0.145 HD
ATOM     13  H   UNL     1     -32.543  22.381  -1.318  0.00  0.00    +0.145 HD
ENDBRANCH   4  11
ENDBRANCH   1   8
BRANCH   1  15
ATOM     14  O   UNL     1     -35.039  20.906   4.997  0.00  0.00    -0.273 OA
ATOM     15  N   UNL     1     -35.703  21.683   2.904  0.00  0.00    -0.297 N 
ATOM     16  C   UNL     1     -35.489  21.790   4.274  0.00  0.00    +0.241 C 
ATOM     17  H   UNL     1     -36.070  22.463   2.428  0.00  0.00    +0.150 HD
BRANCH  16  20
ATOM     18  O   UNL     1     -33.119  25.343   4.369  0.00  0.00    -0.275 OA
ATOM     19  N   UNL     1     -34.621  23.760   5.219  0.00  0.00    -0.298 N 
ATOM     20  C   UNL     1     -35.849  23.139   4.808  0.00  0.00    +0.149 C 
ATOM     21  C   UNL     1     -36.385  24.071   3.739  0.00  0.00    +0.039 C 
ATOM     22  C   UNL     1     -35.138  24.740   3.160  0.00  0.00    +0.087 C 
ATOM     23  C   UNL     1     -34.152  24.696   4.303  0.00  0.00    +0.223 C 
ATOM     24  H   UNL     1     -34.160  23.547   6.062  0.00  0.00    +0.150 HD
ENDBRANCH  16  20
ENDBRANCH   1  15
BRANCH   1  25
ATOM     25  C   UNL     1     -36.623  19.964   1.387  0.00  0.00    +0.073 C 
BRANCH  25  29
ATOM     26  F   UNL     1     -37.249  22.338  -0.595  0.00  0.00    -0.187 F 
ATOM     27  N   UNL     1     -38.771  20.995   2.215  0.00  0.00    -0.317 N 
ATOM     28  N   UNL     1     -39.169  22.656   0.794  0.00  0.00    -0.293 N 
ATOM     29  C   UNL     1     -37.744  20.972   1.315  0.00  0.00    +0.067 C 
ATOM     30  C   UNL     1     -38.010  22.005   0.449  0.00  0.00    +0.199 C 
ATOM     31  C   UNL     1     -39.601  22.023   1.862  0.00  0.00    +0.183 C 
ATOM     32  H   UNL     1     -38.891  20.385   2.979  0.00  0.00    +0.148 HD
ATOM     33  H   UNL     1     -39.584  23.425   0.342  0.00  0.00    +0.150 HD
ENDBRANCH  25  29
ENDBRANCH   1  25
TORSDOF 6
ENDMDL
