MODEL 1
REMARK VINA RESULT:      -6.7      0.000      0.000
REMARK  Name = 5312145
REMARK  3 active torsions:
REMARK  status: ('A' for Active; 'I' for Inactive)
REMARK    1  A    between atoms: N_1  and  S_12
REMARK    2  A    between atoms: S_12  and  C_15
REMARK    3  A    between atoms: C_20  and  N_21
REMARK                            x       y       z     vdW  Elec       q    Type
REMARK                         _______ _______ _______ _____ _____    ______ ____
ROOT
ATOM      1  N   UNL     1     -36.282  21.161   3.036  0.00  0.00    -0.191 N 
ATOM      2  N   UNL     1     -37.446  23.176   3.415  0.00  0.00    -0.316 NA
ATOM      3  N   UNL     1     -36.409  25.024   4.562  0.00  0.00    -0.317 NA
ATOM      4  N   UNL     1     -38.617  25.175   3.785  0.00  0.00    -0.257 N 
ATOM      5  C   UNL     1     -36.298  22.494   3.574  0.00  0.00    +0.198 C 
ATOM      6  C   UNL     1     -35.178  22.988   4.200  0.00  0.00    +0.152 C 
ATOM      7  C   UNL     1     -35.292  24.276   4.681  0.00  0.00    +0.179 C 
ATOM      8  C   UNL     1     -37.432  24.421   3.928  0.00  0.00    +0.201 C 
ATOM      9  C   UNL     1     -39.784  24.668   3.133  0.00  0.00    +0.121 C 
ATOM     10  H   UNL     1     -36.229  20.376   3.628  0.00  0.00    +0.176 HD
ATOM     11  H   UNL     1     -38.641  26.089   4.150  0.00  0.00    +0.160 HD
ATOM     12  N   UNL     1     -34.165  24.830   5.335  0.00  0.00    -0.309 N 
ATOM     13  C   UNL     1     -34.160  26.152   5.875  0.00  0.00    +0.110 C 
ATOM     14  H   UNL     1     -33.353  24.281   5.422  0.00  0.00    +0.149 HD
ENDROOT
BRANCH   1  15
ATOM     15  S   UNL     1     -36.356  20.974   1.324  0.00  0.00    +0.075 S 
ATOM     16  O   UNL     1     -37.688  20.491   0.978  0.00  0.00    -0.150 OA
ATOM     17  O   UNL     1     -35.858  22.184   0.681  0.00  0.00    -0.150 OA
BRANCH  15  18
ATOM     18  C   UNL     1     -35.225  19.678   1.027  0.00  0.00    +0.125 C 
ATOM     19  C   UNL     1     -34.022  19.627   1.731  0.00  0.00    +0.021 C 
ATOM     20  C   UNL     1     -35.523  18.693   0.085  0.00  0.00    +0.021 C 
ATOM     21  C   UNL     1     -33.118  18.592   1.494  0.00  0.00    +0.015 C 
ATOM     22  C   UNL     1     -34.620  17.658  -0.152  0.00  0.00    +0.015 C 
ATOM     23  C   UNL     1     -33.417  17.607   0.553  0.00  0.00    +0.042 C 
BRANCH  23  24
ATOM     24  N   UNL     1     -32.503  16.559   0.314  0.00  0.00    -0.357 N 
ATOM     25  H   UNL     1     -32.015  16.516  -0.540  0.00  0.00    +0.142 HD
ATOM     26  H   UNL     1     -32.352  15.871   1.002  0.00  0.00    +0.142 HD
ENDBRANCH  23  24
ENDBRANCH  15  18
ENDBRANCH   1  15
TORSDOF 3
ENDMDL
MODEL 2
REMARK VINA RESULT:      -6.4      1.215      1.474
REMARK  Name = 5312145
REMARK  3 active torsions:
REMARK  status: ('A' for Active; 'I' for Inactive)
REMARK    1  A    between atoms: N_1  and  S_12
REMARK    2  A    between atoms: S_12  and  C_15
REMARK    3  A    between atoms: C_20  and  N_21
REMARK                            x       y       z     vdW  Elec       q    Type
REMARK                         _______ _______ _______ _____ _____    ______ ____
ROOT
ATOM      1  N   UNL     1     -36.341  21.371   3.080  0.00  0.00    -0.191 N 
ATOM      2  N   UNL     1     -37.430  23.431   3.439  0.00  0.00    -0.316 NA
ATOM      3  N   UNL     1     -36.346  25.232   4.618  0.00  0.00    -0.317 NA
ATOM      4  N   UNL     1     -38.526  25.476   3.788  0.00  0.00    -0.257 N 
ATOM      5  C   UNL     1     -36.315  22.702   3.623  0.00  0.00    +0.198 C 
ATOM      6  C   UNL     1     -35.191  23.148   4.278  0.00  0.00    +0.152 C 
ATOM      7  C   UNL     1     -35.265  24.438   4.761  0.00  0.00    +0.179 C 
ATOM      8  C   UNL     1     -37.377  24.673   3.957  0.00  0.00    +0.201 C 
ATOM      9  C   UNL     1     -39.697  25.020   3.107  0.00  0.00    +0.121 C 
ATOM     10  H   UNL     1     -36.335  20.583   3.670  0.00  0.00    +0.176 HD
ATOM     11  H   UNL     1     -38.521  26.389   4.156  0.00  0.00    +0.160 HD
ATOM     12  N   UNL     1     -34.132  24.943   5.445  0.00  0.00    -0.309 N 
ATOM     13  C   UNL     1     -34.085  26.262   5.990  0.00  0.00    +0.110 C 
ATOM     14  H   UNL     1     -33.345  24.361   5.549  0.00  0.00    +0.149 HD
ENDROOT
BRANCH   1  15
ATOM     15  S   UNL     1     -36.380  21.194   1.366  0.00  0.00    +0.075 S 
ATOM     16  O   UNL     1     -37.283  20.095   1.044  0.00  0.00    -0.150 OA
ATOM     17  O   UNL     1     -36.607  22.494   0.747  0.00  0.00    -0.150 OA
BRANCH  15  18
ATOM     18  C   UNL     1     -34.756  20.675   0.993  0.00  0.00    +0.125 C 
ATOM     19  C   UNL     1     -33.932  21.477   0.203  0.00  0.00    +0.021 C 
ATOM     20  C   UNL     1     -34.281  19.458   1.484  0.00  0.00    +0.021 C 
ATOM     21  C   UNL     1     -32.633  21.063  -0.095  0.00  0.00    +0.015 C 
ATOM     22  C   UNL     1     -32.983  19.044   1.186  0.00  0.00    +0.015 C 
ATOM     23  C   UNL     1     -32.159  19.847   0.396  0.00  0.00    +0.042 C 
BRANCH  23  24
ATOM     24  N   UNL     1     -30.846  19.428   0.095  0.00  0.00    -0.357 N 
ATOM     25  H   UNL     1     -30.228  20.038  -0.369  0.00  0.00    +0.142 HD
ATOM     26  H   UNL     1     -30.546  18.525   0.351  0.00  0.00    +0.142 HD
ENDBRANCH  23  24
ENDBRANCH  15  18
ENDBRANCH   1  15
TORSDOF 3
ENDMDL
MODEL 3
REMARK VINA RESULT:      -6.2      1.741      2.000
REMARK  Name = 5312145
REMARK  3 active torsions:
REMARK  status: ('A' for Active; 'I' for Inactive)
REMARK    1  A    between atoms: N_1  and  S_12
REMARK    2  A    between atoms: S_12  and  C_15
REMARK    3  A    between atoms: C_20  and  N_21
REMARK                            x       y       z     vdW  Elec       q    Type
REMARK                         _______ _______ _______ _____ _____    ______ ____
ROOT
ATOM      1  N   UNL     1     -35.286  20.753   2.415  0.00  0.00    -0.191 N 
ATOM      2  N   UNL     1     -37.195  22.136   2.477  0.00  0.00    -0.316 NA
ATOM      3  N   UNL     1     -37.256  24.125   3.835  0.00  0.00    -0.317 NA
ATOM      4  N   UNL     1     -39.101  23.502   2.527  0.00  0.00    -0.257 N 
ATOM      5  C   UNL     1     -35.944  21.926   2.923  0.00  0.00    +0.198 C 
ATOM      6  C   UNL     1     -35.284  22.747   3.807  0.00  0.00    +0.152 C 
ATOM      7  C   UNL     1     -35.999  23.846   4.235  0.00  0.00    +0.179 C 
ATOM      8  C   UNL     1     -37.786  23.242   2.968  0.00  0.00    +0.201 C 
ATOM      9  C   UNL     1     -39.792  22.655   1.606  0.00  0.00    +0.121 C 
ATOM     10  H   UNL     1     -35.073  19.995   3.007  0.00  0.00    +0.176 HD
ATOM     11  H   UNL     1     -39.562  24.302   2.868  0.00  0.00    +0.160 HD
ATOM     12  N   UNL     1     -35.362  24.723   5.149  0.00  0.00    -0.309 N 
ATOM     13  C   UNL     1     -35.996  25.893   5.663  0.00  0.00    +0.110 C 
ATOM     14  H   UNL     1     -34.445  24.515   5.440  0.00  0.00    +0.149 HD
ENDROOT
BRANCH   1  15
ATOM     15  S   UNL     1     -34.879  20.710   0.742  0.00  0.00    +0.075 S 
ATOM     16  O   UNL     1     -35.874  19.896   0.053  0.00  0.00    -0.150 OA
ATOM     17  O   UNL     1     -34.629  22.066   0.267  0.00  0.00    -0.150 OA
BRANCH  15  18
ATOM     18  C   UNL     1     -33.372  19.829   0.732  0.00  0.00    +0.125 C 
ATOM     19  C   UNL     1     -32.276  20.331   0.030  0.00  0.00    +0.021 C 
ATOM     20  C   UNL     1     -33.262  18.624   1.426  0.00  0.00    +0.021 C 
ATOM     21  C   UNL     1     -31.071  19.628   0.022  0.00  0.00    +0.015 C 
ATOM     22  C   UNL     1     -32.058  17.921   1.418  0.00  0.00    +0.015 C 
ATOM     23  C   UNL     1     -30.962  18.423   0.716  0.00  0.00    +0.042 C 
BRANCH  23  24
ATOM     24  N   UNL     1     -29.743  17.712   0.709  0.00  0.00    -0.357 N 
ATOM     25  H   UNL     1     -28.943  18.102   1.129  0.00  0.00    +0.142 HD
ATOM     26  H   UNL     1     -29.694  16.825   0.285  0.00  0.00    +0.142 HD
ENDBRANCH  23  24
ENDBRANCH  15  18
ENDBRANCH   1  15
TORSDOF 3
ENDMDL
MODEL 4
REMARK VINA RESULT:      -6.2      2.606      6.890
REMARK  Name = 5312145
REMARK  3 active torsions:
REMARK  status: ('A' for Active; 'I' for Inactive)
REMARK    1  A    between atoms: N_1  and  S_12
REMARK    2  A    between atoms: S_12  and  C_15
REMARK    3  A    between atoms: C_20  and  N_21
REMARK                            x       y       z     vdW  Elec       q    Type
REMARK                         _______ _______ _______ _____ _____    ______ ____
ROOT
ATOM      1  N   UNL     1     -35.130  22.527   2.212  0.00  0.00    -0.191 N 
ATOM      2  N   UNL     1     -36.803  21.212   1.196  0.00  0.00    -0.316 NA
ATOM      3  N   UNL     1     -36.324  19.004   0.358  0.00  0.00    -0.317 NA
ATOM      4  N   UNL     1     -38.479  19.916   0.189  0.00  0.00    -0.257 N 
ATOM      5  C   UNL     1     -35.515  21.298   1.573  0.00  0.00    +0.198 C 
ATOM      6  C   UNL     1     -34.581  20.306   1.386  0.00  0.00    +0.152 C 
ATOM      7  C   UNL     1     -35.048  19.167   0.765  0.00  0.00    +0.179 C 
ATOM      8  C   UNL     1     -37.135  20.050   0.601  0.00  0.00    +0.201 C 
ATOM      9  C   UNL     1     -39.455  20.941   0.382  0.00  0.00    +0.121 C 
ATOM     10  H   UNL     1     -34.508  23.152   1.774  0.00  0.00    +0.176 HD
ATOM     11  H   UNL     1     -38.755  19.079  -0.251  0.00  0.00    +0.160 HD
ATOM     12  N   UNL     1     -34.123  18.115   0.549  0.00  0.00    -0.309 N 
ATOM     13  C   UNL     1     -34.485  16.888  -0.081  0.00  0.00    +0.110 C 
ATOM     14  H   UNL     1     -33.193  18.238   0.846  0.00  0.00    +0.149 HD
ENDROOT
BRANCH   1  15
ATOM     15  S   UNL     1     -35.785  22.873   3.767  0.00  0.00    +0.075 S 
ATOM     16  O   UNL     1     -37.194  23.209   3.601  0.00  0.00    -0.150 OA
ATOM     17  O   UNL     1     -35.421  21.811   4.697  0.00  0.00    -0.150 OA
BRANCH  15  18
ATOM     18  C   UNL     1     -34.941  24.331   4.227  0.00  0.00    +0.125 C 
ATOM     19  C   UNL     1     -34.997  24.782   5.546  0.00  0.00    +0.021 C 
ATOM     20  C   UNL     1     -34.211  25.045   3.277  0.00  0.00    +0.021 C 
ATOM     21  C   UNL     1     -34.322  25.946   5.914  0.00  0.00    +0.015 C 
ATOM     22  C   UNL     1     -33.537  26.208   3.645  0.00  0.00    +0.015 C 
ATOM     23  C   UNL     1     -33.593  26.659   4.964  0.00  0.00    +0.042 C 
BRANCH  23  24
ATOM     24  N   UNL     1     -32.910  27.837   5.336  0.00  0.00    -0.357 N 
ATOM     25  H   UNL     1     -32.383  27.859   6.167  0.00  0.00    +0.142 HD
ATOM     26  H   UNL     1     -32.959  28.636   4.763  0.00  0.00    +0.142 HD
ENDBRANCH  23  24
ENDBRANCH  15  18
ENDBRANCH   1  15
TORSDOF 3
ENDMDL
MODEL 5
REMARK VINA RESULT:      -6.2      3.444      4.579
REMARK  Name = 5312145
REMARK  3 active torsions:
REMARK  status: ('A' for Active; 'I' for Inactive)
REMARK    1  A    between atoms: N_1  and  S_12
REMARK    2  A    between atoms: S_12  and  C_15
REMARK    3  A    between atoms: C_20  and  N_21
REMARK                            x       y       z     vdW  Elec       q    Type
REMARK                         _______ _______ _______ _____ _____    ______ ____
ROOT
ATOM      1  N   UNL     1     -36.238  23.275   4.516  0.00  0.00    -0.191 N 
ATOM      2  N   UNL     1     -35.983  25.443   3.625  0.00  0.00    -0.316 NA
ATOM      3  N   UNL     1     -34.477  27.038   4.622  0.00  0.00    -0.317 NA
ATOM      4  N   UNL     1     -35.739  27.596   2.725  0.00  0.00    -0.257 N 
ATOM      5  C   UNL     1     -35.614  24.569   4.577  0.00  0.00    +0.198 C 
ATOM      6  C   UNL     1     -34.702  24.838   5.571  0.00  0.00    +0.152 C 
ATOM      7  C   UNL     1     -34.159  26.105   5.543  0.00  0.00    +0.179 C 
ATOM      8  C   UNL     1     -35.382  26.645   3.706  0.00  0.00    +0.201 C 
ATOM      9  C   UNL     1     -36.684  27.322   1.688  0.00  0.00    +0.121 C 
ATOM     10  H   UNL     1     -36.867  22.983   5.215  0.00  0.00    +0.176 HD
ATOM     11  H   UNL     1     -35.319  28.485   2.756  0.00  0.00    +0.160 HD
ATOM     12  N   UNL     1     -33.214  26.432   6.548  0.00  0.00    -0.309 N 
ATOM     13  C   UNL     1     -32.582  27.709   6.625  0.00  0.00    +0.110 C 
ATOM     14  H   UNL     1     -32.985  25.750   7.219  0.00  0.00    +0.149 HD
ENDROOT
BRANCH   1  15
ATOM     15  S   UNL     1     -35.853  22.249   3.186  0.00  0.00    +0.075 S 
ATOM     16  O   UNL     1     -34.922  22.961   2.319  0.00  0.00    -0.150 OA
ATOM     17  O   UNL     1     -35.484  20.929   3.681  0.00  0.00    -0.150 OA
BRANCH  15  18
ATOM     18  C   UNL     1     -37.376  22.123   2.342  0.00  0.00    +0.125 C 
ATOM     19  C   UNL     1     -37.567  21.116   1.395  0.00  0.00    +0.021 C 
ATOM     20  C   UNL     1     -38.403  23.028   2.612  0.00  0.00    +0.021 C 
ATOM     21  C   UNL     1     -38.783  21.014   0.720  0.00  0.00    +0.015 C 
ATOM     22  C   UNL     1     -39.619  22.926   1.938  0.00  0.00    +0.015 C 
ATOM     23  C   UNL     1     -39.809  21.919   0.991  0.00  0.00    +0.042 C 
BRANCH  23  24
ATOM     24  N   UNL     1     -41.040  21.816   0.309  0.00  0.00    -0.357 N 
ATOM     25  H   UNL     1     -41.069  21.899  -0.671  0.00  0.00    +0.142 HD
ATOM     26  H   UNL     1     -41.871  21.659   0.815  0.00  0.00    +0.142 HD
ENDBRANCH  23  24
ENDBRANCH  15  18
ENDBRANCH   1  15
TORSDOF 3
ENDMDL
MODEL 6
REMARK VINA RESULT:      -6.0      4.862      8.430
REMARK  Name = 5312145
REMARK  3 active torsions:
REMARK  status: ('A' for Active; 'I' for Inactive)
REMARK    1  A    between atoms: N_1  and  S_12
REMARK    2  A    between atoms: S_12  and  C_15
REMARK    3  A    between atoms: C_20  and  N_21
REMARK                            x       y       z     vdW  Elec       q    Type
REMARK                         _______ _______ _______ _____ _____    ______ ____
ROOT
ATOM      1  N   UNL     1     -35.168  26.881   4.829  0.00  0.00    -0.191 N 
ATOM      2  N   UNL     1     -35.664  24.586   5.044  0.00  0.00    -0.316 NA
ATOM      3  N   UNL     1     -37.230  23.500   3.569  0.00  0.00    -0.317 NA
ATOM      4  N   UNL     1     -36.147  22.301   5.270  0.00  0.00    -0.257 N 
ATOM      5  C   UNL     1     -35.895  25.727   4.372  0.00  0.00    +0.198 C 
ATOM      6  C   UNL     1     -36.758  25.845   3.309  0.00  0.00    +0.152 C 
ATOM      7  C   UNL     1     -37.407  24.683   2.946  0.00  0.00    +0.179 C 
ATOM      8  C   UNL     1     -36.358  23.522   4.594  0.00  0.00    +0.201 C 
ATOM      9  C   UNL     1     -35.250  22.172   6.376  0.00  0.00    +0.121 C 
ATOM     10  H   UNL     1     -35.634  27.639   5.251  0.00  0.00    +0.176 HD
ATOM     11  H   UNL     1     -36.639  21.504   4.968  0.00  0.00    +0.160 HD
ATOM     12  N   UNL     1     -38.308  24.752   1.855  0.00  0.00    -0.309 N 
ATOM     13  C   UNL     1     -39.037  23.619   1.385  0.00  0.00    +0.110 C 
ATOM     14  H   UNL     1     -38.436  25.617   1.403  0.00  0.00    +0.149 HD
ENDROOT
BRANCH   1  15
ATOM     15  S   UNL     1     -33.459  26.900   4.616  0.00  0.00    +0.075 S 
ATOM     16  O   UNL     1     -32.836  26.774   5.929  0.00  0.00    -0.150 OA
ATOM     17  O   UNL     1     -33.088  25.957   3.568  0.00  0.00    -0.150 OA
BRANCH  15  18
ATOM     18  C   UNL     1     -33.159  28.521   4.039  0.00  0.00    +0.125 C 
ATOM     19  C   UNL     1     -33.903  29.030   2.974  0.00  0.00    +0.021 C 
ATOM     20  C   UNL     1     -32.177  29.307   4.642  0.00  0.00    +0.021 C 
ATOM     21  C   UNL     1     -33.664  30.324   2.512  0.00  0.00    +0.015 C 
ATOM     22  C   UNL     1     -31.938  30.601   4.180  0.00  0.00    +0.015 C 
ATOM     23  C   UNL     1     -32.682  31.110   3.115  0.00  0.00    +0.042 C 
BRANCH  23  24
ATOM     24  N   UNL     1     -32.441  32.419   2.649  0.00  0.00    -0.357 N 
ATOM     25  H   UNL     1     -31.725  32.962   3.051  0.00  0.00    +0.142 HD
ATOM     26  H   UNL     1     -32.989  32.791   1.920  0.00  0.00    +0.142 HD
ENDBRANCH  23  24
ENDBRANCH  15  18
ENDBRANCH   1  15
TORSDOF 3
ENDMDL
MODEL 7
REMARK VINA RESULT:      -6.0      3.911      6.226
REMARK  Name = 5312145
REMARK  3 active torsions:
REMARK  status: ('A' for Active; 'I' for Inactive)
REMARK    1  A    between atoms: N_1  and  S_12
REMARK    2  A    between atoms: S_12  and  C_15
REMARK    3  A    between atoms: C_20  and  N_21
REMARK                            x       y       z     vdW  Elec       q    Type
REMARK                         _______ _______ _______ _____ _____    ______ ____
ROOT
ATOM      1  N   UNL     1     -38.179  26.094   3.400  0.00  0.00    -0.191 N 
ATOM      2  N   UNL     1     -39.292  24.281   2.383  0.00  0.00    -0.316 NA
ATOM      3  N   UNL     1     -41.120  24.632   0.853  0.00  0.00    -0.317 NA
ATOM      4  N   UNL     1     -40.388  22.467   1.378  0.00  0.00    -0.257 N 
ATOM      5  C   UNL     1     -39.206  25.617   2.514  0.00  0.00    +0.198 C 
ATOM      6  C   UNL     1     -40.018  26.517   1.866  0.00  0.00    +0.152 C 
ATOM      7  C   UNL     1     -40.970  25.961   1.037  0.00  0.00    +0.179 C 
ATOM      8  C   UNL     1     -40.261  23.862   1.546  0.00  0.00    +0.201 C 
ATOM      9  C   UNL     1     -39.546  21.525   2.047  0.00  0.00    +0.121 C 
ATOM     10  H   UNL     1     -38.409  26.543   4.246  0.00  0.00    +0.176 HD
ATOM     11  H   UNL     1     -41.087  22.127   0.775  0.00  0.00    +0.160 HD
ATOM     12  N   UNL     1     -41.833  26.847   0.347  0.00  0.00    -0.309 N 
ATOM     13  C   UNL     1     -42.856  26.394  -0.539  0.00  0.00    +0.110 C 
ATOM     14  H   UNL     1     -41.722  27.816   0.484  0.00  0.00    +0.149 HD
ENDROOT
BRANCH   1  15
ATOM     15  S   UNL     1     -36.535  25.862   2.940  0.00  0.00    +0.075 S 
ATOM     16  O   UNL     1     -36.503  25.547   1.516  0.00  0.00    -0.150 OA
ATOM     17  O   UNL     1     -35.730  26.973   3.433  0.00  0.00    -0.150 OA
BRANCH  15  18
ATOM     18  C   UNL     1     -36.089  24.418   3.814  0.00  0.00    +0.125 C 
ATOM     19  C   UNL     1     -35.996  23.198   3.144  0.00  0.00    +0.021 C 
ATOM     20  C   UNL     1     -35.826  24.483   5.183  0.00  0.00    +0.021 C 
ATOM     21  C   UNL     1     -35.640  22.044   3.842  0.00  0.00    +0.015 C 
ATOM     22  C   UNL     1     -35.469  23.330   5.880  0.00  0.00    +0.015 C 
ATOM     23  C   UNL     1     -35.376  22.110   5.210  0.00  0.00    +0.042 C 
BRANCH  23  24
ATOM     24  N   UNL     1     -35.014  20.943   5.916  0.00  0.00    -0.357 N 
ATOM     25  H   UNL     1     -34.232  20.951   6.513  0.00  0.00    +0.142 HD
ATOM     26  H   UNL     1     -35.546  20.121   5.812  0.00  0.00    +0.142 HD
ENDBRANCH  23  24
ENDBRANCH  15  18
ENDBRANCH   1  15
TORSDOF 3
ENDMDL
MODEL 8
REMARK VINA RESULT:      -6.0      1.849      3.372
REMARK  Name = 5312145
REMARK  3 active torsions:
REMARK  status: ('A' for Active; 'I' for Inactive)
REMARK    1  A    between atoms: N_1  and  S_12
REMARK    2  A    between atoms: S_12  and  C_15
REMARK    3  A    between atoms: C_20  and  N_21
REMARK                            x       y       z     vdW  Elec       q    Type
REMARK                         _______ _______ _______ _____ _____    ______ ____
ROOT
ATOM      1  N   UNL     1     -35.878  21.969   1.116  0.00  0.00    -0.191 N 
ATOM      2  N   UNL     1     -36.035  23.108   3.175  0.00  0.00    -0.316 NA
ATOM      3  N   UNL     1     -37.955  24.460   3.715  0.00  0.00    -0.317 NA
ATOM      4  N   UNL     1     -36.176  24.235   5.228  0.00  0.00    -0.257 N 
ATOM      5  C   UNL     1     -36.618  22.834   1.995  0.00  0.00    +0.198 C 
ATOM      6  C   UNL     1     -37.843  23.318   1.600  0.00  0.00    +0.152 C 
ATOM      7  C   UNL     1     -38.474  24.137   2.513  0.00  0.00    +0.179 C 
ATOM      8  C   UNL     1     -36.751  23.919   3.978  0.00  0.00    +0.201 C 
ATOM      9  C   UNL     1     -34.904  23.734   5.646  0.00  0.00    +0.121 C 
ATOM     10  H   UNL     1     -35.506  22.307   0.270  0.00  0.00    +0.176 HD
ATOM     11  H   UNL     1     -36.673  24.827   5.838  0.00  0.00    +0.160 HD
ATOM     12  N   UNL     1     -39.740  24.663   2.152  0.00  0.00    -0.309 N 
ATOM     13  C   UNL     1     -40.491  25.520   3.010  0.00  0.00    +0.110 C 
ATOM     14  H   UNL     1     -40.115  24.426   1.274  0.00  0.00    +0.149 HD
ENDROOT
BRANCH   1  15
ATOM     15  S   UNL     1     -35.662  20.326   1.586  0.00  0.00    +0.075 S 
ATOM     16  O   UNL     1     -35.691  20.263   3.043  0.00  0.00    -0.150 OA
ATOM     17  O   UNL     1     -36.573  19.479   0.827  0.00  0.00    -0.150 OA
BRANCH  15  18
ATOM     18  C   UNL     1     -34.028  19.988   1.072  0.00  0.00    +0.125 C 
ATOM     19  C   UNL     1     -33.412  18.794   1.446  0.00  0.00    +0.021 C 
ATOM     20  C   UNL     1     -33.337  20.912   0.288  0.00  0.00    +0.021 C 
ATOM     21  C   UNL     1     -32.107  18.523   1.036  0.00  0.00    +0.015 C 
ATOM     22  C   UNL     1     -32.032  20.642  -0.123  0.00  0.00    +0.015 C 
ATOM     23  C   UNL     1     -31.417  19.447   0.251  0.00  0.00    +0.042 C 
BRANCH  23  24
ATOM     24  N   UNL     1     -30.097  19.173  -0.165  0.00  0.00    -0.357 N 
ATOM     25  H   UNL     1     -29.443  18.812   0.476  0.00  0.00    +0.142 HD
ATOM     26  H   UNL     1     -29.830  19.343  -1.097  0.00  0.00    +0.142 HD
ENDBRANCH  23  24
ENDBRANCH  15  18
ENDBRANCH   1  15
TORSDOF 3
ENDMDL
MODEL 9
REMARK VINA RESULT:      -5.9      4.557      6.896
REMARK  Name = 5312145
REMARK  3 active torsions:
REMARK  status: ('A' for Active; 'I' for Inactive)
REMARK    1  A    between atoms: N_1  and  S_12
REMARK    2  A    between atoms: S_12  and  C_15
REMARK    3  A    between atoms: C_20  and  N_21
REMARK                            x       y       z     vdW  Elec       q    Type
REMARK                         _______ _______ _______ _____ _____    ______ ____
ROOT
ATOM      1  N   UNL     1     -33.597  26.640   3.741  0.00  0.00    -0.191 N 
ATOM      2  N   UNL     1     -32.586  28.544   4.695  0.00  0.00    -0.316 NA
ATOM      3  N   UNL     1     -32.979  30.749   3.806  0.00  0.00    -0.317 NA
ATOM      4  N   UNL     1     -31.572  30.429   5.655  0.00  0.00    -0.257 N 
ATOM      5  C   UNL     1     -33.401  28.064   3.740  0.00  0.00    +0.198 C 
ATOM      6  C   UNL     1     -34.035  28.837   2.796  0.00  0.00    +0.152 C 
ATOM      7  C   UNL     1     -33.784  30.191   2.879  0.00  0.00    +0.179 C 
ATOM      8  C   UNL     1     -32.421  29.881   4.670  0.00  0.00    +0.201 C 
ATOM      9  C   UNL     1     -30.911  29.632   6.641  0.00  0.00    +0.121 C 
ATOM     10  H   UNL     1     -33.254  26.081   3.007  0.00  0.00    +0.176 HD
ATOM     11  H   UNL     1     -31.429  31.403   5.665  0.00  0.00    +0.160 HD
ATOM     12  N   UNL     1     -34.415  31.031   1.927  0.00  0.00    -0.309 N 
ATOM     13  C   UNL     1     -34.235  32.446   1.910  0.00  0.00    +0.110 C 
ATOM     14  H   UNL     1     -35.000  30.620   1.251  0.00  0.00    +0.149 HD
ENDROOT
BRANCH   1  15
ATOM     15  S   UNL     1     -34.452  25.939   5.063  0.00  0.00    +0.075 S 
ATOM     16  O   UNL     1     -33.512  25.745   6.160  0.00  0.00    -0.150 OA
ATOM     17  O   UNL     1     -35.673  26.697   5.309  0.00  0.00    -0.150 OA
BRANCH  15  18
ATOM     18  C   UNL     1     -34.888  24.363   4.450  0.00  0.00    +0.125 C 
ATOM     19  C   UNL     1     -35.128  23.313   5.337  0.00  0.00    +0.021 C 
ATOM     20  C   UNL     1     -34.995  24.153   3.075  0.00  0.00    +0.021 C 
ATOM     21  C   UNL     1     -35.476  22.054   4.848  0.00  0.00    +0.015 C 
ATOM     22  C   UNL     1     -35.343  22.894   2.587  0.00  0.00    +0.015 C 
ATOM     23  C   UNL     1     -35.583  21.844   3.473  0.00  0.00    +0.042 C 
BRANCH  23  24
ATOM     24  N   UNL     1     -35.936  20.571   2.979  0.00  0.00    -0.357 N 
ATOM     25  H   UNL     1     -36.852  20.231   3.100  0.00  0.00    +0.142 HD
ATOM     26  H   UNL     1     -35.266  20.022   2.511  0.00  0.00    +0.142 HD
ENDBRANCH  23  24
ENDBRANCH  15  18
ENDBRANCH   1  15
TORSDOF 3
ENDMDL
