MODEL 1
REMARK VINA RESULT:      -5.4      0.000      0.000
REMARK  Name = 194564
REMARK  5 active torsions:
REMARK  status: ('A' for Active; 'I' for Inactive)
REMARK    1  A    between atoms: C_5  and  S_17
REMARK    2  A    between atoms: C_9  and  S_19
REMARK    3  A    between atoms: C_9  and  C_23
REMARK    4  A    between atoms: C_10  and  O_21
REMARK    5  A    between atoms: C_23  and  O_24
REMARK                            x       y       z     vdW  Elec       q    Type
REMARK                         _______ _______ _______ _____ _____    ______ ____
ROOT
ATOM      1  O   UNL     1     -36.237  20.072   2.619  0.00  0.00    -0.272 OA
ATOM      2  O   UNL     1     -36.302  24.373  -0.634  0.00  0.00    -0.272 OA
ATOM      3  N   UNL     1     -36.039  22.348   2.317  0.00  0.00    -0.260 N 
ATOM      4  N   UNL     1     -36.587  22.079  -0.349  0.00  0.00    -0.261 N 
ATOM      5  C   UNL     1     -36.426  23.570   1.614  0.00  0.00    +0.173 C 
ATOM      6  C   UNL     1     -35.187  22.620   3.487  0.00  0.00    +0.126 C 
ATOM      7  C   UNL     1     -35.355  24.593   2.044  0.00  0.00    +0.061 C 
ATOM      8  C   UNL     1     -35.050  24.121   3.429  0.00  0.00    -0.021 C 
ATOM      9  C   UNL     1     -37.049  20.975   0.532  0.00  0.00    +0.196 C 
ATOM     10  C   UNL     1     -35.731  22.125   4.847  0.00  0.00    +0.154 C 
ATOM     11  C   UNL     1     -36.387  21.071   1.912  0.00  0.00    +0.255 C 
ATOM     12  C   UNL     1     -36.404  23.391   0.106  0.00  0.00    +0.253 C 
ATOM     13  C   UNL     1     -34.907  24.885   4.520  0.00  0.00    -0.007 C 
ATOM     14  C   UNL     1     -35.312  23.011   6.000  0.00  0.00    +0.005 C 
ATOM     15  C   UNL     1     -34.892  24.273   5.825  0.00  0.00    -0.003 C 
ATOM     16  C   UNL     1     -36.311  21.782  -1.756  0.00  0.00    +0.116 C 
ENDROOT
BRANCH   5  17
ATOM     17  S   UNL     1     -38.075  24.182   2.121  0.00  0.00    -0.114 S 
ATOM     18  C   UNL     1     -37.712  25.950   2.058  0.00  0.00    +0.071 C 
ENDBRANCH   5  17
BRANCH   9  19
ATOM     19  S   UNL     1     -38.868  21.000   0.758  0.00  0.00    -0.112 S 
ATOM     20  C   UNL     1     -39.332  20.875  -0.981  0.00  0.00    +0.071 C 
ENDBRANCH   9  19
BRANCH  10  21
ATOM     21  O   UNL     1     -35.187  20.833   5.124  0.00  0.00    -0.378 OA
ATOM     22  H   UNL     1     -35.025  20.365   4.289  0.00  0.00    +0.211 HD
ENDBRANCH  10  21
BRANCH   9  23
ATOM     23  C   UNL     1     -36.708  19.582  -0.046  0.00  0.00    +0.175 C 
BRANCH  23  24
ATOM     24  O   UNL     1     -37.438  18.623   0.685  0.00  0.00    -0.379 OA
ATOM     25  H   UNL     1     -36.839  17.923   0.989  0.00  0.00    +0.211 HD
ENDBRANCH  23  24
ENDBRANCH   9  23
TORSDOF 5
ENDMDL
MODEL 2
REMARK VINA RESULT:      -5.3      2.873      4.794
REMARK  Name = 194564
REMARK  5 active torsions:
REMARK  status: ('A' for Active; 'I' for Inactive)
REMARK    1  A    between atoms: C_5  and  S_17
REMARK    2  A    between atoms: C_9  and  S_19
REMARK    3  A    between atoms: C_9  and  C_23
REMARK    4  A    between atoms: C_10  and  O_21
REMARK    5  A    between atoms: C_23  and  O_24
REMARK                            x       y       z     vdW  Elec       q    Type
REMARK                         _______ _______ _______ _____ _____    ______ ____
ROOT
ATOM      1  O   UNL     1     -37.415  27.369   1.725  0.00  0.00    -0.272 OA
ATOM      2  O   UNL     1     -38.719  22.180   2.403  0.00  0.00    -0.272 OA
ATOM      3  N   UNL     1     -37.005  25.319   2.695  0.00  0.00    -0.260 N 
ATOM      4  N   UNL     1     -39.112  24.217   1.345  0.00  0.00    -0.261 N 
ATOM      5  C   UNL     1     -37.033  23.859   2.628  0.00  0.00    +0.173 C 
ATOM      6  C   UNL     1     -36.288  25.813   3.883  0.00  0.00    +0.126 C 
ATOM      7  C   UNL     1     -36.786  23.423   4.087  0.00  0.00    +0.061 C 
ATOM      8  C   UNL     1     -35.902  24.526   4.569  0.00  0.00    -0.021 C 
ATOM      9  C   UNL     1     -38.536  25.458   0.765  0.00  0.00    +0.196 C 
ATOM     10  C   UNL     1     -35.073  26.727   3.606  0.00  0.00    +0.154 C 
ATOM     11  C   UNL     1     -37.620  26.154   1.778  0.00  0.00    +0.255 C 
ATOM     12  C   UNL     1     -38.373  23.336   2.145  0.00  0.00    +0.253 C 
ATOM     13  C   UNL     1     -34.790  24.396   5.305  0.00  0.00    -0.007 C 
ATOM     14  C   UNL     1     -33.985  26.584   4.648  0.00  0.00    +0.005 C 
ATOM     15  C   UNL     1     -33.895  25.516   5.456  0.00  0.00    -0.003 C 
ATOM     16  C   UNL     1     -40.514  23.900   1.066  0.00  0.00    +0.116 C 
ENDROOT
BRANCH   5  17
ATOM     17  S   UNL     1     -35.705  23.177   1.568  0.00  0.00    -0.114 S 
ATOM     18  C   UNL     1     -35.407  21.655   2.494  0.00  0.00    +0.071 C 
ENDBRANCH   5  17
BRANCH   9  19
ATOM     19  S   UNL     1     -37.567  25.115  -0.753  0.00  0.00    -0.112 S 
ATOM     20  C   UNL     1     -38.195  26.477  -1.757  0.00  0.00    +0.071 C 
ENDBRANCH   9  19
BRANCH  10  21
ATOM     21  O   UNL     1     -35.494  28.091   3.660  0.00  0.00    -0.378 OA
ATOM     22  H   UNL     1     -35.831  28.291   4.548  0.00  0.00    +0.211 HD
ENDBRANCH  10  21
BRANCH   9  23
ATOM     23  C   UNL     1     -39.626  26.476   0.356  0.00  0.00    +0.175 C 
BRANCH  23  24
ATOM     24  O   UNL     1     -40.096  27.098   1.530  0.00  0.00    -0.379 OA
ATOM     25  H   UNL     1     -40.843  26.593   1.888  0.00  0.00    +0.211 HD
ENDBRANCH  23  24
ENDBRANCH   9  23
TORSDOF 5
ENDMDL
MODEL 3
REMARK VINA RESULT:      -5.3      4.424      6.804
REMARK  Name = 194564
REMARK  5 active torsions:
REMARK  status: ('A' for Active; 'I' for Inactive)
REMARK    1  A    between atoms: C_5  and  S_17
REMARK    2  A    between atoms: C_9  and  S_19
REMARK    3  A    between atoms: C_9  and  C_23
REMARK    4  A    between atoms: C_10  and  O_21
REMARK    5  A    between atoms: C_23  and  O_24
REMARK                            x       y       z     vdW  Elec       q    Type
REMARK                         _______ _______ _______ _____ _____    ______ ____
ROOT
ATOM      1  O   UNL     1     -33.481  28.395   4.104  0.00  0.00    -0.272 OA
ATOM      2  O   UNL     1     -37.712  28.071   0.775  0.00  0.00    -0.272 OA
ATOM      3  N   UNL     1     -35.244  27.196   3.229  0.00  0.00    -0.260 N 
ATOM      4  N   UNL     1     -35.891  29.280   1.580  0.00  0.00    -0.261 N 
ATOM      5  C   UNL     1     -36.125  26.878   2.107  0.00  0.00    +0.173 C 
ATOM      6  C   UNL     1     -35.434  26.282   4.367  0.00  0.00    +0.126 C 
ATOM      7  C   UNL     1     -37.269  26.074   2.758  0.00  0.00    +0.061 C 
ATOM      8  C   UNL     1     -36.539  25.387   3.866  0.00  0.00    -0.021 C 
ATOM      9  C   UNL     1     -34.495  29.251   2.086  0.00  0.00    +0.196 C 
ATOM     10  C   UNL     1     -34.183  25.491   4.813  0.00  0.00    +0.154 C 
ATOM     11  C   UNL     1     -34.360  28.262   3.250  0.00  0.00    +0.255 C 
ATOM     12  C   UNL     1     -36.675  28.128   1.443  0.00  0.00    +0.253 C 
ATOM     13  C   UNL     1     -36.659  24.102   4.225  0.00  0.00    -0.007 C 
ATOM     14  C   UNL     1     -34.525  24.126   5.371  0.00  0.00    +0.005 C 
ATOM     15  C   UNL     1     -35.694  23.516   5.123  0.00  0.00    -0.003 C 
ATOM     16  C   UNL     1     -36.474  30.571   1.209  0.00  0.00    +0.116 C 
ENDROOT
BRANCH   5  17
ATOM     17  S   UNL     1     -35.308  25.837   0.842  0.00  0.00    -0.114 S 
ATOM     18  C   UNL     1     -36.740  24.838   0.382  0.00  0.00    +0.071 C 
ENDBRANCH   5  17
BRANCH   9  19
ATOM     19  S   UNL     1     -33.306  28.770   0.776  0.00  0.00    -0.112 S 
ATOM     20  C   UNL     1     -31.952  29.859   1.263  0.00  0.00    +0.071 C 
ENDBRANCH   9  19
BRANCH  10  21
ATOM     21  O   UNL     1     -33.536  26.199   5.872  0.00  0.00    -0.378 OA
ATOM     22  H   UNL     1     -33.823  27.126   5.863  0.00  0.00    +0.211 HD
ENDBRANCH  10  21
BRANCH   9  23
ATOM     23  C   UNL     1     -34.028  30.632   2.601  0.00  0.00    +0.175 C 
BRANCH  23  24
ATOM     24  O   UNL     1     -34.611  30.839   3.867  0.00  0.00    -0.379 OA
ATOM     25  H   UNL     1     -34.176  31.587   4.306  0.00  0.00    +0.211 HD
ENDBRANCH  23  24
ENDBRANCH   9  23
TORSDOF 5
ENDMDL
MODEL 4
REMARK VINA RESULT:      -5.3      2.454      3.317
REMARK  Name = 194564
REMARK  5 active torsions:
REMARK  status: ('A' for Active; 'I' for Inactive)
REMARK    1  A    between atoms: C_5  and  S_17
REMARK    2  A    between atoms: C_9  and  S_19
REMARK    3  A    between atoms: C_9  and  C_23
REMARK    4  A    between atoms: C_10  and  O_21
REMARK    5  A    between atoms: C_23  and  O_24
REMARK                            x       y       z     vdW  Elec       q    Type
REMARK                         _______ _______ _______ _____ _____    ______ ____
ROOT
ATOM      1  O   UNL     1     -39.407  23.423   1.724  0.00  0.00    -0.272 OA
ATOM      2  O   UNL     1     -35.744  19.618   0.638  0.00  0.00    -0.272 OA
ATOM      3  N   UNL     1     -37.336  22.484   2.096  0.00  0.00    -0.260 N 
ATOM      4  N   UNL     1     -37.810  20.590   0.181  0.00  0.00    -0.261 N 
ATOM      5  C   UNL     1     -36.164  21.766   1.599  0.00  0.00    +0.173 C 
ATOM      6  C   UNL     1     -37.149  22.980   3.470  0.00  0.00    +0.126 C 
ATOM      7  C   UNL     1     -35.424  21.342   2.883  0.00  0.00    +0.061 C 
ATOM      8  C   UNL     1     -35.765  22.474   3.797  0.00  0.00    -0.021 C 
ATOM      9  C   UNL     1     -38.614  21.836   0.086  0.00  0.00    +0.196 C 
ATOM     10  C   UNL     1     -37.284  24.508   3.661  0.00  0.00    +0.154 C 
ATOM     11  C   UNL     1     -38.513  22.646   1.386  0.00  0.00    +0.255 C 
ATOM     12  C   UNL     1     -36.549  20.542   0.787  0.00  0.00    +0.253 C 
ATOM     13  C   UNL     1     -34.927  23.119   4.618  0.00  0.00    -0.007 C 
ATOM     14  C   UNL     1     -36.396  25.039   4.765  0.00  0.00    +0.005 C 
ATOM     15  C   UNL     1     -35.333  24.362   5.225  0.00  0.00    -0.003 C 
ATOM     16  C   UNL     1     -38.362  19.358  -0.385  0.00  0.00    +0.116 C 
ENDROOT
BRANCH   5  17
ATOM     17  S   UNL     1     -35.061  22.828   0.595  0.00  0.00    -0.114 S 
ATOM     18  C   UNL     1     -33.674  21.680   0.456  0.00  0.00    +0.071 C 
ENDBRANCH   5  17
BRANCH   9  19
ATOM     19  S   UNL     1     -38.062  22.899  -1.302  0.00  0.00    -0.112 S 
ATOM     20  C   UNL     1     -39.692  23.430  -1.866  0.00  0.00    +0.071 C 
ENDBRANCH   9  19
BRANCH  10  21
ATOM     21  O   UNL     1     -38.624  24.812   4.051  0.00  0.00    -0.378 OA
ATOM     22  H   UNL     1     -39.238  24.224   3.583  0.00  0.00    +0.211 HD
ENDBRANCH  10  21
BRANCH   9  23
ATOM     23  C   UNL     1     -40.113  21.551  -0.162  0.00  0.00    +0.175 C 
BRANCH  23  24
ATOM     24  O   UNL     1     -40.679  21.129   1.058  0.00  0.00    -0.379 OA
ATOM     25  H   UNL     1     -41.098  21.885   1.499  0.00  0.00    +0.211 HD
ENDBRANCH  23  24
ENDBRANCH   9  23
TORSDOF 5
ENDMDL
MODEL 5
REMARK VINA RESULT:      -5.2      2.591      5.022
REMARK  Name = 194564
REMARK  5 active torsions:
REMARK  status: ('A' for Active; 'I' for Inactive)
REMARK    1  A    between atoms: C_5  and  S_17
REMARK    2  A    between atoms: C_9  and  S_19
REMARK    3  A    between atoms: C_9  and  C_23
REMARK    4  A    between atoms: C_10  and  O_21
REMARK    5  A    between atoms: C_23  and  O_24
REMARK                            x       y       z     vdW  Elec       q    Type
REMARK                         _______ _______ _______ _____ _____    ______ ____
ROOT
ATOM      1  O   UNL     1     -37.756  20.760   0.557  0.00  0.00    -0.272 OA
ATOM      2  O   UNL     1     -37.070  24.514   4.367  0.00  0.00    -0.272 OA
ATOM      3  N   UNL     1     -38.425  22.718   1.571  0.00  0.00    -0.260 N 
ATOM      4  N   UNL     1     -36.322  22.577   3.314  0.00  0.00    -0.261 N 
ATOM      5  C   UNL     1     -38.095  23.952   2.282  0.00  0.00    +0.173 C 
ATOM      6  C   UNL     1     -39.843  22.659   1.178  0.00  0.00    +0.126 C 
ATOM      7  C   UNL     1     -39.457  24.442   2.813  0.00  0.00    +0.061 C 
ATOM      8  C   UNL     1     -40.375  23.954   1.740  0.00  0.00    -0.021 C 
ATOM      9  C   UNL     1     -36.176  21.819   2.044  0.00  0.00    +0.196 C 
ATOM     10  C   UNL     1     -40.118  22.509  -0.335  0.00  0.00    +0.154 C 
ATOM     11  C   UNL     1     -37.528  21.692   1.331  0.00  0.00    +0.255 C 
ATOM     12  C   UNL     1     -37.140  23.707   3.436  0.00  0.00    +0.253 C 
ATOM     13  C   UNL     1     -41.379  24.637   1.175  0.00  0.00    -0.007 C 
ATOM     14  C   UNL     1     -41.400  23.189  -0.766  0.00  0.00    +0.005 C 
ATOM     15  C   UNL     1     -41.993  24.142  -0.032  0.00  0.00    -0.003 C 
ATOM     16  C   UNL     1     -35.576  22.123   4.489  0.00  0.00    +0.116 C 
ENDROOT
BRANCH   5  17
ATOM     17  S   UNL     1     -37.388  25.232   1.180  0.00  0.00    -0.114 S 
ATOM     18  C   UNL     1     -38.129  26.676   1.972  0.00  0.00    +0.071 C 
ENDBRANCH   5  17
BRANCH   9  19
ATOM     19  S   UNL     1     -34.991  22.626   0.901  0.00  0.00    -0.112 S 
ATOM     20  C   UNL     1     -33.987  21.175   0.525  0.00  0.00    +0.071 C 
ENDBRANCH   9  19
BRANCH  10  21
ATOM     21  O   UNL     1     -40.281  21.124  -0.645  0.00  0.00    -0.378 OA
ATOM     22  H   UNL     1     -39.514  20.628  -0.318  0.00  0.00    +0.211 HD
ENDBRANCH  10  21
BRANCH   9  23
ATOM     23  C   UNL     1     -35.641  20.387   2.274  0.00  0.00    +0.175 C 
BRANCH  23  24
ATOM     24  O   UNL     1     -36.708  19.601   2.754  0.00  0.00    -0.379 OA
ATOM     25  H   UNL     1     -37.503  20.149   2.834  0.00  0.00    +0.211 HD
ENDBRANCH  23  24
ENDBRANCH   9  23
TORSDOF 5
ENDMDL
MODEL 6
REMARK VINA RESULT:      -5.1      2.863      4.479
REMARK  Name = 194564
REMARK  5 active torsions:
REMARK  status: ('A' for Active; 'I' for Inactive)
REMARK    1  A    between atoms: C_5  and  S_17
REMARK    2  A    between atoms: C_9  and  S_19
REMARK    3  A    between atoms: C_9  and  C_23
REMARK    4  A    between atoms: C_10  and  O_21
REMARK    5  A    between atoms: C_23  and  O_24
REMARK                            x       y       z     vdW  Elec       q    Type
REMARK                         _______ _______ _______ _____ _____    ______ ____
ROOT
ATOM      1  O   UNL     1     -38.393  26.625   2.953  0.00  0.00    -0.272 OA
ATOM      2  O   UNL     1     -38.295  21.770   0.607  0.00  0.00    -0.272 OA
ATOM      3  N   UNL     1     -37.458  24.529   2.744  0.00  0.00    -0.260 N 
ATOM      4  N   UNL     1     -39.209  23.908   0.737  0.00  0.00    -0.261 N 
ATOM      5  C   UNL     1     -37.105  23.378   1.916  0.00  0.00    +0.173 C 
ATOM      6  C   UNL     1     -36.892  24.440   4.100  0.00  0.00    +0.126 C 
ATOM      7  C   UNL     1     -36.748  22.285   2.944  0.00  0.00    +0.061 C 
ATOM      8  C   UNL     1     -36.181  23.110   4.053  0.00  0.00    -0.021 C 
ATOM      9  C   UNL     1     -38.979  25.355   0.985  0.00  0.00    +0.196 C 
ATOM     10  C   UNL     1     -35.959  25.599   4.519  0.00  0.00    +0.154 C 
ATOM     11  C   UNL     1     -38.273  25.569   2.329  0.00  0.00    +0.255 C 
ATOM     12  C   UNL     1     -38.264  22.922   1.048  0.00  0.00    +0.253 C 
ATOM     13  C   UNL     1     -35.071  22.850   4.756  0.00  0.00    -0.007 C 
ATOM     14  C   UNL     1     -34.868  25.155   5.470  0.00  0.00    +0.005 C 
ATOM     15  C   UNL     1     -34.500  23.871   5.598  0.00  0.00    -0.003 C 
ATOM     16  C   UNL     1     -40.481  23.494   0.141  0.00  0.00    +0.116 C 
ENDROOT
BRANCH   5  17
ATOM     17  S   UNL     1     -35.648  23.696   0.853  0.00  0.00    -0.114 S 
ATOM     18  C   UNL     1     -34.895  22.060   0.971  0.00  0.00    +0.071 C 
ENDBRANCH   5  17
BRANCH   9  19
ATOM     19  S   UNL     1     -37.959  26.118  -0.334  0.00  0.00    -0.112 S 
ATOM     20  C   UNL     1     -38.841  27.688  -0.447  0.00  0.00    +0.071 C 
ENDBRANCH   9  19
BRANCH  10  21
ATOM     21  O   UNL     1     -36.721  26.580   5.224  0.00  0.00    -0.378 OA
ATOM     22  H   UNL     1     -36.367  27.463   5.031  0.00  0.00    +0.211 HD
ENDBRANCH  10  21
BRANCH   9  23
ATOM     23  C   UNL     1     -40.299  26.160   1.026  0.00  0.00    +0.175 C 
BRANCH  23  24
ATOM     24  O   UNL     1     -40.911  25.921   2.272  0.00  0.00    -0.379 OA
ATOM     25  H   UNL     1     -41.702  25.374   2.145  0.00  0.00    +0.211 HD
ENDBRANCH  23  24
ENDBRANCH   9  23
TORSDOF 5
ENDMDL
MODEL 7
REMARK VINA RESULT:      -5.1      9.959     12.497
REMARK  Name = 194564
REMARK  5 active torsions:
REMARK  status: ('A' for Active; 'I' for Inactive)
REMARK    1  A    between atoms: C_5  and  S_17
REMARK    2  A    between atoms: C_9  and  S_19
REMARK    3  A    between atoms: C_9  and  C_23
REMARK    4  A    between atoms: C_10  and  O_21
REMARK    5  A    between atoms: C_23  and  O_24
REMARK                            x       y       z     vdW  Elec       q    Type
REMARK                         _______ _______ _______ _____ _____    ______ ____
ROOT
ATOM      1  O   UNL     1     -43.599  30.384   5.253  0.00  0.00    -0.272 OA
ATOM      2  O   UNL     1     -47.202  26.926   7.286  0.00  0.00    -0.272 OA
ATOM      3  N   UNL     1     -44.839  28.452   5.058  0.00  0.00    -0.260 N 
ATOM      4  N   UNL     1     -46.023  28.925   7.478  0.00  0.00    -0.261 N 
ATOM      5  C   UNL     1     -46.062  27.700   5.333  0.00  0.00    +0.173 C 
ATOM      6  C   UNL     1     -43.948  27.750   4.120  0.00  0.00    +0.126 C 
ATOM      7  C   UNL     1     -45.687  26.249   4.970  0.00  0.00    +0.061 C 
ATOM      8  C   UNL     1     -44.712  26.475   3.861  0.00  0.00    -0.021 C 
ATOM      9  C   UNL     1     -45.441  30.106   6.789  0.00  0.00    +0.196 C 
ATOM     10  C   UNL     1     -43.604  28.511   2.819  0.00  0.00    +0.154 C 
ATOM     11  C   UNL     1     -44.520  29.665   5.644  0.00  0.00    +0.255 C 
ATOM     12  C   UNL     1     -46.468  27.787   6.794  0.00  0.00    +0.253 C 
ATOM     13  C   UNL     1     -44.657  25.814   2.698  0.00  0.00    -0.007 C 
ATOM     14  C   UNL     1     -43.389  27.587   1.640  0.00  0.00    +0.005 C 
ATOM     15  C   UNL     1     -43.847  26.325   1.620  0.00  0.00    -0.003 C 
ATOM     16  C   UNL     1     -46.138  28.953   8.937  0.00  0.00    +0.116 C 
ENDROOT
BRANCH   5  17
ATOM     17  S   UNL     1     -47.467  28.234   4.288  0.00  0.00    -0.114 S 
ATOM     18  C   UNL     1     -48.258  26.622   4.096  0.00  0.00    +0.071 C 
ENDBRANCH   5  17
BRANCH   9  19
ATOM     19  S   UNL     1     -46.739  31.201   6.099  0.00  0.00    -0.112 S 
ATOM     20  C   UNL     1     -46.993  32.229   7.560  0.00  0.00    +0.071 C 
ENDBRANCH   9  19
BRANCH  10  21
ATOM     21  O   UNL     1     -42.372  29.212   3.001  0.00  0.00    -0.378 OA
ATOM     22  H   UNL     1     -41.873  29.208   2.168  0.00  0.00    +0.211 HD
ENDBRANCH  10  21
BRANCH   9  23
ATOM     23  C   UNL     1     -44.600  30.986   7.743  0.00  0.00    +0.175 C 
BRANCH  23  24
ATOM     24  O   UNL     1     -43.363  30.342   7.944  0.00  0.00    -0.379 OA
ATOM     25  H   UNL     1     -42.828  30.856   8.569  0.00  0.00    +0.211 HD
ENDBRANCH  23  24
ENDBRANCH   9  23
TORSDOF 5
ENDMDL
MODEL 8
REMARK VINA RESULT:      -4.9      3.326      5.042
REMARK  Name = 194564
REMARK  5 active torsions:
REMARK  status: ('A' for Active; 'I' for Inactive)
REMARK    1  A    between atoms: C_5  and  S_17
REMARK    2  A    between atoms: C_9  and  S_19
REMARK    3  A    between atoms: C_9  and  C_23
REMARK    4  A    between atoms: C_10  and  O_21
REMARK    5  A    between atoms: C_23  and  O_24
REMARK                            x       y       z     vdW  Elec       q    Type
REMARK                         _______ _______ _______ _____ _____    ______ ____
ROOT
ATOM      1  O   UNL     1     -38.210  18.343  -0.292  0.00  0.00    -0.272 OA
ATOM      2  O   UNL     1     -32.934  17.577   0.522  0.00  0.00    -0.272 OA
ATOM      3  N   UNL     1     -36.188  19.090   0.524  0.00  0.00    -0.260 N 
ATOM      4  N   UNL     1     -34.945  16.830  -0.385  0.00  0.00    -0.261 N 
ATOM      5  C   UNL     1     -34.730  19.151   0.431  0.00  0.00    +0.173 C 
ATOM      6  C   UNL     1     -36.724  20.002   1.548  0.00  0.00    +0.126 C 
ATOM      7  C   UNL     1     -34.302  19.727   1.796  0.00  0.00    +0.061 C 
ATOM      8  C   UNL     1     -35.464  20.613   2.110  0.00  0.00    -0.021 C 
ATOM      9  C   UNL     1     -36.229  17.183  -1.043  0.00  0.00    +0.196 C 
ATOM     10  C   UNL     1     -37.727  21.065   1.046  0.00  0.00    +0.154 C 
ATOM     11  C   UNL     1     -36.983  18.240  -0.226  0.00  0.00    +0.255 C 
ATOM     12  C   UNL     1     -34.114  17.779   0.224  0.00  0.00    +0.253 C 
ATOM     13  C   UNL     1     -35.409  21.860   2.595  0.00  0.00    -0.007 C 
ATOM     14  C   UNL     1     -37.656  22.354   1.836  0.00  0.00    +0.005 C 
ATOM     15  C   UNL     1     -36.591  22.686   2.582  0.00  0.00    -0.003 C 
ATOM     16  C   UNL     1     -34.528  15.426  -0.373  0.00  0.00    +0.116 C 
ENDROOT
BRANCH   5  17
ATOM     17  S   UNL     1     -34.156  20.273  -0.897  0.00  0.00    -0.114 S 
ATOM     18  C   UNL     1     -32.670  20.887  -0.075  0.00  0.00    +0.071 C 
ENDBRANCH   5  17
BRANCH   9  19
ATOM     19  S   UNL     1     -35.970  17.836  -2.736  0.00  0.00    -0.112 S 
ATOM     20  C   UNL     1     -37.322  16.956  -3.546  0.00  0.00    +0.071 C 
ENDBRANCH   9  19
BRANCH  10  21
ATOM     21  O   UNL     1     -39.056  20.570   1.217  0.00  0.00    -0.378 OA
ATOM     22  H   UNL     1     -39.024  19.701   1.647  0.00  0.00    +0.211 HD
ENDBRANCH  10  21
BRANCH   9  23
ATOM     23  C   UNL     1     -37.167  15.963  -1.192  0.00  0.00    +0.175 C 
BRANCH  23  24
ATOM     24  O   UNL     1     -37.742  15.705   0.068  0.00  0.00    -0.379 OA
ATOM     25  H   UNL     1     -38.198  14.849   0.047  0.00  0.00    +0.211 HD
ENDBRANCH  23  24
ENDBRANCH   9  23
TORSDOF 5
ENDMDL
MODEL 9
REMARK VINA RESULT:      -4.9      5.235      7.600
REMARK  Name = 194564
REMARK  5 active torsions:
REMARK  status: ('A' for Active; 'I' for Inactive)
REMARK    1  A    between atoms: C_5  and  S_17
REMARK    2  A    between atoms: C_9  and  S_19
REMARK    3  A    between atoms: C_9  and  C_23
REMARK    4  A    between atoms: C_10  and  O_21
REMARK    5  A    between atoms: C_23  and  O_24
REMARK                            x       y       z     vdW  Elec       q    Type
REMARK                         _______ _______ _______ _____ _____    ______ ____
ROOT
ATOM      1  O   UNL     1     -36.692  27.736   2.112  0.00  0.00    -0.272 OA
ATOM      2  O   UNL     1     -32.173  27.460   5.042  0.00  0.00    -0.272 OA
ATOM      3  N   UNL     1     -34.732  28.697   2.851  0.00  0.00    -0.260 N 
ATOM      4  N   UNL     1     -34.106  26.431   4.249  0.00  0.00    -0.261 N 
ATOM      5  C   UNL     1     -33.338  28.566   3.272  0.00  0.00    +0.173 C 
ATOM      6  C   UNL     1     -35.141  30.103   2.697  0.00  0.00    +0.126 C 
ATOM      7  C   UNL     1     -33.019  29.933   3.909  0.00  0.00    +0.061 C 
ATOM      8  C   UNL     1     -33.885  30.838   3.093  0.00  0.00    -0.021 C 
ATOM      9  C   UNL     1     -35.067  26.267   3.128  0.00  0.00    +0.196 C 
ATOM     10  C   UNL     1     -35.649  30.507   1.294  0.00  0.00    +0.154 C 
ATOM     11  C   UNL     1     -35.595  27.631   2.664  0.00  0.00    +0.255 C 
ATOM     12  C   UNL     1     -33.153  27.457   4.292  0.00  0.00    +0.253 C 
ATOM     13  C   UNL     1     -33.538  32.024   2.576  0.00  0.00    -0.007 C 
ATOM     14  C   UNL     1     -35.332  31.946   0.950  0.00  0.00    +0.005 C 
ATOM     15  C   UNL     1     -34.379  32.647   1.585  0.00  0.00    -0.003 C 
ATOM     16  C   UNL     1     -34.157  25.478   5.359  0.00  0.00    +0.116 C 
ENDROOT
BRANCH   5  17
ATOM     17  S   UNL     1     -32.202  28.283   1.865  0.00  0.00    -0.114 S 
ATOM     18  C   UNL     1     -30.790  29.215   2.497  0.00  0.00    +0.071 C 
ENDBRANCH   5  17
BRANCH   9  19
ATOM     19  S   UNL     1     -34.301  25.423   1.692  0.00  0.00    -0.112 S 
ATOM     20  C   UNL     1     -35.060  23.803   1.928  0.00  0.00    +0.071 C 
ENDBRANCH   9  19
BRANCH  10  21
ATOM     21  O   UNL     1     -37.073  30.399   1.264  0.00  0.00    -0.378 OA
ATOM     22  H   UNL     1     -37.342  29.886   0.485  0.00  0.00    +0.211 HD
ENDBRANCH  10  21
BRANCH   9  23
ATOM     23  C   UNL     1     -36.292  25.411   3.525  0.00  0.00    +0.175 C 
BRANCH  23  24
ATOM     24  O   UNL     1     -37.147  26.218   4.301  0.00  0.00    -0.379 OA
ATOM     25  H   UNL     1     -37.210  27.100   3.903  0.00  0.00    +0.211 HD
ENDBRANCH  23  24
ENDBRANCH   9  23
TORSDOF 5
ENDMDL
