MODEL 1
REMARK VINA RESULT:      -4.7      0.000      0.000
REMARK  Name = 54177449
REMARK  8 active torsions:
REMARK  status: ('A' for Active; 'I' for Inactive)
REMARK    1  A    between atoms: CA_1  and  N_3
REMARK    2  A    between atoms: CA_1  and  C_9
REMARK    3  A    between atoms: CA_1  and  CB_17
REMARK    4  A    between atoms: N_8  and  CA_11
REMARK    5  A    between atoms: CA_11  and  C_14
REMARK    6  A    between atoms: C_14  and  O_15
REMARK    7  A    between atoms: CB_17  and  CG_18
REMARK    8  A    between atoms: CG_18  and  SD_19
REMARK                            x       y       z     vdW  Elec       q    Type
REMARK                         _______ _______ _______ _____ _____    ______ ____
ROOT
ATOM      1  CA  MET A   1     -37.386  24.622   3.485  0.00  0.00    +0.149 C 
ENDROOT
BRANCH   1   3
ATOM      2  O   UNK A   0     -38.943  26.573   2.003  0.00  0.00    -0.275 OA
ATOM      3  N   MET A   1     -38.760  24.993   3.703  0.00  0.00    -0.298 N 
ATOM      4  C   UNK A   0     -39.424  25.943   2.940  0.00  0.00    +0.223 C 
ATOM      5  C   UNK A   0     -40.857  26.119   3.365  0.00  0.00    +0.095 C 
ATOM      6  H   MET A   1     -39.253  24.551   4.432  0.00  0.00    +0.150 HD
ENDBRANCH   1   3
BRANCH   1   9
ATOM      7  O   MET A   1     -38.346  22.590   2.576  0.00  0.00    -0.273 OA
ATOM      8  N   ALA A   2     -36.068  22.957   2.326  0.00  0.00    -0.295 N 
ATOM      9  C   MET A   1     -37.349  23.289   2.745  0.00  0.00    +0.241 C 
ATOM     10  H   ALA A   2     -35.333  23.586   2.509  0.00  0.00    +0.150 HD
BRANCH   8  11
ATOM     11  CA  ALA A   2     -35.769  21.727   1.630  0.00  0.00    +0.171 C 
ATOM     12  CB  ALA A   2     -34.429  21.827   0.919  0.00  0.00    +0.033 C 
BRANCH  11  14
ATOM     13  OXT ALA A   2     -34.854  20.266   3.324  0.00  0.00    -0.248 OA
ATOM     14  C   ALA A   2     -35.782  20.532   2.569  0.00  0.00    +0.332 C 
BRANCH  14  15
ATOM     15  O   ALA A   2     -36.902  19.772   2.502  0.00  0.00    -0.479 OA
ATOM     16  H   ALA A   2     -36.873  18.931   2.088  0.00  0.00    +0.295 HD
ENDBRANCH  14  15
ENDBRANCH  11  14
ENDBRANCH   8  11
ENDBRANCH   1   9
BRANCH   1  17
ATOM     17  CB  MET A   1     -36.577  24.600   4.790  0.00  0.00    +0.041 C 
BRANCH  17  18
ATOM     18  CG  MET A   1     -35.823  25.903   5.067  0.00  0.00    +0.060 C 
BRANCH  18  19
ATOM     19  SD  MET A   1     -35.247  26.650   3.514  0.00  0.00    -0.139 S 
ATOM     20  CE  MET A   1     -33.741  25.675   3.299  0.00  0.00    +0.069 C 
ENDBRANCH  18  19
ENDBRANCH  17  18
ENDBRANCH   1  17
TORSDOF 8
ENDMDL
MODEL 2
REMARK VINA RESULT:      -4.6      2.974      4.628
REMARK  Name = 54177449
REMARK  8 active torsions:
REMARK  status: ('A' for Active; 'I' for Inactive)
REMARK    1  A    between atoms: CA_1  and  N_3
REMARK    2  A    between atoms: CA_1  and  C_9
REMARK    3  A    between atoms: CA_1  and  CB_17
REMARK    4  A    between atoms: N_8  and  CA_11
REMARK    5  A    between atoms: CA_11  and  C_14
REMARK    6  A    between atoms: C_14  and  O_15
REMARK    7  A    between atoms: CB_17  and  CG_18
REMARK    8  A    between atoms: CG_18  and  SD_19
REMARK                            x       y       z     vdW  Elec       q    Type
REMARK                         _______ _______ _______ _____ _____    ______ ____
ROOT
ATOM      1  CA  MET A   1     -37.396  20.901   1.757  0.00  0.00    +0.149 C 
ENDROOT
BRANCH   1   3
ATOM      2  O   UNK A   0     -40.276  21.163   2.005  0.00  0.00    -0.275 OA
ATOM      3  N   MET A   1     -38.166  22.117   1.771  0.00  0.00    -0.298 N 
ATOM      4  C   UNK A   0     -39.547  22.145   1.894  0.00  0.00    +0.223 C 
ATOM      5  C   UNK A   0     -40.094  23.547   1.906  0.00  0.00    +0.095 C 
ATOM      6  H   MET A   1     -37.687  22.974   1.689  0.00  0.00    +0.150 HD
ENDBRANCH   1   3
BRANCH   1   9
ATOM      7  O   MET A   1     -35.247  20.282   2.693  0.00  0.00    -0.273 OA
ATOM      8  N   ALA A   2     -36.301  22.192   3.484  0.00  0.00    -0.295 N 
ATOM      9  C   MET A   1     -36.188  21.072   2.672  0.00  0.00    +0.241 C 
ATOM     10  H   ALA A   2     -37.096  22.765   3.391  0.00  0.00    +0.150 HD
BRANCH   8  11
ATOM     11  CA  ALA A   2     -35.299  22.552   4.461  0.00  0.00    +0.171 C 
ATOM     12  CB  ALA A   2     -35.309  24.052   4.710  0.00  0.00    +0.033 C 
BRANCH  11  14
ATOM     13  OXT ALA A   2     -35.996  22.301   6.761  0.00  0.00    -0.248 OA
ATOM     14  C   ALA A   2     -35.488  21.797   5.766  0.00  0.00    +0.332 C 
BRANCH  14  15
ATOM     15  O   ALA A   2     -35.042  20.518   5.750  0.00  0.00    -0.479 OA
ATOM     16  H   ALA A   2     -34.186  20.316   6.075  0.00  0.00    +0.295 HD
ENDBRANCH  14  15
ENDBRANCH  11  14
ENDBRANCH   8  11
ENDBRANCH   1   9
BRANCH   1  17
ATOM     17  CB  MET A   1     -37.007  20.477   0.333  0.00  0.00    +0.041 C 
BRANCH  17  18
ATOM     18  CG  MET A   1     -36.659  21.652  -0.584  0.00  0.00    +0.060 C 
BRANCH  18  19
ATOM     19  SD  MET A   1     -34.877  21.676  -0.941  0.00  0.00    -0.139 S 
ATOM     20  CE  MET A   1     -34.556  19.905  -0.785  0.00  0.00    +0.069 C 
ENDBRANCH  18  19
ENDBRANCH  17  18
ENDBRANCH   1  17
TORSDOF 8
ENDMDL
MODEL 3
REMARK VINA RESULT:      -4.6      2.580      3.987
REMARK  Name = 54177449
REMARK  8 active torsions:
REMARK  status: ('A' for Active; 'I' for Inactive)
REMARK    1  A    between atoms: CA_1  and  N_3
REMARK    2  A    between atoms: CA_1  and  C_9
REMARK    3  A    between atoms: CA_1  and  CB_17
REMARK    4  A    between atoms: N_8  and  CA_11
REMARK    5  A    between atoms: CA_11  and  C_14
REMARK    6  A    between atoms: C_14  and  O_15
REMARK    7  A    between atoms: CB_17  and  CG_18
REMARK    8  A    between atoms: CG_18  and  SD_19
REMARK                            x       y       z     vdW  Elec       q    Type
REMARK                         _______ _______ _______ _____ _____    ______ ____
ROOT
ATOM      1  CA  MET A   1     -36.615  23.913   3.413  0.00  0.00    +0.149 C 
ENDROOT
BRANCH   1   3
ATOM      2  O   UNK A   0     -34.835  24.084   5.700  0.00  0.00    -0.275 OA
ATOM      3  N   MET A   1     -36.403  22.919   4.433  0.00  0.00    -0.298 N 
ATOM      4  C   UNK A   0     -35.526  23.090   5.494  0.00  0.00    +0.223 C 
ATOM      5  C   UNK A   0     -35.516  21.908   6.427  0.00  0.00    +0.095 C 
ATOM      6  H   MET A   1     -36.906  22.075   4.374  0.00  0.00    +0.150 HD
ENDBRANCH   1   3
BRANCH   1   9
ATOM      7  O   MET A   1     -39.010  24.281   3.509  0.00  0.00    -0.273 OA
ATOM      8  N   ALA A   2     -38.136  23.074   1.730  0.00  0.00    -0.295 N 
ATOM      9  C   MET A   1     -38.050  23.801   2.909  0.00  0.00    +0.241 C 
ATOM     10  H   ALA A   2     -37.307  22.731   1.325  0.00  0.00    +0.150 HD
BRANCH   8  11
ATOM     11  CA  ALA A   2     -39.393  22.802   1.071  0.00  0.00    +0.171 C 
ATOM     12  CB  ALA A   2     -39.339  23.237  -0.385  0.00  0.00    +0.033 C 
BRANCH  11  14
ATOM     13  OXT ALA A   2     -39.593  20.534   0.261  0.00  0.00    -0.248 OA
ATOM     14  C   ALA A   2     -39.774  21.335   1.171  0.00  0.00    +0.332 C 
BRANCH  14  15
ATOM     15  O   ALA A   2     -40.343  20.977   2.347  0.00  0.00    -0.479 OA
ATOM     16  H   ALA A   2     -41.137  21.389   2.629  0.00  0.00    +0.295 HD
ENDBRANCH  14  15
ENDBRANCH  11  14
ENDBRANCH   8  11
ENDBRANCH   1   9
BRANCH   1  17
ATOM     17  CB  MET A   1     -35.579  23.815   2.284  0.00  0.00    +0.041 C 
BRANCH  17  18
ATOM     18  CG  MET A   1     -34.595  24.987   2.251  0.00  0.00    +0.060 C 
BRANCH  18  19
ATOM     19  SD  MET A   1     -35.334  26.463   3.011  0.00  0.00    -0.139 S 
ATOM     20  CE  MET A   1     -33.891  27.027   3.940  0.00  0.00    +0.069 C 
ENDBRANCH  18  19
ENDBRANCH  17  18
ENDBRANCH   1  17
TORSDOF 8
ENDMDL
MODEL 4
REMARK VINA RESULT:      -4.5      2.799      4.188
REMARK  Name = 54177449
REMARK  8 active torsions:
REMARK  status: ('A' for Active; 'I' for Inactive)
REMARK    1  A    between atoms: CA_1  and  N_3
REMARK    2  A    between atoms: CA_1  and  C_9
REMARK    3  A    between atoms: CA_1  and  CB_17
REMARK    4  A    between atoms: N_8  and  CA_11
REMARK    5  A    between atoms: CA_11  and  C_14
REMARK    6  A    between atoms: C_14  and  O_15
REMARK    7  A    between atoms: CB_17  and  CG_18
REMARK    8  A    between atoms: CG_18  and  SD_19
REMARK                            x       y       z     vdW  Elec       q    Type
REMARK                         _______ _______ _______ _____ _____    ______ ____
ROOT
ATOM      1  CA  MET A   1     -35.735  26.108   3.548  0.00  0.00    +0.149 C 
ENDROOT
BRANCH   1   3
ATOM      2  O   UNK A   0     -33.288  25.068   4.714  0.00  0.00    -0.275 OA
ATOM      3  N   MET A   1     -35.010  26.634   4.676  0.00  0.00    -0.298 N 
ATOM      4  C   UNK A   0     -33.843  26.065   5.166  0.00  0.00    +0.223 C 
ATOM      5  C   UNK A   0     -33.280  26.829   6.334  0.00  0.00    +0.095 C 
ATOM      6  H   MET A   1     -35.362  27.437   5.124  0.00  0.00    +0.150 HD
ENDBRANCH   1   3
BRANCH   1   9
ATOM      7  O   MET A   1     -37.536  24.743   4.425  0.00  0.00    -0.273 OA
ATOM      8  N   ALA A   2     -35.565  23.706   3.773  0.00  0.00    -0.295 N 
ATOM      9  C   MET A   1     -36.400  24.799   3.958  0.00  0.00    +0.241 C 
ATOM     10  H   ALA A   2     -34.670  23.855   3.390  0.00  0.00    +0.150 HD
BRANCH   8  11
ATOM     11  CA  ALA A   2     -35.956  22.358   4.117  0.00  0.00    +0.171 C 
ATOM     12  CB  ALA A   2     -35.537  21.385   3.027  0.00  0.00    +0.033 C 
BRANCH  11  14
ATOM     13  OXT ALA A   2     -35.102  22.726   6.348  0.00  0.00    -0.248 OA
ATOM     14  C   ALA A   2     -35.382  21.931   5.458  0.00  0.00    +0.332 C 
BRANCH  14  15
ATOM     15  O   ALA A   2     -35.191  20.597   5.593  0.00  0.00    -0.479 OA
ATOM     16  H   ALA A   2     -35.467  20.161   6.375  0.00  0.00    +0.295 HD
ENDBRANCH  14  15
ENDBRANCH  11  14
ENDBRANCH   8  11
ENDBRANCH   1   9
BRANCH   1  17
ATOM     17  CB  MET A   1     -34.845  25.960   2.306  0.00  0.00    +0.041 C 
BRANCH  17  18
ATOM     18  CG  MET A   1     -35.568  26.264   0.992  0.00  0.00    +0.060 C 
BRANCH  18  19
ATOM     19  SD  MET A   1     -36.890  27.483   1.258  0.00  0.00    -0.139 S 
ATOM     20  CE  MET A   1     -38.304  26.414   0.905  0.00  0.00    +0.069 C 
ENDBRANCH  18  19
ENDBRANCH  17  18
ENDBRANCH   1  17
TORSDOF 8
ENDMDL
MODEL 5
REMARK VINA RESULT:      -4.5      4.228      6.294
REMARK  Name = 54177449
REMARK  8 active torsions:
REMARK  status: ('A' for Active; 'I' for Inactive)
REMARK    1  A    between atoms: CA_1  and  N_3
REMARK    2  A    between atoms: CA_1  and  C_9
REMARK    3  A    between atoms: CA_1  and  CB_17
REMARK    4  A    between atoms: N_8  and  CA_11
REMARK    5  A    between atoms: CA_11  and  C_14
REMARK    6  A    between atoms: C_14  and  O_15
REMARK    7  A    between atoms: CB_17  and  CG_18
REMARK    8  A    between atoms: CG_18  and  SD_19
REMARK                            x       y       z     vdW  Elec       q    Type
REMARK                         _______ _______ _______ _____ _____    ______ ____
ROOT
ATOM      1  CA  MET A   1     -34.981  25.185   4.120  0.00  0.00    +0.149 C 
ENDROOT
BRANCH   1   3
ATOM      2  O   UNK A   0     -36.439  22.689   4.384  0.00  0.00    -0.275 OA
ATOM      3  N   MET A   1     -34.844  24.198   5.159  0.00  0.00    -0.298 N 
ATOM      4  C   UNK A   0     -35.589  23.028   5.203  0.00  0.00    +0.223 C 
ATOM      5  C   UNK A   0     -35.229  22.163   6.380  0.00  0.00    +0.095 C 
ATOM      6  H   MET A   1     -34.188  24.361   5.875  0.00  0.00    +0.150 HD
ENDBRANCH   1   3
BRANCH   1   9
ATOM      7  O   MET A   1     -32.747  25.553   3.252  0.00  0.00    -0.273 OA
ATOM      8  N   ALA A   2     -33.611  27.065   4.786  0.00  0.00    -0.295 N 
ATOM      9  C   MET A   1     -33.661  25.936   3.979  0.00  0.00    +0.241 C 
ATOM     10  H   ALA A   2     -34.398  27.289   5.333  0.00  0.00    +0.150 HD
BRANCH   8  11
ATOM     11  CA  ALA A   2     -32.453  27.925   4.854  0.00  0.00    +0.171 C 
ATOM     12  CB  ALA A   2     -32.714  29.233   4.122  0.00  0.00    +0.033 C 
BRANCH  11  14
ATOM     13  OXT ALA A   2     -31.849  29.325   6.729  0.00  0.00    -0.248 OA
ATOM     14  C   ALA A   2     -32.037  28.196   6.289  0.00  0.00    +0.332 C 
BRANCH  14  15
ATOM     15  O   ALA A   2     -31.878  27.087   7.052  0.00  0.00    -0.479 OA
ATOM     16  H   ALA A   2     -31.029  26.861   7.378  0.00  0.00    +0.295 HD
ENDBRANCH  14  15
ENDBRANCH  11  14
ENDBRANCH   8  11
ENDBRANCH   1   9
BRANCH   1  17
ATOM     17  CB  MET A   1     -36.174  26.120   4.362  0.00  0.00    +0.041 C 
BRANCH  17  18
ATOM     18  CG  MET A   1     -37.328  25.910   3.379  0.00  0.00    +0.060 C 
BRANCH  18  19
ATOM     19  SD  MET A   1     -37.015  26.803   1.827  0.00  0.00    -0.139 S 
ATOM     20  CE  MET A   1     -36.659  25.379   0.774  0.00  0.00    +0.069 C 
ENDBRANCH  18  19
ENDBRANCH  17  18
ENDBRANCH   1  17
TORSDOF 8
ENDMDL
MODEL 6
REMARK VINA RESULT:      -4.5      3.211      5.055
REMARK  Name = 54177449
REMARK  8 active torsions:
REMARK  status: ('A' for Active; 'I' for Inactive)
REMARK    1  A    between atoms: CA_1  and  N_3
REMARK    2  A    between atoms: CA_1  and  C_9
REMARK    3  A    between atoms: CA_1  and  CB_17
REMARK    4  A    between atoms: N_8  and  CA_11
REMARK    5  A    between atoms: CA_11  and  C_14
REMARK    6  A    between atoms: C_14  and  O_15
REMARK    7  A    between atoms: CB_17  and  CG_18
REMARK    8  A    between atoms: CG_18  and  SD_19
REMARK                            x       y       z     vdW  Elec       q    Type
REMARK                         _______ _______ _______ _____ _____    ______ ____
ROOT
ATOM      1  CA  MET A   1     -36.275  22.892   2.912  0.00  0.00    +0.149 C 
ENDROOT
BRANCH   1   3
ATOM      2  O   UNK A   0     -34.547  23.722   5.092  0.00  0.00    -0.275 OA
ATOM      3  N   MET A   1     -36.195  22.321   4.232  0.00  0.00    -0.298 N 
ATOM      4  C   UNK A   0     -35.333  22.787   5.214  0.00  0.00    +0.223 C 
ATOM      5  C   UNK A   0     -35.472  22.027   6.506  0.00  0.00    +0.095 C 
ATOM      6  H   MET A   1     -36.782  21.561   4.448  0.00  0.00    +0.150 HD
ENDBRANCH   1   3
BRANCH   1   9
ATOM      7  O   MET A   1     -38.524  23.713   3.294  0.00  0.00    -0.273 OA
ATOM      8  N   ALA A   2     -38.084  22.528   1.348  0.00  0.00    -0.295 N 
ATOM      9  C   MET A   1     -37.742  23.111   2.560  0.00  0.00    +0.241 C 
ATOM     10  H   ALA A   2     -37.383  22.068   0.832  0.00  0.00    +0.150 HD
BRANCH   8  11
ATOM     11  CA  ALA A   2     -39.424  22.571   0.811  0.00  0.00    +0.171 C 
ATOM     12  CB  ALA A   2     -39.466  23.406  -0.459  0.00  0.00    +0.033 C 
BRANCH  11  14
ATOM     13  OXT ALA A   2     -41.162  20.947   0.381  0.00  0.00    -0.248 OA
ATOM     14  C   ALA A   2     -39.969  21.177   0.547  0.00  0.00    +0.332 C 
BRANCH  14  15
ATOM     15  O   ALA A   2     -39.032  20.199   0.517  0.00  0.00    -0.479 OA
ATOM     16  H   ALA A   2     -38.303  20.267  -0.067  0.00  0.00    +0.295 HD
ENDBRANCH  14  15
ENDBRANCH  11  14
ENDBRANCH   8  11
ENDBRANCH   1   9
BRANCH   1  17
ATOM     17  CB  MET A   1     -35.533  22.045   1.869  0.00  0.00    +0.041 C 
BRANCH  17  18
ATOM     18  CG  MET A   1     -35.263  20.608   2.323  0.00  0.00    +0.060 C 
BRANCH  18  19
ATOM     19  SD  MET A   1     -34.932  19.538   0.892  0.00  0.00    -0.139 S 
ATOM     20  CE  MET A   1     -33.371  18.823   1.457  0.00  0.00    +0.069 C 
ENDBRANCH  18  19
ENDBRANCH  17  18
ENDBRANCH   1  17
TORSDOF 8
ENDMDL
MODEL 7
REMARK VINA RESULT:      -4.4      3.031      5.080
REMARK  Name = 54177449
REMARK  8 active torsions:
REMARK  status: ('A' for Active; 'I' for Inactive)
REMARK    1  A    between atoms: CA_1  and  N_3
REMARK    2  A    between atoms: CA_1  and  C_9
REMARK    3  A    between atoms: CA_1  and  CB_17
REMARK    4  A    between atoms: N_8  and  CA_11
REMARK    5  A    between atoms: CA_11  and  C_14
REMARK    6  A    between atoms: C_14  and  O_15
REMARK    7  A    between atoms: CB_17  and  CG_18
REMARK    8  A    between atoms: CG_18  and  SD_19
REMARK                            x       y       z     vdW  Elec       q    Type
REMARK                         _______ _______ _______ _____ _____    ______ ____
ROOT
ATOM      1  CA  MET A   1     -35.803  21.015   2.690  0.00  0.00    +0.149 C 
ENDROOT
BRANCH   1   3
ATOM      2  O   UNK A   0     -37.653  23.108   1.899  0.00  0.00    -0.275 OA
ATOM      3  N   MET A   1     -37.229  20.907   2.528  0.00  0.00    -0.298 N 
ATOM      4  C   UNK A   0     -38.037  21.968   2.145  0.00  0.00    +0.223 C 
ATOM      5  C   UNK A   0     -39.485  21.573   2.028  0.00  0.00    +0.095 C 
ATOM      6  H   MET A   1     -37.654  20.035   2.698  0.00  0.00    +0.150 HD
ENDBRANCH   1   3
BRANCH   1   9
ATOM      7  O   MET A   1     -35.354  21.212   5.064  0.00  0.00    -0.273 OA
ATOM      8  N   ALA A   2     -35.478  23.146   3.787  0.00  0.00    -0.295 N 
ATOM      9  C   MET A   1     -35.511  21.772   3.980  0.00  0.00    +0.241 C 
ATOM     10  H   ALA A   2     -35.614  23.498   2.877  0.00  0.00    +0.150 HD
BRANCH   8  11
ATOM     11  CA  ALA A   2     -35.251  24.081   4.864  0.00  0.00    +0.171 C 
ATOM     12  CB  ALA A   2     -33.891  24.747   4.718  0.00  0.00    +0.033 C 
BRANCH  11  14
ATOM     13  OXT ALA A   2     -36.173  26.245   5.416  0.00  0.00    -0.248 OA
ATOM     14  C   ALA A   2     -36.348  25.129   4.941  0.00  0.00    +0.332 C 
BRANCH  14  15
ATOM     15  O   ALA A   2     -37.546  24.731   4.449  0.00  0.00    -0.479 OA
ATOM     16  H   ALA A   2     -38.324  24.845   4.960  0.00  0.00    +0.295 HD
ENDBRANCH  14  15
ENDBRANCH  11  14
ENDBRANCH   8  11
ENDBRANCH   1   9
BRANCH   1  17
ATOM     17  CB  MET A   1     -35.127  21.646   1.464  0.00  0.00    +0.041 C 
BRANCH  17  18
ATOM     18  CG  MET A   1     -34.677  20.625   0.417  0.00  0.00    +0.060 C 
BRANCH  18  19
ATOM     19  SD  MET A   1     -33.773  19.259   1.204  0.00  0.00    -0.139 S 
ATOM     20  CE  MET A   1     -32.132  19.612   0.535  0.00  0.00    +0.069 C 
ENDBRANCH  18  19
ENDBRANCH  17  18
ENDBRANCH   1  17
TORSDOF 8
ENDMDL
MODEL 8
REMARK VINA RESULT:      -4.4      2.247      3.294
REMARK  Name = 54177449
REMARK  8 active torsions:
REMARK  status: ('A' for Active; 'I' for Inactive)
REMARK    1  A    between atoms: CA_1  and  N_3
REMARK    2  A    between atoms: CA_1  and  C_9
REMARK    3  A    between atoms: CA_1  and  CB_17
REMARK    4  A    between atoms: N_8  and  CA_11
REMARK    5  A    between atoms: CA_11  and  C_14
REMARK    6  A    between atoms: C_14  and  O_15
REMARK    7  A    between atoms: CB_17  and  CG_18
REMARK    8  A    between atoms: CG_18  and  SD_19
REMARK                            x       y       z     vdW  Elec       q    Type
REMARK                         _______ _______ _______ _____ _____    ______ ____
ROOT
ATOM      1  CA  MET A   1     -36.580  24.130   3.530  0.00  0.00    +0.149 C 
ENDROOT
BRANCH   1   3
ATOM      2  O   UNK A   0     -35.216  21.644   4.152  0.00  0.00    -0.275 OA
ATOM      3  N   MET A   1     -36.301  23.588   4.834  0.00  0.00    -0.298 N 
ATOM      4  C   UNK A   0     -35.640  22.385   5.035  0.00  0.00    +0.223 C 
ATOM      5  C   UNK A   0     -35.458  22.067   6.495  0.00  0.00    +0.095 C 
ATOM      6  H   MET A   1     -36.595  24.097   5.624  0.00  0.00    +0.150 HD
ENDBRANCH   1   3
BRANCH   1   9
ATOM      7  O   MET A   1     -38.589  22.890   2.977  0.00  0.00    -0.273 OA
ATOM      8  N   ALA A   2     -36.651  22.472   1.770  0.00  0.00    -0.295 N 
ATOM      9  C   MET A   1     -37.403  23.117   2.742  0.00  0.00    +0.241 C 
ATOM     10  H   ALA A   2     -35.706  22.726   1.658  0.00  0.00    +0.150 HD
BRANCH   8  11
ATOM     11  CA  ALA A   2     -37.198  21.445   0.913  0.00  0.00    +0.171 C 
ATOM     12  CB  ALA A   2     -36.921  21.764  -0.548  0.00  0.00    +0.033 C 
BRANCH  11  14
ATOM     13  OXT ALA A   2     -36.137  19.326   0.445  0.00  0.00    -0.248 OA
ATOM     14  C   ALA A   2     -36.657  20.071   1.267  0.00  0.00    +0.332 C 
BRANCH  14  15
ATOM     15  O   ALA A   2     -36.802  19.723   2.569  0.00  0.00    -0.479 OA
ATOM     16  H   ALA A   2     -36.291  19.023   2.926  0.00  0.00    +0.295 HD
ENDBRANCH  14  15
ENDBRANCH  11  14
ENDBRANCH   8  11
ENDBRANCH   1   9
BRANCH   1  17
ATOM     17  CB  MET A   1     -35.302  24.559   2.795  0.00  0.00    +0.041 C 
BRANCH  17  18
ATOM     18  CG  MET A   1     -35.056  26.069   2.819  0.00  0.00    +0.060 C 
BRANCH  18  19
ATOM     19  SD  MET A   1     -33.456  26.443   3.595  0.00  0.00    -0.139 S 
ATOM     20  CE  MET A   1     -33.952  26.250   5.322  0.00  0.00    +0.069 C 
ENDBRANCH  18  19
ENDBRANCH  17  18
ENDBRANCH   1  17
TORSDOF 8
ENDMDL
MODEL 9
REMARK VINA RESULT:      -4.4      4.491      6.202
REMARK  Name = 54177449
REMARK  8 active torsions:
REMARK  status: ('A' for Active; 'I' for Inactive)
REMARK    1  A    between atoms: CA_1  and  N_3
REMARK    2  A    between atoms: CA_1  and  C_9
REMARK    3  A    between atoms: CA_1  and  CB_17
REMARK    4  A    between atoms: N_8  and  CA_11
REMARK    5  A    between atoms: CA_11  and  C_14
REMARK    6  A    between atoms: C_14  and  O_15
REMARK    7  A    between atoms: CB_17  and  CG_18
REMARK    8  A    between atoms: CG_18  and  SD_19
REMARK                            x       y       z     vdW  Elec       q    Type
REMARK                         _______ _______ _______ _____ _____    ______ ____
ROOT
ATOM      1  CA  MET A   1     -35.490  26.410   4.179  0.00  0.00    +0.149 C 
ENDROOT
BRANCH   1   3
ATOM      2  O   UNK A   0     -35.647  28.588   2.265  0.00  0.00    -0.275 OA
ATOM      3  N   MET A   1     -35.664  26.311   2.753  0.00  0.00    -0.298 N 
ATOM      4  C   UNK A   0     -35.729  27.414   1.914  0.00  0.00    +0.223 C 
ATOM      5  C   UNK A   0     -35.888  27.026   0.468  0.00  0.00    +0.095 C 
ATOM      6  H   MET A   1     -35.741  25.415   2.353  0.00  0.00    +0.150 HD
ENDBRANCH   1   3
BRANCH   1   9
ATOM      7  O   MET A   1     -33.308  25.493   4.705  0.00  0.00    -0.273 OA
ATOM      8  N   ALA A   2     -33.538  27.796   4.525  0.00  0.00    -0.295 N 
ATOM      9  C   MET A   1     -33.999  26.487   4.488  0.00  0.00    +0.241 C 
ATOM     10  H   ALA A   2     -34.171  28.525   4.335  0.00  0.00    +0.150 HD
BRANCH   8  11
ATOM     11  CA  ALA A   2     -32.166  28.131   4.830  0.00  0.00    +0.171 C 
ATOM     12  CB  ALA A   2     -31.760  29.415   4.122  0.00  0.00    +0.033 C 
BRANCH  11  14
ATOM     13  OXT ALA A   2     -31.866  29.335   6.903  0.00  0.00    -0.248 OA
ATOM     14  C   ALA A   2     -31.936  28.256   6.326  0.00  0.00    +0.332 C 
BRANCH  14  15
ATOM     15  O   ALA A   2     -31.803  27.076   6.979  0.00  0.00    -0.479 OA
ATOM     16  H   ALA A   2     -32.498  26.448   6.957  0.00  0.00    +0.295 HD
ENDBRANCH  14  15
ENDBRANCH  11  14
ENDBRANCH   8  11
ENDBRANCH   1   9
BRANCH   1  17
ATOM     17  CB  MET A   1     -36.194  25.271   4.929  0.00  0.00    +0.041 C 
BRANCH  17  18
ATOM     18  CG  MET A   1     -36.730  24.170   4.011  0.00  0.00    +0.060 C 
BRANCH  18  19
ATOM     19  SD  MET A   1     -35.741  22.656   4.185  0.00  0.00    -0.139 S 
ATOM     20  CE  MET A   1     -35.347  22.802   5.942  0.00  0.00    +0.069 C 
ENDBRANCH  18  19
ENDBRANCH  17  18
ENDBRANCH   1  17
TORSDOF 8
ENDMDL
