MODEL 1
REMARK VINA RESULT:      -4.6      0.000      0.000
REMARK  Name = 53481622
REMARK  11 active torsions:
REMARK  status: ('A' for Active; 'I' for Inactive)
REMARK    1  A    between atoms: O_1  and  C_3
REMARK    2  A    between atoms: O_1  and  C_11
REMARK    3  A    between atoms: C_3  and  C_4
REMARK    4  A    between atoms: C_4  and  C_5
REMARK    5  A    between atoms: C_5  and  C_6
REMARK    6  A    between atoms: C_6  and  C_8
REMARK    7  A    between atoms: C_8  and  O_9
REMARK    8  A    between atoms: C_11  and  C_12
REMARK    9  A    between atoms: C_11  and  C_17
REMARK   10  A    between atoms: C_12  and  N_13
REMARK   11  A    between atoms: C_17  and  C_20
REMARK                            x       y       z     vdW  Elec       q    Type
REMARK                         _______ _______ _______ _____ _____    ______ ____
ROOT
ATOM      1  O   UNL     1     -37.516  23.482   3.624  0.00  0.00    -0.454 OA
ENDROOT
BRANCH   1   3
ATOM      2  O   UNL     1     -36.189  25.043   2.564  0.00  0.00    -0.250 OA
ATOM      3  C   UNL     1     -36.650  24.538   3.578  0.00  0.00    +0.317 C 
BRANCH   3   4
ATOM      4  C   UNL     1     -36.377  25.011   4.988  0.00  0.00    +0.110 C 
BRANCH   4   5
ATOM      5  C   UNL     1     -35.127  24.383   5.602  0.00  0.00    +0.023 C 
BRANCH   5   6
ATOM      6  C   UNL     1     -34.814  23.006   5.013  0.00  0.00    +0.110 C 
BRANCH   6   8
ATOM      7  O   UNL     1     -36.156  22.037   6.798  0.00  0.00    -0.250 OA
ATOM      8  C   UNL     1     -35.405  21.891   5.845  0.00  0.00    +0.314 C 
BRANCH   8   9
ATOM      9  O   UNL     1     -34.994  20.672   5.404  0.00  0.00    -0.480 OA
ATOM     10  H   UNL     1     -34.350  20.192   5.887  0.00  0.00    +0.295 HD
ENDBRANCH   8   9
ENDBRANCH   6   8
ENDBRANCH   5   6
ENDBRANCH   4   5
ENDBRANCH   3   4
ENDBRANCH   1   3
BRANCH   1  11
ATOM     11  C   UNL     1     -38.127  23.132   2.379  0.00  0.00    +0.160 C 
BRANCH  11  12
ATOM     12  C   UNL     1     -39.617  23.453   2.483  0.00  0.00    -0.028 C 
BRANCH  12  13
ATOM     13  N   UNL     1     -39.951  24.683   1.722  0.00  0.00    +0.388 N 
ATOM     14  C   UNL     1     -39.877  25.921   2.627  0.00  0.00    -0.096 C 
ATOM     15  C   UNL     1     -41.371  24.598   1.146  0.00  0.00    -0.096 C 
ATOM     16  C   UNL     1     -38.974  24.886   0.555  0.00  0.00    -0.096 C 
ENDBRANCH  12  13
ENDBRANCH  11  12
BRANCH  11  17
ATOM     17  C   UNL     1     -37.835  21.666   2.052  0.00  0.00    +0.155 C 
BRANCH  17  20
ATOM     18  O   UNL     1     -35.652  21.950   1.221  0.00  0.00    -0.246 OA
ATOM     19  O   UNL     1     -36.004  20.322   2.781  0.00  0.00    -0.246 OA
ATOM     20  C   UNL     1     -36.353  21.265   2.021  0.00  0.00    +0.368 C 
ENDBRANCH  17  20
ENDBRANCH  11  17
ENDBRANCH   1  11
TORSDOF 11
ENDMDL
MODEL 2
REMARK VINA RESULT:      -4.6      2.091      4.734
REMARK  Name = 53481622
REMARK  11 active torsions:
REMARK  status: ('A' for Active; 'I' for Inactive)
REMARK    1  A    between atoms: O_1  and  C_3
REMARK    2  A    between atoms: O_1  and  C_11
REMARK    3  A    between atoms: C_3  and  C_4
REMARK    4  A    between atoms: C_4  and  C_5
REMARK    5  A    between atoms: C_5  and  C_6
REMARK    6  A    between atoms: C_6  and  C_8
REMARK    7  A    between atoms: C_8  and  O_9
REMARK    8  A    between atoms: C_11  and  C_12
REMARK    9  A    between atoms: C_11  and  C_17
REMARK   10  A    between atoms: C_12  and  N_13
REMARK   11  A    between atoms: C_17  and  C_20
REMARK                            x       y       z     vdW  Elec       q    Type
REMARK                         _______ _______ _______ _____ _____    ______ ____
ROOT
ATOM      1  O   UNL     1     -36.705  24.154   2.400  0.00  0.00    -0.454 OA
ENDROOT
BRANCH   1   3
ATOM      2  O   UNL     1     -38.481  24.447   3.842  0.00  0.00    -0.250 OA
ATOM      3  C   UNL     1     -37.989  23.970   2.830  0.00  0.00    +0.317 C 
BRANCH   3   4
ATOM      4  C   UNL     1     -38.722  23.105   1.828  0.00  0.00    +0.110 C 
BRANCH   4   5
ATOM      5  C   UNL     1     -38.399  21.618   1.967  0.00  0.00    +0.023 C 
BRANCH   5   6
ATOM      6  C   UNL     1     -37.403  21.134   0.911  0.00  0.00    +0.110 C 
BRANCH   6   8
ATOM      7  O   UNL     1     -35.677  19.420   0.789  0.00  0.00    -0.250 OA
ATOM      8  C   UNL     1     -36.528  20.017   1.433  0.00  0.00    +0.314 C 
BRANCH   8   9
ATOM      9  O   UNL     1     -36.803  19.740   2.735  0.00  0.00    -0.480 OA
ATOM     10  H   UNL     1     -36.619  18.888   3.082  0.00  0.00    +0.295 HD
ENDBRANCH   8   9
ENDBRANCH   6   8
ENDBRANCH   5   6
ENDBRANCH   4   5
ENDBRANCH   3   4
ENDBRANCH   1   3
BRANCH   1  11
ATOM     11  C   UNL     1     -35.704  24.133   3.423  0.00  0.00    +0.160 C 
BRANCH  11  12
ATOM     12  C   UNL     1     -34.612  25.125   3.030  0.00  0.00    -0.028 C 
BRANCH  12  13
ATOM     13  N   UNL     1     -34.754  26.399   3.779  0.00  0.00    +0.388 N 
ATOM     14  C   UNL     1     -35.384  27.484   2.894  0.00  0.00    -0.096 C 
ATOM     15  C   UNL     1     -33.385  26.906   4.254  0.00  0.00    -0.096 C 
ATOM     16  C   UNL     1     -35.648  26.210   5.012  0.00  0.00    -0.096 C 
ENDBRANCH  12  13
ENDBRANCH  11  12
BRANCH  11  17
ATOM     17  C   UNL     1     -35.196  22.704   3.620  0.00  0.00    +0.155 C 
BRANCH  17  20
ATOM     18  O   UNL     1     -35.116  20.861   5.081  0.00  0.00    -0.246 OA
ATOM     19  O   UNL     1     -36.079  22.788   5.835  0.00  0.00    -0.246 OA
ATOM     20  C   UNL     1     -35.499  22.063   4.983  0.00  0.00    +0.368 C 
ENDBRANCH  17  20
ENDBRANCH  11  17
ENDBRANCH   1  11
TORSDOF 11
ENDMDL
MODEL 3
REMARK VINA RESULT:      -4.6      2.278      3.310
REMARK  Name = 53481622
REMARK  11 active torsions:
REMARK  status: ('A' for Active; 'I' for Inactive)
REMARK    1  A    between atoms: O_1  and  C_3
REMARK    2  A    between atoms: O_1  and  C_11
REMARK    3  A    between atoms: C_3  and  C_4
REMARK    4  A    between atoms: C_4  and  C_5
REMARK    5  A    between atoms: C_5  and  C_6
REMARK    6  A    between atoms: C_6  and  C_8
REMARK    7  A    between atoms: C_8  and  O_9
REMARK    8  A    between atoms: C_11  and  C_12
REMARK    9  A    between atoms: C_11  and  C_17
REMARK   10  A    between atoms: C_12  and  N_13
REMARK   11  A    between atoms: C_17  and  C_20
REMARK                            x       y       z     vdW  Elec       q    Type
REMARK                         _______ _______ _______ _____ _____    ______ ____
ROOT
ATOM      1  O   UNL     1     -37.425  23.028   3.672  0.00  0.00    -0.454 OA
ENDROOT
BRANCH   1   3
ATOM      2  O   UNL     1     -35.736  22.079   2.420  0.00  0.00    -0.250 OA
ATOM      3  C   UNL     1     -36.211  22.429   3.491  0.00  0.00    +0.317 C 
BRANCH   3   4
ATOM      4  C   UNL     1     -35.523  22.300   4.832  0.00  0.00    +0.110 C 
BRANCH   4   5
ATOM      5  C   UNL     1     -35.477  23.613   5.613  0.00  0.00    +0.023 C 
BRANCH   5   6
ATOM      6  C   UNL     1     -34.641  24.684   4.910  0.00  0.00    +0.110 C 
BRANCH   6   8
ATOM      7  O   UNL     1     -33.941  26.772   5.950  0.00  0.00    -0.250 OA
ATOM      8  C   UNL     1     -34.835  26.048   5.534  0.00  0.00    +0.314 C 
BRANCH   8   9
ATOM      9  O   UNL     1     -36.150  26.388   5.584  0.00  0.00    -0.480 OA
ATOM     10  H   UNL     1     -36.507  26.972   4.944  0.00  0.00    +0.295 HD
ENDBRANCH   8   9
ENDBRANCH   6   8
ENDBRANCH   5   6
ENDBRANCH   4   5
ENDBRANCH   3   4
ENDBRANCH   1   3
BRANCH   1  11
ATOM     11  C   UNL     1     -37.945  23.723   2.534  0.00  0.00    +0.160 C 
BRANCH  11  12
ATOM     12  C   UNL     1     -37.857  25.221   2.822  0.00  0.00    -0.028 C 
BRANCH  12  13
ATOM     13  N   UNL     1     -37.305  25.956   1.655  0.00  0.00    +0.388 N 
ATOM     14  C   UNL     1     -38.423  26.670   0.883  0.00  0.00    -0.096 C 
ATOM     15  C   UNL     1     -36.599  24.993   0.690  0.00  0.00    -0.096 C 
ATOM     16  C   UNL     1     -36.287  27.011   2.107  0.00  0.00    -0.096 C 
ENDBRANCH  12  13
ENDBRANCH  11  12
BRANCH  11  17
ATOM     17  C   UNL     1     -39.363  23.237   2.233  0.00  0.00    +0.155 C 
BRANCH  17  20
ATOM     18  O   UNL     1     -38.631  21.493   0.834  0.00  0.00    -0.246 OA
ATOM     19  O   UNL     1     -40.401  21.088   2.218  0.00  0.00    -0.246 OA
ATOM     20  C   UNL     1     -39.486  21.796   1.716  0.00  0.00    +0.368 C 
ENDBRANCH  17  20
ENDBRANCH  11  17
ENDBRANCH   1  11
TORSDOF 11
ENDMDL
MODEL 4
REMARK VINA RESULT:      -4.6      2.368      4.735
REMARK  Name = 53481622
REMARK  11 active torsions:
REMARK  status: ('A' for Active; 'I' for Inactive)
REMARK    1  A    between atoms: O_1  and  C_3
REMARK    2  A    between atoms: O_1  and  C_11
REMARK    3  A    between atoms: C_3  and  C_4
REMARK    4  A    between atoms: C_4  and  C_5
REMARK    5  A    between atoms: C_5  and  C_6
REMARK    6  A    between atoms: C_6  and  C_8
REMARK    7  A    between atoms: C_8  and  O_9
REMARK    8  A    between atoms: C_11  and  C_12
REMARK    9  A    between atoms: C_11  and  C_17
REMARK   10  A    between atoms: C_12  and  N_13
REMARK   11  A    between atoms: C_17  and  C_20
REMARK                            x       y       z     vdW  Elec       q    Type
REMARK                         _______ _______ _______ _____ _____    ______ ____
ROOT
ATOM      1  O   UNL     1     -35.219  22.755   3.443  0.00  0.00    -0.454 OA
ENDROOT
BRANCH   1   3
ATOM      2  O   UNL     1     -35.225  20.839   4.726  0.00  0.00    -0.250 OA
ATOM      3  C   UNL     1     -35.305  22.053   4.611  0.00  0.00    +0.317 C 
BRANCH   3   4
ATOM      4  C   UNL     1     -35.481  23.026   5.757  0.00  0.00    +0.110 C 
BRANCH   4   5
ATOM      5  C   UNL     1     -34.794  24.370   5.514  0.00  0.00    +0.023 C 
BRANCH   5   6
ATOM      6  C   UNL     1     -35.771  25.546   5.574  0.00  0.00    +0.110 C 
BRANCH   6   8
ATOM      7  O   UNL     1     -35.308  26.249   3.290  0.00  0.00    -0.250 OA
ATOM      8  C   UNL     1     -36.108  26.068   4.196  0.00  0.00    +0.314 C 
BRANCH   8   9
ATOM      9  O   UNL     1     -37.438  26.323   4.074  0.00  0.00    -0.480 OA
ATOM     10  H   UNL     1     -38.023  25.639   3.810  0.00  0.00    +0.295 HD
ENDBRANCH   8   9
ENDBRANCH   6   8
ENDBRANCH   5   6
ENDBRANCH   4   5
ENDBRANCH   3   4
ENDBRANCH   1   3
BRANCH   1  11
ATOM     11  C   UNL     1     -35.990  22.236   2.355  0.00  0.00    +0.160 C 
BRANCH  11  12
ATOM     12  C   UNL     1     -35.022  21.847   1.239  0.00  0.00    -0.028 C 
BRANCH  12  13
ATOM     13  N   UNL     1     -35.138  20.404   0.913  0.00  0.00    +0.388 N 
ATOM     14  C   UNL     1     -36.475  19.837   1.412  0.00  0.00    -0.096 C 
ATOM     15  C   UNL     1     -34.006  19.604   1.574  0.00  0.00    -0.096 C 
ATOM     16  C   UNL     1     -35.060  20.179  -0.603  0.00  0.00    -0.096 C 
ENDBRANCH  12  13
ENDBRANCH  11  12
BRANCH  11  17
ATOM     17  C   UNL     1     -37.040  23.264   1.928  0.00  0.00    +0.155 C 
BRANCH  17  20
ATOM     18  O   UNL     1     -38.759  23.992   3.361  0.00  0.00    -0.246 OA
ATOM     19  O   UNL     1     -39.105  22.089   2.148  0.00  0.00    -0.246 OA
ATOM     20  C   UNL     1     -38.440  23.088   2.534  0.00  0.00    +0.368 C 
ENDBRANCH  17  20
ENDBRANCH  11  17
ENDBRANCH   1  11
TORSDOF 11
ENDMDL
MODEL 5
REMARK VINA RESULT:      -4.5      2.192      4.119
REMARK  Name = 53481622
REMARK  11 active torsions:
REMARK  status: ('A' for Active; 'I' for Inactive)
REMARK    1  A    between atoms: O_1  and  C_3
REMARK    2  A    between atoms: O_1  and  C_11
REMARK    3  A    between atoms: C_3  and  C_4
REMARK    4  A    between atoms: C_4  and  C_5
REMARK    5  A    between atoms: C_5  and  C_6
REMARK    6  A    between atoms: C_6  and  C_8
REMARK    7  A    between atoms: C_8  and  O_9
REMARK    8  A    between atoms: C_11  and  C_12
REMARK    9  A    between atoms: C_11  and  C_17
REMARK   10  A    between atoms: C_12  and  N_13
REMARK   11  A    between atoms: C_17  and  C_20
REMARK                            x       y       z     vdW  Elec       q    Type
REMARK                         _______ _______ _______ _____ _____    ______ ____
ROOT
ATOM      1  O   UNL     1     -36.831  22.936   3.969  0.00  0.00    -0.454 OA
ENDROOT
BRANCH   1   3
ATOM      2  O   UNL     1     -35.451  21.091   3.850  0.00  0.00    -0.250 OA
ATOM      3  C   UNL     1     -35.770  22.163   4.347  0.00  0.00    +0.317 C 
BRANCH   3   4
ATOM      4  C   UNL     1     -35.024  22.863   5.461  0.00  0.00    +0.110 C 
BRANCH   4   5
ATOM      5  C   UNL     1     -34.338  24.151   5.008  0.00  0.00    +0.023 C 
BRANCH   5   6
ATOM      6  C   UNL     1     -34.895  25.390   5.713  0.00  0.00    +0.110 C 
BRANCH   6   8
ATOM      7  O   UNL     1     -35.268  27.153   4.075  0.00  0.00    -0.250 OA
ATOM      8  C   UNL     1     -35.709  26.252   4.775  0.00  0.00    +0.314 C 
BRANCH   8   9
ATOM      9  O   UNL     1     -37.023  25.906   4.799  0.00  0.00    -0.480 OA
ATOM     10  H   UNL     1     -37.339  25.226   4.236  0.00  0.00    +0.295 HD
ENDBRANCH   8   9
ENDBRANCH   6   8
ENDBRANCH   5   6
ENDBRANCH   4   5
ENDBRANCH   3   4
ENDBRANCH   1   3
BRANCH   1  11
ATOM     11  C   UNL     1     -37.216  22.824   2.596  0.00  0.00    +0.160 C 
BRANCH  11  12
ATOM     12  C   UNL     1     -36.661  24.037   1.853  0.00  0.00    -0.028 C 
BRANCH  12  13
ATOM     13  N   UNL     1     -35.692  23.624   0.807  0.00  0.00    +0.388 N 
ATOM     14  C   UNL     1     -35.930  24.404  -0.495  0.00  0.00    -0.096 C 
ATOM     15  C   UNL     1     -35.831  22.127   0.497  0.00  0.00    -0.096 C 
ATOM     16  C   UNL     1     -34.251  23.886   1.263  0.00  0.00    -0.096 C 
ENDBRANCH  12  13
ENDBRANCH  11  12
BRANCH  11  17
ATOM     17  C   UNL     1     -38.736  22.684   2.495  0.00  0.00    +0.155 C 
BRANCH  17  20
ATOM     18  O   UNL     1     -40.131  24.306   1.515  0.00  0.00    -0.246 OA
ATOM     19  O   UNL     1     -39.529  24.585   3.699  0.00  0.00    -0.246 OA
ATOM     20  C   UNL     1     -39.541  23.988   2.588  0.00  0.00    +0.368 C 
ENDBRANCH  17  20
ENDBRANCH  11  17
ENDBRANCH   1  11
TORSDOF 11
ENDMDL
MODEL 6
REMARK VINA RESULT:      -4.5      4.550      6.220
REMARK  Name = 53481622
REMARK  11 active torsions:
REMARK  status: ('A' for Active; 'I' for Inactive)
REMARK    1  A    between atoms: O_1  and  C_3
REMARK    2  A    between atoms: O_1  and  C_11
REMARK    3  A    between atoms: C_3  and  C_4
REMARK    4  A    between atoms: C_4  and  C_5
REMARK    5  A    between atoms: C_5  and  C_6
REMARK    6  A    between atoms: C_6  and  C_8
REMARK    7  A    between atoms: C_8  and  O_9
REMARK    8  A    between atoms: C_11  and  C_12
REMARK    9  A    between atoms: C_11  and  C_17
REMARK   10  A    between atoms: C_12  and  N_13
REMARK   11  A    between atoms: C_17  and  C_20
REMARK                            x       y       z     vdW  Elec       q    Type
REMARK                         _______ _______ _______ _____ _____    ______ ____
ROOT
ATOM      1  O   UNL     1     -34.547  27.090   4.435  0.00  0.00    -0.454 OA
ENDROOT
BRANCH   1   3
ATOM      2  O   UNL     1     -33.729  26.277   6.433  0.00  0.00    -0.250 OA
ATOM      3  C   UNL     1     -34.586  26.318   5.562  0.00  0.00    +0.317 C 
BRANCH   3   4
ATOM      4  C   UNL     1     -35.884  25.542   5.580  0.00  0.00    +0.110 C 
BRANCH   4   5
ATOM      5  C   UNL     1     -35.863  24.314   4.671  0.00  0.00    +0.023 C 
BRANCH   5   6
ATOM      6  C   UNL     1     -34.815  23.285   5.100  0.00  0.00    +0.110 C 
BRANCH   6   8
ATOM      7  O   UNL     1     -36.073  21.986   6.731  0.00  0.00    -0.250 OA
ATOM      8  C   UNL     1     -35.452  22.042   5.679  0.00  0.00    +0.314 C 
BRANCH   8   9
ATOM      9  O   UNL     1     -35.250  20.962   4.878  0.00  0.00    -0.480 OA
ATOM     10  H   UNL     1     -35.940  20.341   4.746  0.00  0.00    +0.295 HD
ENDBRANCH   8   9
ENDBRANCH   6   8
ENDBRANCH   5   6
ENDBRANCH   4   5
ENDBRANCH   3   4
ENDBRANCH   1   3
BRANCH   1  11
ATOM     11  C   UNL     1     -33.273  27.171   3.788  0.00  0.00    +0.160 C 
BRANCH  11  12
ATOM     12  C   UNL     1     -33.173  28.542   3.123  0.00  0.00    -0.028 C 
BRANCH  12  13
ATOM     13  N   UNL     1     -32.070  29.341   3.713  0.00  0.00    +0.388 N 
ATOM     14  C   UNL     1     -31.440  28.606   4.904  0.00  0.00    -0.096 C 
ATOM     15  C   UNL     1     -32.587  30.699   4.209  0.00  0.00    -0.096 C 
ATOM     16  C   UNL     1     -30.969  29.600   2.675  0.00  0.00    -0.096 C 
ENDBRANCH  12  13
ENDBRANCH  11  12
BRANCH  11  17
ATOM     17  C   UNL     1     -33.111  26.002   2.816  0.00  0.00    +0.155 C 
BRANCH  17  20
ATOM     18  O   UNL     1     -30.778  25.977   2.513  0.00  0.00    -0.246 OA
ATOM     19  O   UNL     1     -32.099  26.162   0.661  0.00  0.00    -0.246 OA
ATOM     20  C   UNL     1     -31.881  26.054   1.898  0.00  0.00    +0.368 C 
ENDBRANCH  17  20
ENDBRANCH  11  17
ENDBRANCH   1  11
TORSDOF 11
ENDMDL
MODEL 7
REMARK VINA RESULT:      -4.5      2.161      4.167
REMARK  Name = 53481622
REMARK  11 active torsions:
REMARK  status: ('A' for Active; 'I' for Inactive)
REMARK    1  A    between atoms: O_1  and  C_3
REMARK    2  A    between atoms: O_1  and  C_11
REMARK    3  A    between atoms: C_3  and  C_4
REMARK    4  A    between atoms: C_4  and  C_5
REMARK    5  A    between atoms: C_5  and  C_6
REMARK    6  A    between atoms: C_6  and  C_8
REMARK    7  A    between atoms: C_8  and  O_9
REMARK    8  A    between atoms: C_11  and  C_12
REMARK    9  A    between atoms: C_11  and  C_17
REMARK   10  A    between atoms: C_12  and  N_13
REMARK   11  A    between atoms: C_17  and  C_20
REMARK                            x       y       z     vdW  Elec       q    Type
REMARK                         _______ _______ _______ _____ _____    ______ ____
ROOT
ATOM      1  O   UNL     1     -35.491  22.837   2.666  0.00  0.00    -0.454 OA
ENDROOT
BRANCH   1   3
ATOM      2  O   UNL     1     -35.471  20.634   3.352  0.00  0.00    -0.250 OA
ATOM      3  C   UNL     1     -35.519  21.832   3.592  0.00  0.00    +0.317 C 
BRANCH   3   4
ATOM      4  C   UNL     1     -35.585  22.442   4.975  0.00  0.00    +0.110 C 
BRANCH   4   5
ATOM      5  C   UNL     1     -34.785  23.738   5.099  0.00  0.00    +0.023 C 
BRANCH   5   6
ATOM      6  C   UNL     1     -35.634  24.903   5.614  0.00  0.00    +0.110 C 
BRANCH   6   8
ATOM      7  O   UNL     1     -33.912  26.603   5.883  0.00  0.00    -0.250 OA
ATOM      8  C   UNL     1     -34.962  26.236   5.376  0.00  0.00    +0.314 C 
BRANCH   8   9
ATOM      9  O   UNL     1     -35.677  27.004   4.512  0.00  0.00    -0.480 OA
ATOM     10  H   UNL     1     -36.514  26.711   4.207  0.00  0.00    +0.295 HD
ENDBRANCH   8   9
ENDBRANCH   6   8
ENDBRANCH   5   6
ENDBRANCH   4   5
ENDBRANCH   3   4
ENDBRANCH   1   3
BRANCH   1  11
ATOM     11  C   UNL     1     -36.738  23.116   2.022  0.00  0.00    +0.160 C 
BRANCH  11  12
ATOM     12  C   UNL     1     -36.723  22.433   0.656  0.00  0.00    -0.028 C 
BRANCH  12  13
ATOM     13  N   UNL     1     -37.834  21.456   0.537  0.00  0.00    +0.388 N 
ATOM     14  C   UNL     1     -38.723  21.786  -0.671  0.00  0.00    -0.096 C 
ATOM     15  C   UNL     1     -38.712  21.474   1.795  0.00  0.00    -0.096 C 
ATOM     16  C   UNL     1     -37.290  20.032   0.354  0.00  0.00    -0.096 C 
ENDBRANCH  12  13
ENDBRANCH  11  12
BRANCH  11  17
ATOM     17  C   UNL     1     -36.957  24.628   1.952  0.00  0.00    +0.155 C 
BRANCH  17  20
ATOM     18  O   UNL     1     -38.512  24.346   3.695  0.00  0.00    -0.246 OA
ATOM     19  O   UNL     1     -38.278  26.429   2.791  0.00  0.00    -0.246 OA
ATOM     20  C   UNL     1     -38.020  25.200   2.901  0.00  0.00    +0.368 C 
ENDBRANCH  17  20
ENDBRANCH  11  17
ENDBRANCH   1  11
TORSDOF 11
ENDMDL
MODEL 8
REMARK VINA RESULT:      -4.5      5.281      7.377
REMARK  Name = 53481622
REMARK  11 active torsions:
REMARK  status: ('A' for Active; 'I' for Inactive)
REMARK    1  A    between atoms: O_1  and  C_3
REMARK    2  A    between atoms: O_1  and  C_11
REMARK    3  A    between atoms: C_3  and  C_4
REMARK    4  A    between atoms: C_4  and  C_5
REMARK    5  A    between atoms: C_5  and  C_6
REMARK    6  A    between atoms: C_6  and  C_8
REMARK    7  A    between atoms: C_8  and  O_9
REMARK    8  A    between atoms: C_11  and  C_12
REMARK    9  A    between atoms: C_11  and  C_17
REMARK   10  A    between atoms: C_12  and  N_13
REMARK   11  A    between atoms: C_17  and  C_20
REMARK                            x       y       z     vdW  Elec       q    Type
REMARK                         _______ _______ _______ _____ _____    ______ ____
ROOT
ATOM      1  O   UNL     1     -32.840  26.627   4.430  0.00  0.00    -0.454 OA
ENDROOT
BRANCH   1   3
ATOM      2  O   UNL     1     -35.111  26.982   4.623  0.00  0.00    -0.250 OA
ATOM      3  C   UNL     1     -34.118  26.283   4.770  0.00  0.00    +0.317 C 
BRANCH   3   4
ATOM      4  C   UNL     1     -34.116  24.878   5.330  0.00  0.00    +0.110 C 
BRANCH   4   5
ATOM      5  C   UNL     1     -35.512  24.261   5.409  0.00  0.00    +0.023 C 
BRANCH   5   6
ATOM      6  C   UNL     1     -35.507  22.887   6.084  0.00  0.00    +0.110 C 
BRANCH   6   8
ATOM      7  O   UNL     1     -35.519  21.888   3.863  0.00  0.00    -0.250 OA
ATOM      8  C   UNL     1     -35.410  21.765   5.075  0.00  0.00    +0.314 C 
BRANCH   8   9
ATOM      9  O   UNL     1     -35.184  20.570   5.682  0.00  0.00    -0.480 OA
ATOM     10  H   UNL     1     -35.405  20.455   6.586  0.00  0.00    +0.295 HD
ENDBRANCH   8   9
ENDBRANCH   6   8
ENDBRANCH   5   6
ENDBRANCH   4   5
ENDBRANCH   3   4
ENDBRANCH   1   3
BRANCH   1  11
ATOM     11  C   UNL     1     -32.489  27.995   4.655  0.00  0.00    +0.160 C 
BRANCH  11  12
ATOM     12  C   UNL     1     -31.414  28.376   3.639  0.00  0.00    -0.028 C 
BRANCH  12  13
ATOM     13  N   UNL     1     -31.891  29.455   2.738  0.00  0.00    +0.388 N 
ATOM     14  C   UNL     1     -33.360  29.795   3.024  0.00  0.00    -0.096 C 
ATOM     15  C   UNL     1     -31.779  29.026   1.268  0.00  0.00    -0.096 C 
ATOM     16  C   UNL     1     -31.060  30.731   2.928  0.00  0.00    -0.096 C 
ENDBRANCH  12  13
ENDBRANCH  11  12
BRANCH  11  17
ATOM     17  C   UNL     1     -32.056  28.186   6.110  0.00  0.00    +0.155 C 
BRANCH  17  20
ATOM     18  O   UNL     1     -32.256  30.523   6.307  0.00  0.00    -0.246 OA
ATOM     19  O   UNL     1     -30.257  29.566   6.854  0.00  0.00    -0.246 OA
ATOM     20  C   UNL     1     -31.454  29.556   6.459  0.00  0.00    +0.368 C 
ENDBRANCH  17  20
ENDBRANCH  11  17
ENDBRANCH   1  11
TORSDOF 11
ENDMDL
MODEL 9
REMARK VINA RESULT:      -4.4      1.832      2.968
REMARK  Name = 53481622
REMARK  11 active torsions:
REMARK  status: ('A' for Active; 'I' for Inactive)
REMARK    1  A    between atoms: O_1  and  C_3
REMARK    2  A    between atoms: O_1  and  C_11
REMARK    3  A    between atoms: C_3  and  C_4
REMARK    4  A    between atoms: C_4  and  C_5
REMARK    5  A    between atoms: C_5  and  C_6
REMARK    6  A    between atoms: C_6  and  C_8
REMARK    7  A    between atoms: C_8  and  O_9
REMARK    8  A    between atoms: C_11  and  C_12
REMARK    9  A    between atoms: C_11  and  C_17
REMARK   10  A    between atoms: C_12  and  N_13
REMARK   11  A    between atoms: C_17  and  C_20
REMARK                            x       y       z     vdW  Elec       q    Type
REMARK                         _______ _______ _______ _____ _____    ______ ____
ROOT
ATOM      1  O   UNL     1     -37.270  22.539   3.445  0.00  0.00    -0.454 OA
ENDROOT
BRANCH   1   3
ATOM      2  O   UNL     1     -38.135  24.635   3.870  0.00  0.00    -0.250 OA
ATOM      3  C   UNL     1     -37.228  23.903   3.500  0.00  0.00    +0.317 C 
BRANCH   3   4
ATOM      4  C   UNL     1     -35.857  24.370   3.060  0.00  0.00    +0.110 C 
BRANCH   4   5
ATOM      5  C   UNL     1     -34.752  24.009   4.052  0.00  0.00    +0.023 C 
BRANCH   5   6
ATOM      6  C   UNL     1     -35.010  24.579   5.449  0.00  0.00    +0.110 C 
BRANCH   6   8
ATOM      7  O   UNL     1     -34.232  26.876   5.230  0.00  0.00    -0.250 OA
ATOM      8  C   UNL     1     -35.144  26.085   5.426  0.00  0.00    +0.314 C 
BRANCH   8   9
ATOM      9  O   UNL     1     -36.427  26.472   5.655  0.00  0.00    -0.480 OA
ATOM     10  H   UNL     1     -36.629  27.000   6.403  0.00  0.00    +0.295 HD
ENDBRANCH   8   9
ENDBRANCH   6   8
ENDBRANCH   5   6
ENDBRANCH   4   5
ENDBRANCH   3   4
ENDBRANCH   1   3
BRANCH   1  11
ATOM     11  C   UNL     1     -37.534  21.982   2.154  0.00  0.00    +0.160 C 
BRANCH  11  12
ATOM     12  C   UNL     1     -39.047  21.845   2.004  0.00  0.00    -0.028 C 
BRANCH  12  13
ATOM     13  N   UNL     1     -39.545  22.653   0.861  0.00  0.00    +0.388 N 
ATOM     14  C   UNL     1     -40.410  21.798  -0.075  0.00  0.00    -0.096 C 
ATOM     15  C   UNL     1     -38.375  23.219   0.044  0.00  0.00    -0.096 C 
ATOM     16  C   UNL     1     -40.396  23.830   1.355  0.00  0.00    -0.096 C 
ENDBRANCH  12  13
ENDBRANCH  11  12
BRANCH  11  17
ATOM     17  C   UNL     1     -36.778  20.662   1.994  0.00  0.00    +0.155 C 
BRANCH  17  20
ATOM     18  O   UNL     1     -34.641  19.938   2.662  0.00  0.00    -0.246 OA
ATOM     19  O   UNL     1     -34.773  21.644   1.152  0.00  0.00    -0.246 OA
ATOM     20  C   UNL     1     -35.247  20.767   1.923  0.00  0.00    +0.368 C 
ENDBRANCH  17  20
ENDBRANCH  11  17
ENDBRANCH   1  11
TORSDOF 11
ENDMDL
