MODEL 1
REMARK VINA RESULT:      -7.3      0.000      0.000
REMARK  Name = 194082
REMARK  3 active torsions:
REMARK  status: ('A' for Active; 'I' for Inactive)
REMARK    1  A    between atoms: C_8  and  C_25
REMARK    2  A    between atoms: C_16  and  O_22
REMARK    3  A    between atoms: C_25  and  O_26
REMARK                            x       y       z     vdW  Elec       q    Type
REMARK                         _______ _______ _______ _____ _____    ______ ____
ROOT
ATOM      1  O   UNL     1     -34.638  25.171   1.972  0.00  0.00    -0.456 OA
ATOM      2  O   UNL     1     -34.715  18.894   0.567  0.00  0.00    -0.296 OA
ATOM      3  O   UNL     1     -33.714  26.735   3.406  0.00  0.00    -0.250 OA
ATOM      4  C   UNL     1     -35.922  21.710   2.361  0.00  0.00    +0.021 C 
ATOM      5  C   UNL     1     -35.605  24.136   2.164  0.00  0.00    +0.137 C 
ATOM      6  C   UNL     1     -35.453  22.844   1.344  0.00  0.00    +0.038 C 
ATOM      7  C   UNL     1     -35.185  23.629   3.533  0.00  0.00    +0.060 C 
ATOM      8  C   UNL     1     -36.077  22.421   3.743  0.00  0.00    +0.103 C 
ATOM      9  C   UNL     1     -35.160  24.936   4.297  0.00  0.00    +0.118 C 
ATOM     10  C   UNL     1     -37.195  21.018   1.853  0.00  0.00    +0.008 C 
ATOM     11  C   UNL     1     -36.681  20.342   0.568  0.00  0.00    +0.052 C 
ATOM     12  C   UNL     1     -34.906  20.540   2.323  0.00  0.00    +0.065 C 
ATOM     13  C   UNL     1     -36.190  22.799  -0.001  0.00  0.00    +0.004 C 
ATOM     14  C   UNL     1     -37.022  24.768   2.116  0.00  0.00    +0.043 C 
ATOM     15  C   UNL     1     -36.367  21.372  -0.539  0.00  0.00    +0.007 C 
ATOM     16  C   UNL     1     -36.569  25.531   4.496  0.00  0.00    +0.121 C 
ATOM     17  C   UNL     1     -35.352  19.802   1.084  0.00  0.00    +0.150 C 
ATOM     18  C   UNL     1     -37.239  25.860   3.162  0.00  0.00    +0.033 C 
ATOM     19  C   UNL     1     -34.402  25.743   3.222  0.00  0.00    +0.318 C 
ATOM     20  C   UNL     1     -34.365  24.830   5.594  0.00  0.00    +0.014 C 
ATOM     21  C   UNL     1     -37.591  19.223   0.087  0.00  0.00    +0.007 C 
ENDROOT
BRANCH  16  22
ATOM     22  O   UNL     1     -36.500  26.718   5.282  0.00  0.00    -0.384 OA
ATOM     23  H   UNL     1     -37.113  27.379   4.923  0.00  0.00    +0.210 HD
ENDBRANCH  16  22
BRANCH   8  25
ATOM     24  O   UNL     1     -34.873  20.655   4.865  0.00  0.00    -0.250 OA
ATOM     25  C   UNL     1     -35.636  21.609   4.918  0.00  0.00    +0.313 C 
BRANCH  25  26
ATOM     26  O   UNL     1     -36.201  22.072   6.060  0.00  0.00    -0.480 OA
ATOM     27  H   UNL     1     -37.133  22.112   6.139  0.00  0.00    +0.295 HD
ENDBRANCH  25  26
ENDBRANCH   8  25
TORSDOF 3
ENDMDL
MODEL 2
REMARK VINA RESULT:      -7.1      2.494      5.613
REMARK  Name = 194082
REMARK  3 active torsions:
REMARK  status: ('A' for Active; 'I' for Inactive)
REMARK    1  A    between atoms: C_8  and  C_25
REMARK    2  A    between atoms: C_16  and  O_22
REMARK    3  A    between atoms: C_25  and  O_26
REMARK                            x       y       z     vdW  Elec       q    Type
REMARK                         _______ _______ _______ _____ _____    ______ ____
ROOT
ATOM      1  O   UNL     1     -39.607  22.463   1.872  0.00  0.00    -0.456 OA
ATOM      2  O   UNL     1     -34.938  22.777   6.285  0.00  0.00    -0.296 OA
ATOM      3  O   UNL     1     -40.834  20.988   0.578  0.00  0.00    -0.250 OA
ATOM      4  C   UNL     1     -36.052  22.686   2.916  0.00  0.00    +0.021 C 
ATOM      5  C   UNL     1     -38.242  22.885   1.825  0.00  0.00    +0.137 C 
ATOM      6  C   UNL     1     -37.539  23.206   3.155  0.00  0.00    +0.038 C 
ATOM      7  C   UNL     1     -37.567  21.568   1.483  0.00  0.00    +0.060 C 
ATOM      8  C   UNL     1     -36.091  21.904   1.564  0.00  0.00    +0.103 C 
ATOM      9  C   UNL     1     -38.385  21.164   0.274  0.00  0.00    +0.118 C 
ATOM     10  C   UNL     1     -35.057  23.855   2.948  0.00  0.00    +0.008 C 
ATOM     11  C   UNL     1     -35.183  24.321   4.409  0.00  0.00    +0.052 C 
ATOM     12  C   UNL     1     -35.595  21.865   4.148  0.00  0.00    +0.065 C 
ATOM     13  C   UNL     1     -37.606  24.664   3.628  0.00  0.00    +0.004 C 
ATOM     14  C   UNL     1     -38.100  23.984   0.739  0.00  0.00    +0.043 C 
ATOM     15  C   UNL     1     -36.542  25.001   4.682  0.00  0.00    +0.007 C 
ATOM     16  C   UNL     1     -38.134  22.080  -0.941  0.00  0.00    +0.121 C 
ATOM     17  C   UNL     1     -35.200  22.965   5.105  0.00  0.00    +0.150 C 
ATOM     18  C   UNL     1     -38.534  23.527  -0.653  0.00  0.00    +0.033 C 
ATOM     19  C   UNL     1     -39.763  21.484   0.891  0.00  0.00    +0.318 C 
ATOM     20  C   UNL     1     -38.238  19.682  -0.051  0.00  0.00    +0.014 C 
ATOM     21  C   UNL     1     -34.004  25.168   4.862  0.00  0.00    +0.007 C 
ENDROOT
BRANCH  16  22
ATOM     22  O   UNL     1     -38.868  21.616  -2.072  0.00  0.00    -0.384 OA
ATOM     23  H   UNL     1     -39.242  20.743  -1.879  0.00  0.00    +0.210 HD
ENDBRANCH  16  22
BRANCH   8  25
ATOM     24  O   UNL     1     -34.138  20.597   1.012  0.00  0.00    -0.250 OA
ATOM     25  C   UNL     1     -35.243  20.672   1.528  0.00  0.00    +0.313 C 
BRANCH  25  26
ATOM     26  O   UNL     1     -35.870  19.641   2.146  0.00  0.00    -0.480 OA
ATOM     27  H   UNL     1     -35.891  19.599   3.082  0.00  0.00    +0.295 HD
ENDBRANCH  25  26
ENDBRANCH   8  25
TORSDOF 3
ENDMDL
MODEL 3
REMARK VINA RESULT:      -7.0      1.692      2.107
REMARK  Name = 194082
REMARK  3 active torsions:
REMARK  status: ('A' for Active; 'I' for Inactive)
REMARK    1  A    between atoms: C_8  and  C_25
REMARK    2  A    between atoms: C_16  and  O_22
REMARK    3  A    between atoms: C_25  and  O_26
REMARK                            x       y       z     vdW  Elec       q    Type
REMARK                         _______ _______ _______ _____ _____    ______ ____
ROOT
ATOM      1  O   UNL     1     -33.681  25.182   2.756  0.00  0.00    -0.456 OA
ATOM      2  O   UNL     1     -33.050  20.150  -1.200  0.00  0.00    -0.296 OA
ATOM      3  O   UNL     1     -33.561  25.815   4.979  0.00  0.00    -0.250 OA
ATOM      4  C   UNL     1     -34.979  22.207   0.956  0.00  0.00    +0.021 C 
ATOM      5  C   UNL     1     -34.618  24.386   2.028  0.00  0.00    +0.137 C 
ATOM      6  C   UNL     1     -34.088  23.524   0.869  0.00  0.00    +0.038 C 
ATOM      7  C   UNL     1     -34.900  23.301   3.052  0.00  0.00    +0.060 C 
ATOM      8  C   UNL     1     -35.778  22.326   2.293  0.00  0.00    +0.103 C 
ATOM      9  C   UNL     1     -35.249  24.160   4.250  0.00  0.00    +0.118 C 
ATOM     10  C   UNL     1     -35.853  22.059  -0.299  0.00  0.00    +0.008 C 
ATOM     11  C   UNL     1     -34.786  21.857  -1.389  0.00  0.00    +0.052 C 
ATOM     12  C   UNL     1     -34.063  20.963   0.835  0.00  0.00    +0.065 C 
ATOM     13  C   UNL     1     -34.094  24.174  -0.522  0.00  0.00    +0.004 C 
ATOM     14  C   UNL     1     -35.844  25.267   1.668  0.00  0.00    +0.043 C 
ATOM     15  C   UNL     1     -33.986  23.150  -1.661  0.00  0.00    +0.007 C 
ATOM     16  C   UNL     1     -36.584  24.909   4.071  0.00  0.00    +0.121 C 
ATOM     17  C   UNL     1     -33.860  20.890  -0.659  0.00  0.00    +0.150 C 
ATOM     18  C   UNL     1     -36.538  25.873   2.886  0.00  0.00    +0.033 C 
ATOM     19  C   UNL     1     -34.073  25.147   4.095  0.00  0.00    +0.318 C 
ATOM     20  C   UNL     1     -35.168  23.382   5.560  0.00  0.00    +0.014 C 
ATOM     21  C   UNL     1     -35.350  21.241  -2.659  0.00  0.00    +0.007 C 
ENDROOT
BRANCH  16  22
ATOM     22  O   UNL     1     -36.904  25.643   5.250  0.00  0.00    -0.384 OA
ATOM     23  H   UNL     1     -37.655  26.230   5.071  0.00  0.00    +0.210 HD
ENDBRANCH  16  22
BRANCH   8  25
ATOM     24  O   UNL     1     -35.187  20.625   3.901  0.00  0.00    -0.250 OA
ATOM     25  C   UNL     1     -35.947  21.041   3.038  0.00  0.00    +0.313 C 
BRANCH  25  26
ATOM     26  O   UNL     1     -37.062  20.390   2.625  0.00  0.00    -0.480 OA
ATOM     27  H   UNL     1     -37.214  19.506   2.890  0.00  0.00    +0.295 HD
ENDBRANCH  25  26
ENDBRANCH   8  25
TORSDOF 3
ENDMDL
MODEL 4
REMARK VINA RESULT:      -6.8      2.723      6.041
REMARK  Name = 194082
REMARK  3 active torsions:
REMARK  status: ('A' for Active; 'I' for Inactive)
REMARK    1  A    between atoms: C_8  and  C_25
REMARK    2  A    between atoms: C_16  and  O_22
REMARK    3  A    between atoms: C_25  and  O_26
REMARK                            x       y       z     vdW  Elec       q    Type
REMARK                         _______ _______ _______ _____ _____    ______ ____
ROOT
ATOM      1  O   UNL     1     -36.996  22.931   0.082  0.00  0.00    -0.456 OA
ATOM      2  O   UNL     1     -34.859  27.833   3.657  0.00  0.00    -0.296 OA
ATOM      3  O   UNL     1     -38.572  22.351  -1.510  0.00  0.00    -0.250 OA
ATOM      4  C   UNL     1     -37.015  25.064   3.119  0.00  0.00    +0.021 C 
ATOM      5  C   UNL     1     -37.097  23.246   1.472  0.00  0.00    +0.137 C 
ATOM      6  C   UNL     1     -36.125  24.289   2.050  0.00  0.00    +0.038 C 
ATOM      7  C   UNL     1     -38.381  24.058   1.469  0.00  0.00    +0.060 C 
ATOM      8  C   UNL     1     -38.477  24.560   2.896  0.00  0.00    +0.103 C 
ATOM      9  C   UNL     1     -39.294  23.097   0.736  0.00  0.00    +0.118 C 
ATOM     10  C   UNL     1     -36.473  24.845   4.539  0.00  0.00    +0.008 C 
ATOM     11  C   UNL     1     -35.101  25.537   4.450  0.00  0.00    +0.052 C 
ATOM     12  C   UNL     1     -36.804  26.591   2.947  0.00  0.00    +0.065 C 
ATOM     13  C   UNL     1     -34.810  23.749   2.628  0.00  0.00    +0.004 C 
ATOM     14  C   UNL     1     -37.174  21.921   2.276  0.00  0.00    +0.043 C 
ATOM     15  C   UNL     1     -34.114  24.747   3.564  0.00  0.00    +0.007 C 
ATOM     16  C   UNL     1     -39.610  21.836   1.563  0.00  0.00    +0.121 C 
ATOM     17  C   UNL     1     -35.502  26.792   3.685  0.00  0.00    +0.150 C 
ATOM     18  C   UNL     1     -38.349  21.031   1.875  0.00  0.00    +0.033 C 
ATOM     19  C   UNL     1     -38.296  22.746  -0.389  0.00  0.00    +0.318 C 
ATOM     20  C   UNL     1     -40.540  23.788   0.194  0.00  0.00    +0.014 C 
ATOM     21  C   UNL     1     -34.522  25.874   5.815  0.00  0.00    +0.007 C 
ENDROOT
BRANCH  16  22
ATOM     22  O   UNL     1     -40.529  21.000   0.863  0.00  0.00    -0.384 OA
ATOM     23  H   UNL     1     -40.245  20.910  -0.059  0.00  0.00    +0.210 HD
ENDBRANCH  16  22
BRANCH   8  25
ATOM     24  O   UNL     1     -39.679  26.564   2.292  0.00  0.00    -0.250 OA
ATOM     25  C   UNL     1     -39.532  25.610   3.042  0.00  0.00    +0.313 C 
BRANCH  25  26
ATOM     26  O   UNL     1     -40.308  25.362   4.125  0.00  0.00    -0.480 OA
ATOM     27  H   UNL     1     -40.990  24.723   4.076  0.00  0.00    +0.295 HD
ENDBRANCH  25  26
ENDBRANCH   8  25
TORSDOF 3
ENDMDL
MODEL 5
REMARK VINA RESULT:      -6.7      2.388      3.626
REMARK  Name = 194082
REMARK  3 active torsions:
REMARK  status: ('A' for Active; 'I' for Inactive)
REMARK    1  A    between atoms: C_8  and  C_25
REMARK    2  A    between atoms: C_16  and  O_22
REMARK    3  A    between atoms: C_25  and  O_26
REMARK                            x       y       z     vdW  Elec       q    Type
REMARK                         _______ _______ _______ _____ _____    ______ ____
ROOT
ATOM      1  O   UNL     1     -35.057  22.759   3.617  0.00  0.00    -0.456 OA
ATOM      2  O   UNL     1     -40.705  21.028   1.069  0.00  0.00    -0.296 OA
ATOM      3  O   UNL     1     -34.089  23.738   5.476  0.00  0.00    -0.250 OA
ATOM      4  C   UNL     1     -38.124  23.401   1.626  0.00  0.00    +0.021 C 
ATOM      5  C   UNL     1     -35.853  23.283   2.552  0.00  0.00    +0.137 C 
ATOM      6  C   UNL     1     -36.945  22.381   1.952  0.00  0.00    +0.038 C 
ATOM      7  C   UNL     1     -36.720  24.263   3.324  0.00  0.00    +0.060 C 
ATOM      8  C   UNL     1     -37.701  24.755   2.279  0.00  0.00    +0.103 C 
ATOM      9  C   UNL     1     -35.644  25.038   4.057  0.00  0.00    +0.118 C 
ATOM     10  C   UNL     1     -38.376  23.473   0.113  0.00  0.00    +0.008 C 
ATOM     11  C   UNL     1     -38.870  22.045  -0.181  0.00  0.00    +0.052 C 
ATOM     12  C   UNL     1     -39.465  22.808   2.129  0.00  0.00    +0.065 C 
ATOM     13  C   UNL     1     -36.533  21.520   0.750  0.00  0.00    +0.004 C 
ATOM     14  C   UNL     1     -34.912  23.939   1.507  0.00  0.00    +0.043 C 
ATOM     15  C   UNL     1     -37.734  21.006  -0.057  0.00  0.00    +0.007 C 
ATOM     16  C   UNL     1     -34.791  25.905   3.110  0.00  0.00    +0.121 C 
ATOM     17  C   UNL     1     -39.802  21.851   1.010  0.00  0.00    +0.150 C 
ATOM     18  C   UNL     1     -34.043  25.055   2.083  0.00  0.00    +0.033 C 
ATOM     19  C   UNL     1     -34.831  23.806   4.509  0.00  0.00    +0.318 C 
ATOM     20  C   UNL     1     -36.203  25.817   5.243  0.00  0.00    +0.014 C 
ATOM     21  C   UNL     1     -39.618  21.940  -1.500  0.00  0.00    +0.007 C 
ENDROOT
BRANCH  16  22
ATOM     22  O   UNL     1     -33.844  26.669   3.853  0.00  0.00    -0.384 OA
ATOM     23  H   UNL     1     -34.072  26.638   4.794  0.00  0.00    +0.210 HD
ENDBRANCH  16  22
BRANCH   8  25
ATOM     24  O   UNL     1     -39.323  26.539   2.424  0.00  0.00    -0.250 OA
ATOM     25  C   UNL     1     -38.822  25.529   2.898  0.00  0.00    +0.313 C 
BRANCH  25  26
ATOM     26  O   UNL     1     -39.211  24.960   4.065  0.00  0.00    -0.480 OA
ATOM     27  H   UNL     1     -38.724  25.119   4.849  0.00  0.00    +0.295 HD
ENDBRANCH  25  26
ENDBRANCH   8  25
TORSDOF 3
ENDMDL
MODEL 6
REMARK VINA RESULT:      -6.6      2.073      3.724
REMARK  Name = 194082
REMARK  3 active torsions:
REMARK  status: ('A' for Active; 'I' for Inactive)
REMARK    1  A    between atoms: C_8  and  C_25
REMARK    2  A    between atoms: C_16  and  O_22
REMARK    3  A    between atoms: C_25  and  O_26
REMARK                            x       y       z     vdW  Elec       q    Type
REMARK                         _______ _______ _______ _____ _____    ______ ____
ROOT
ATOM      1  O   UNL     1     -32.033  26.002   1.828  0.00  0.00    -0.456 OA
ATOM      2  O   UNL     1     -35.533  21.090   4.064  0.00  0.00    -0.296 OA
ATOM      3  O   UNL     1     -30.544  27.655   2.465  0.00  0.00    -0.250 OA
ATOM      4  C   UNL     1     -35.099  24.534   3.318  0.00  0.00    +0.021 C 
ATOM      5  C   UNL     1     -33.432  25.821   2.057  0.00  0.00    +0.137 C 
ATOM      6  C   UNL     1     -33.959  24.384   2.216  0.00  0.00    +0.038 C 
ATOM      7  C   UNL     1     -33.531  26.296   3.496  0.00  0.00    +0.060 C 
ATOM      8  C   UNL     1     -34.969  25.991   3.864  0.00  0.00    +0.103 C 
ATOM      9  C   UNL     1     -32.846  27.642   3.372  0.00  0.00    +0.118 C 
ATOM     10  C   UNL     1     -36.475  24.194   2.726  0.00  0.00    +0.008 C 
ATOM     11  C   UNL     1     -36.303  22.700   2.398  0.00  0.00    +0.052 C 
ATOM     12  C   UNL     1     -34.938  23.409   4.373  0.00  0.00    +0.065 C 
ATOM     13  C   UNL     1     -34.437  23.687   0.935  0.00  0.00    +0.004 C 
ATOM     14  C   UNL     1     -34.218  26.686   1.037  0.00  0.00    +0.043 C 
ATOM     15  C   UNL     1     -35.338  22.477   1.213  0.00  0.00    +0.007 C 
ATOM     16  C   UNL     1     -33.673  28.651   2.551  0.00  0.00    +0.121 C 
ATOM     17  C   UNL     1     -35.588  22.245   3.665  0.00  0.00    +0.150 C 
ATOM     18  C   UNL     1     -33.884  28.175   1.114  0.00  0.00    +0.033 C 
ATOM     19  C   UNL     1     -31.650  27.143   2.533  0.00  0.00    +0.318 C 
ATOM     20  C   UNL     1     -32.402  28.189   4.724  0.00  0.00    +0.014 C 
ATOM     21  C   UNL     1     -37.630  21.981   2.216  0.00  0.00    +0.007 C 
ENDROOT
BRANCH  16  22
ATOM     22  O   UNL     1     -33.024  29.920   2.525  0.00  0.00    -0.384 OA
ATOM     23  H   UNL     1     -32.943  30.223   1.607  0.00  0.00    +0.210 HD
ENDBRANCH  16  22
BRANCH   8  25
ATOM     24  O   UNL     1     -34.352  25.981   6.198  0.00  0.00    -0.250 OA
ATOM     25  C   UNL     1     -35.204  26.133   5.334  0.00  0.00    +0.313 C 
BRANCH  25  26
ATOM     26  O   UNL     1     -36.497  26.452   5.585  0.00  0.00    -0.480 OA
ATOM     27  H   UNL     1     -36.723  27.323   5.844  0.00  0.00    +0.295 HD
ENDBRANCH  25  26
ENDBRANCH   8  25
TORSDOF 3
ENDMDL
MODEL 7
REMARK VINA RESULT:      -6.6      1.898      3.896
REMARK  Name = 194082
REMARK  3 active torsions:
REMARK  status: ('A' for Active; 'I' for Inactive)
REMARK    1  A    between atoms: C_8  and  C_25
REMARK    2  A    between atoms: C_16  and  O_22
REMARK    3  A    between atoms: C_25  and  O_26
REMARK                            x       y       z     vdW  Elec       q    Type
REMARK                         _______ _______ _______ _____ _____    ______ ____
ROOT
ATOM      1  O   UNL     1     -37.981  22.922   3.146  0.00  0.00    -0.456 OA
ATOM      2  O   UNL     1     -34.981  20.280  -1.893  0.00  0.00    -0.296 OA
ATOM      3  O   UNL     1     -39.404  24.641   3.760  0.00  0.00    -0.250 OA
ATOM      4  C   UNL     1     -35.136  22.607   0.783  0.00  0.00    +0.021 C 
ATOM      5  C   UNL     1     -36.618  22.903   2.718  0.00  0.00    +0.137 C 
ATOM      6  C   UNL     1     -36.197  21.839   1.689  0.00  0.00    +0.038 C 
ATOM      7  C   UNL     1     -36.597  24.141   1.837  0.00  0.00    +0.060 C 
ATOM      8  C   UNL     1     -35.212  24.104   1.221  0.00  0.00    +0.103 C 
ATOM      9  C   UNL     1     -37.182  25.153   2.800  0.00  0.00    +0.118 C 
ATOM     10  C   UNL     1     -33.744  21.972   0.921  0.00  0.00    +0.008 C 
ATOM     11  C   UNL     1     -33.986  20.577   0.316  0.00  0.00    +0.052 C 
ATOM     12  C   UNL     1     -35.447  22.332  -0.710  0.00  0.00    +0.065 C 
ATOM     13  C   UNL     1     -35.671  20.514   2.255  0.00  0.00    +0.004 C 
ATOM     14  C   UNL     1     -35.704  22.986   3.969  0.00  0.00    +0.043 C 
ATOM     15  C   UNL     1     -34.872  19.700   1.228  0.00  0.00    +0.007 C 
ATOM     16  C   UNL     1     -36.233  25.470   3.973  0.00  0.00    +0.121 C 
ATOM     17  C   UNL     1     -34.823  20.970  -0.896  0.00  0.00    +0.150 C 
ATOM     18  C   UNL     1     -35.946  24.231   4.821  0.00  0.00    +0.033 C 
ATOM     19  C   UNL     1     -38.341  24.262   3.294  0.00  0.00    +0.318 C 
ATOM     20  C   UNL     1     -37.690  26.401   2.085  0.00  0.00    +0.014 C 
ATOM     21  C   UNL     1     -32.698  19.881  -0.094  0.00  0.00    +0.007 C 
ENDROOT
BRANCH  16  22
ATOM     22  O   UNL     1     -36.796  26.479   4.808  0.00  0.00    -0.384 OA
ATOM     23  H   UNL     1     -37.060  26.088   5.655  0.00  0.00    +0.210 HD
ENDBRANCH  16  22
BRANCH   8  25
ATOM     24  O   UNL     1     -36.007  25.514  -0.571  0.00  0.00    -0.250 OA
ATOM     25  C   UNL     1     -35.080  25.091   0.105  0.00  0.00    +0.313 C 
BRANCH  25  26
ATOM     26  O   UNL     1     -33.785  25.457  -0.060  0.00  0.00    -0.480 OA
ATOM     27  H   UNL     1     -33.256  25.655   0.686  0.00  0.00    +0.295 HD
ENDBRANCH  25  26
ENDBRANCH   8  25
TORSDOF 3
ENDMDL
MODEL 8
REMARK VINA RESULT:      -6.4      2.430      3.734
REMARK  Name = 194082
REMARK  3 active torsions:
REMARK  status: ('A' for Active; 'I' for Inactive)
REMARK    1  A    between atoms: C_8  and  C_25
REMARK    2  A    between atoms: C_16  and  O_22
REMARK    3  A    between atoms: C_25  and  O_26
REMARK                            x       y       z     vdW  Elec       q    Type
REMARK                         _______ _______ _______ _____ _____    ______ ____
ROOT
ATOM      1  O   UNL     1     -33.063  23.307  -0.027  0.00  0.00    -0.456 OA
ATOM      2  O   UNL     1     -32.061  17.041   1.028  0.00  0.00    -0.296 OA
ATOM      3  O   UNL     1     -33.409  25.331   1.041  0.00  0.00    -0.250 OA
ATOM      4  C   UNL     1     -34.212  19.824   0.546  0.00  0.00    +0.021 C 
ATOM      5  C   UNL     1     -33.880  22.144  -0.182  0.00  0.00    +0.137 C 
ATOM      6  C   UNL     1     -33.187  20.772  -0.220  0.00  0.00    +0.038 C 
ATOM      7  C   UNL     1     -34.516  22.078   1.196  0.00  0.00    +0.060 C 
ATOM      8  C   UNL     1     -35.289  20.775   1.159  0.00  0.00    +0.103 C 
ATOM      9  C   UNL     1     -35.045  23.494   1.305  0.00  0.00    +0.118 C 
ATOM     10  C   UNL     1     -34.771  18.752  -0.401  0.00  0.00    +0.008 C 
ATOM     11  C   UNL     1     -33.503  17.942  -0.725  0.00  0.00    +0.052 C 
ATOM     12  C   UNL     1     -33.435  18.952   1.566  0.00  0.00    +0.065 C 
ATOM     13  C   UNL     1     -32.788  20.247  -1.606  0.00  0.00    +0.004 C 
ATOM     14  C   UNL     1     -34.880  22.393  -1.343  0.00  0.00    +0.043 C 
ATOM     15  C   UNL     1     -32.525  18.735  -1.619  0.00  0.00    +0.007 C 
ATOM     16  C   UNL     1     -36.208  23.766   0.331  0.00  0.00    +0.121 C 
ATOM     17  C   UNL     1     -32.891  17.865   0.669  0.00  0.00    +0.150 C 
ATOM     18  C   UNL     1     -35.775  23.613  -1.127  0.00  0.00    +0.033 C 
ATOM     19  C   UNL     1     -33.765  24.189   0.795  0.00  0.00    +0.318 C 
ATOM     20  C   UNL     1     -35.365  23.879   2.745  0.00  0.00    +0.014 C 
ATOM     21  C   UNL     1     -33.812  16.559  -1.277  0.00  0.00    +0.007 C 
ENDROOT
BRANCH  16  22
ATOM     22  O   UNL     1     -36.718  25.084   0.523  0.00  0.00    -0.384 OA
ATOM     23  H   UNL     1     -36.695  25.305   1.466  0.00  0.00    +0.210 HD
ENDBRANCH  16  22
BRANCH   8  25
ATOM     24  O   UNL     1     -35.233  20.694   3.571  0.00  0.00    -0.250 OA
ATOM     25  C   UNL     1     -35.771  20.382   2.519  0.00  0.00    +0.313 C 
BRANCH  25  26
ATOM     26  O   UNL     1     -36.892  19.625   2.429  0.00  0.00    -0.480 OA
ATOM     27  H   UNL     1     -36.829  18.691   2.445  0.00  0.00    +0.295 HD
ENDBRANCH  25  26
ENDBRANCH   8  25
TORSDOF 3
ENDMDL
MODEL 9
REMARK VINA RESULT:      -6.4      1.723      5.966
REMARK  Name = 194082
REMARK  3 active torsions:
REMARK  status: ('A' for Active; 'I' for Inactive)
REMARK    1  A    between atoms: C_8  and  C_25
REMARK    2  A    between atoms: C_16  and  O_22
REMARK    3  A    between atoms: C_25  and  O_26
REMARK                            x       y       z     vdW  Elec       q    Type
REMARK                         _______ _______ _______ _____ _____    ______ ____
ROOT
ATOM      1  O   UNL     1     -35.048  20.285   1.949  0.00  0.00    -0.456 OA
ATOM      2  O   UNL     1     -33.233  25.674   4.955  0.00  0.00    -0.296 OA
ATOM      3  O   UNL     1     -34.659  18.995   0.067  0.00  0.00    -0.250 OA
ATOM      4  C   UNL     1     -35.257  23.930   2.618  0.00  0.00    +0.021 C 
ATOM      5  C   UNL     1     -35.669  21.558   2.136  0.00  0.00    +0.137 C 
ATOM      6  C   UNL     1     -35.124  22.473   3.246  0.00  0.00    +0.038 C 
ATOM      7  C   UNL     1     -35.146  22.293   0.913  0.00  0.00    +0.060 C 
ATOM      8  C   UNL     1     -35.644  23.709   1.121  0.00  0.00    +0.103 C 
ATOM      9  C   UNL     1     -35.526  21.300  -0.167  0.00  0.00    +0.118 C 
ATOM     10  C   UNL     1     -36.257  24.777   3.417  0.00  0.00    +0.008 C 
ATOM     11  C   UNL     1     -35.539  24.893   4.774  0.00  0.00    +0.052 C 
ATOM     12  C   UNL     1     -33.939  24.710   2.857  0.00  0.00    +0.065 C 
ATOM     13  C   UNL     1     -35.786  22.340   4.625  0.00  0.00    +0.004 C 
ATOM     14  C   UNL     1     -37.208  21.360   2.161  0.00  0.00    +0.043 C 
ATOM     15  C   UNL     1     -35.522  23.549   5.534  0.00  0.00    +0.007 C 
ATOM     16  C   UNL     1     -37.051  21.203  -0.369  0.00  0.00    +0.121 C 
ATOM     17  C   UNL     1     -34.121  25.164   4.286  0.00  0.00    +0.150 C 
ATOM     18  C   UNL     1     -37.760  20.712   0.892  0.00  0.00    +0.033 C 
ATOM     19  C   UNL     1     -35.018  20.045   0.575  0.00  0.00    +0.318 C 
ATOM     20  C   UNL     1     -34.762  21.542  -1.464  0.00  0.00    +0.014 C 
ATOM     21  C   UNL     1     -36.067  26.039   5.624  0.00  0.00    +0.007 C 
ENDROOT
BRANCH  16  22
ATOM     22  O   UNL     1     -37.354  20.315  -1.442  0.00  0.00    -0.384 OA
ATOM     23  H   UNL     1     -37.068  20.711  -2.280  0.00  0.00    +0.210 HD
ENDBRANCH  16  22
BRANCH   8  25
ATOM     24  O   UNL     1     -33.918  24.501  -0.371  0.00  0.00    -0.250 OA
ATOM     25  C   UNL     1     -35.007  24.663   0.161  0.00  0.00    +0.313 C 
BRANCH  25  26
ATOM     26  O   UNL     1     -35.802  25.742  -0.041  0.00  0.00    -0.480 OA
ATOM     27  H   UNL     1     -35.588  26.563   0.357  0.00  0.00    +0.295 HD
ENDBRANCH  25  26
ENDBRANCH   8  25
TORSDOF 3
ENDMDL
