MODEL 1
REMARK VINA RESULT:      -5.8      0.000      0.000
REMARK  Name = 19362123
REMARK  5 active torsions:
REMARK  status: ('A' for Active; 'I' for Inactive)
REMARK    1  A    between atoms: C2*_2  and  O2*_16
REMARK    2  A    between atoms: C3*_3  and  O3*_18
REMARK    3  A    between atoms: C1*_4  and  N_9
REMARK    4  A    between atoms: C4*_5  and  C5*_20
REMARK    5  A    between atoms: C5*_20  and  O5*_21
REMARK                            x       y       z     vdW  Elec       q    Type
REMARK                         _______ _______ _______ _____ _____    ______ ____
ROOT
ATOM      1  O4* UNL     1     -37.799  22.525   2.347  0.00  0.00    -0.333 OA
ATOM      2  C2* UNL     1     -35.643  21.520   2.293  0.00  0.00    +0.187 C 
ATOM      3  C3* UNL     1     -36.594  20.666   1.481  0.00  0.00    +0.171 C 
ATOM      4  C1* UNL     1     -36.614  22.336   3.138  0.00  0.00    +0.230 C 
ATOM      5  C4* UNL     1     -37.730  21.650   1.203  0.00  0.00    +0.175 C 
ENDROOT
BRANCH   4   9
ATOM      6  I   UNL     1     -35.242  22.165   6.138  0.00  0.00    -0.026 I 
ATOM      7  O   UNL     1     -36.785  24.661   1.580  0.00  0.00    -0.252 OA
ATOM      8  O   UNL     1     -34.673  27.244   4.734  0.00  0.00    -0.270 OA
ATOM      9  N   UNL     1     -36.107  23.609   3.561  0.00  0.00    -0.213 N 
ATOM     10  N   UNL     1     -35.735  25.937   3.156  0.00  0.00    -0.236 N 
ATOM     11  C   UNL     1     -36.248  24.724   2.688  0.00  0.00    +0.316 C 
ATOM     12  C   UNL     1     -35.475  23.780   4.813  0.00  0.00    +0.092 C 
ATOM     13  C   UNL     1     -34.996  24.964   5.224  0.00  0.00    +0.079 C 
ATOM     14  C   UNL     1     -35.110  26.158   4.366  0.00  0.00    +0.255 C 
ATOM     15  H   UNL     1     -35.829  26.713   2.559  0.00  0.00    +0.159 HD
ENDBRANCH   4   9
BRANCH   2  16
ATOM     16  O2* UNL     1     -34.911  22.370   1.415  0.00  0.00    -0.378 OA
ATOM     17  H2* UNL     1     -34.990  23.289   1.715  0.00  0.00    +0.211 HD
ENDBRANCH   2  16
BRANCH   3  18
ATOM     18  O3* UNL     1     -37.051  19.575   2.271  0.00  0.00    -0.379 OA
ATOM     19  H3* UNL     1     -37.784  19.868   2.835  0.00  0.00    +0.211 HD
ENDBRANCH   3  18
BRANCH   5  20
ATOM     20  C5* UNL     1     -39.093  21.024   0.968  0.00  0.00    +0.169 C 
BRANCH  20  21
ATOM     21  O5* UNL     1     -39.825  21.048   2.182  0.00  0.00    -0.379 OA
ATOM     22  H5* UNL     1     -40.571  21.663   2.098  0.00  0.00    +0.211 HD
ENDBRANCH  20  21
ENDBRANCH   5  20
TORSDOF 5
ENDMDL
MODEL 2
REMARK VINA RESULT:      -5.6      3.568      4.998
REMARK  Name = 19362123
REMARK  5 active torsions:
REMARK  status: ('A' for Active; 'I' for Inactive)
REMARK    1  A    between atoms: C2*_2  and  O2*_16
REMARK    2  A    between atoms: C3*_3  and  O3*_18
REMARK    3  A    between atoms: C1*_4  and  N_9
REMARK    4  A    between atoms: C4*_5  and  C5*_20
REMARK    5  A    between atoms: C5*_20  and  O5*_21
REMARK                            x       y       z     vdW  Elec       q    Type
REMARK                         _______ _______ _______ _____ _____    ______ ____
ROOT
ATOM      1  O4* UNL     1     -34.162  24.491   4.888  0.00  0.00    -0.333 OA
ATOM      2  C2* UNL     1     -36.172  25.600   4.259  0.00  0.00    +0.187 C 
ATOM      3  C3* UNL     1     -36.529  24.258   4.865  0.00  0.00    +0.171 C 
ATOM      4  C1* UNL     1     -34.704  25.391   3.907  0.00  0.00    +0.230 C 
ATOM      5  C4* UNL     1     -35.253  23.920   5.637  0.00  0.00    +0.175 C 
ENDROOT
BRANCH   4   9
ATOM      6  I   UNL     1     -34.331  26.516   0.823  0.00  0.00    -0.026 I 
ATOM      7  O   UNL     1     -33.648  26.611   6.200  0.00  0.00    -0.252 OA
ATOM      8  O   UNL     1     -31.710  30.021   3.812  0.00  0.00    -0.270 OA
ATOM      9  N   UNL     1     -33.926  26.595   3.873  0.00  0.00    -0.213 N 
ATOM     10  N   UNL     1     -32.688  28.302   5.003  0.00  0.00    -0.236 N 
ATOM     11  C   UNL     1     -33.438  27.128   5.100  0.00  0.00    +0.316 C 
ATOM     12  C   UNL     1     -33.635  27.261   2.661  0.00  0.00    +0.092 C 
ATOM     13  C   UNL     1     -32.907  28.388   2.612  0.00  0.00    +0.079 C 
ATOM     14  C   UNL     1     -32.375  28.990   3.848  0.00  0.00    +0.255 C 
ATOM     15  H   UNL     1     -32.346  28.676   5.846  0.00  0.00    +0.159 HD
ENDBRANCH   4   9
BRANCH   2  16
ATOM     16  O2* UNL     1     -36.307  26.613   5.252  0.00  0.00    -0.378 OA
ATOM     17  H2* UNL     1     -35.748  27.370   5.018  0.00  0.00    +0.211 HD
ENDBRANCH   2  16
BRANCH   3  18
ATOM     18  O3* UNL     1     -36.762  23.312   3.830  0.00  0.00    -0.379 OA
ATOM     19  H3* UNL     1     -36.689  23.751   2.968  0.00  0.00    +0.211 HD
ENDBRANCH   3  18
BRANCH   5  20
ATOM     20  C5* UNL     1     -34.993  22.439   5.851  0.00  0.00    +0.169 C 
BRANCH  20  21
ATOM     21  O5* UNL     1     -36.158  21.844   6.399  0.00  0.00    -0.379 OA
ATOM     22  H5* UNL     1     -36.059  21.765   7.361  0.00  0.00    +0.211 HD
ENDBRANCH  20  21
ENDBRANCH   5  20
TORSDOF 5
ENDMDL
MODEL 3
REMARK VINA RESULT:      -5.3      2.484      5.796
REMARK  Name = 19362123
REMARK  5 active torsions:
REMARK  status: ('A' for Active; 'I' for Inactive)
REMARK    1  A    between atoms: C2*_2  and  O2*_16
REMARK    2  A    between atoms: C3*_3  and  O3*_18
REMARK    3  A    between atoms: C1*_4  and  N_9
REMARK    4  A    between atoms: C4*_5  and  C5*_20
REMARK    5  A    between atoms: C5*_20  and  O5*_21
REMARK                            x       y       z     vdW  Elec       q    Type
REMARK                         _______ _______ _______ _____ _____    ______ ____
ROOT
ATOM      1  O4* UNL     1     -36.369  24.617   4.560  0.00  0.00    -0.333 OA
ATOM      2  C2* UNL     1     -36.264  25.746   2.468  0.00  0.00    +0.187 C 
ATOM      3  C3* UNL     1     -35.165  26.281   3.362  0.00  0.00    +0.171 C 
ATOM      4  C1* UNL     1     -37.194  25.099   3.488  0.00  0.00    +0.230 C 
ATOM      5  C4* UNL     1     -35.046  25.169   4.404  0.00  0.00    +0.175 C 
ENDROOT
BRANCH   4   9
ATOM      6  I   UNL     1     -40.199  26.132   2.582  0.00  0.00    -0.026 I 
ATOM      7  O   UNL     1     -36.273  22.459   3.281  0.00  0.00    -0.252 OA
ATOM      8  O   UNL     1     -40.222  20.945   1.492  0.00  0.00    -0.270 OA
ATOM      9  N   UNL     1     -37.989  24.025   2.968  0.00  0.00    -0.213 N 
ATOM     10  N   UNL     1     -38.241  21.717   2.393  0.00  0.00    -0.236 N 
ATOM     11  C   UNL     1     -37.420  22.722   2.908  0.00  0.00    +0.316 C 
ATOM     12  C   UNL     1     -39.312  24.227   2.516  0.00  0.00    +0.092 C 
ATOM     13  C   UNL     1     -40.069  23.232   2.027  0.00  0.00    +0.079 C 
ATOM     14  C   UNL     1     -39.536  21.860   1.938  0.00  0.00    +0.255 C 
ATOM     15  H   UNL     1     -37.856  20.813   2.349  0.00  0.00    +0.159 HD
ENDBRANCH   4   9
BRANCH   2  16
ATOM     16  O2* UNL     1     -35.721  24.760   1.595  0.00  0.00    -0.378 OA
ATOM     17  H2* UNL     1     -34.757  24.863   1.553  0.00  0.00    +0.211 HD
ENDBRANCH   2  16
BRANCH   3  18
ATOM     18  O3* UNL     1     -35.586  27.498   3.964  0.00  0.00    -0.379 OA
ATOM     19  H3* UNL     1     -35.849  28.126   3.273  0.00  0.00    +0.211 HD
ENDBRANCH   3  18
BRANCH   5  20
ATOM     20  C5* UNL     1     -34.519  25.600   5.761  0.00  0.00    +0.169 C 
BRANCH  20  21
ATOM     21  O5* UNL     1     -33.322  26.338   5.575  0.00  0.00    -0.379 OA
ATOM     22  H5* UNL     1     -32.565  25.731   5.570  0.00  0.00    +0.211 HD
ENDBRANCH  20  21
ENDBRANCH   5  20
TORSDOF 5
ENDMDL
MODEL 4
REMARK VINA RESULT:      -5.3      2.789      3.994
REMARK  Name = 19362123
REMARK  5 active torsions:
REMARK  status: ('A' for Active; 'I' for Inactive)
REMARK    1  A    between atoms: C2*_2  and  O2*_16
REMARK    2  A    between atoms: C3*_3  and  O3*_18
REMARK    3  A    between atoms: C1*_4  and  N_9
REMARK    4  A    between atoms: C4*_5  and  C5*_20
REMARK    5  A    between atoms: C5*_20  and  O5*_21
REMARK                            x       y       z     vdW  Elec       q    Type
REMARK                         _______ _______ _______ _____ _____    ______ ____
ROOT
ATOM      1  O4* UNL     1     -34.603  23.943   4.720  0.00  0.00    -0.333 OA
ATOM      2  C2* UNL     1     -36.131  23.607   2.926  0.00  0.00    +0.187 C 
ATOM      3  C3* UNL     1     -36.160  22.386   3.821  0.00  0.00    +0.171 C 
ATOM      4  C1* UNL     1     -34.807  24.246   3.330  0.00  0.00    +0.230 C 
ATOM      5  C4* UNL     1     -35.557  22.936   5.113  0.00  0.00    +0.175 C 
ENDROOT
BRANCH   4   9
ATOM      6  I   UNL     1     -33.320  25.017   0.483  0.00  0.00    -0.026 I 
ATOM      7  O   UNL     1     -35.842  26.105   5.156  0.00  0.00    -0.252 OA
ATOM      8  O   UNL     1     -34.600  29.707   2.594  0.00  0.00    -0.270 OA
ATOM      9  N   UNL     1     -34.748  25.665   3.131  0.00  0.00    -0.213 N 
ATOM     10  N   UNL     1     -35.219  27.889   3.875  0.00  0.00    -0.236 N 
ATOM     11  C   UNL     1     -35.306  26.517   4.125  0.00  0.00    +0.316 C 
ATOM     12  C   UNL     1     -34.156  26.232   1.980  0.00  0.00    +0.092 C 
ATOM     13  C   UNL     1     -34.093  27.557   1.779  0.00  0.00    +0.079 C 
ATOM     14  C   UNL     1     -34.653  28.493   2.771  0.00  0.00    +0.255 C 
ATOM     15  H   UNL     1     -35.601  28.486   4.557  0.00  0.00    +0.159 HD
ENDBRANCH   4   9
BRANCH   2  16
ATOM     16  O2* UNL     1     -37.220  24.462   3.264  0.00  0.00    -0.378 OA
ATOM     17  H2* UNL     1     -37.175  25.269   2.728  0.00  0.00    +0.211 HD
ENDBRANCH   2  16
BRANCH   3  18
ATOM     18  O3* UNL     1     -35.335  21.368   3.269  0.00  0.00    -0.379 OA
ATOM     19  H3* UNL     1     -34.481  21.358   3.730  0.00  0.00    +0.211 HD
ENDBRANCH   3  18
BRANCH   5  20
ATOM     20  C5* UNL     1     -34.869  21.913   6.000  0.00  0.00    +0.169 C 
BRANCH  20  21
ATOM     21  O5* UNL     1     -35.569  20.683   5.909  0.00  0.00    -0.379 OA
ATOM     22  H5* UNL     1     -35.958  20.597   5.024  0.00  0.00    +0.211 HD
ENDBRANCH  20  21
ENDBRANCH   5  20
TORSDOF 5
ENDMDL
MODEL 5
REMARK VINA RESULT:      -5.3      2.146      5.436
REMARK  Name = 19362123
REMARK  5 active torsions:
REMARK  status: ('A' for Active; 'I' for Inactive)
REMARK    1  A    between atoms: C2*_2  and  O2*_16
REMARK    2  A    between atoms: C3*_3  and  O3*_18
REMARK    3  A    between atoms: C1*_4  and  N_9
REMARK    4  A    between atoms: C4*_5  and  C5*_20
REMARK    5  A    between atoms: C5*_20  and  O5*_21
REMARK                            x       y       z     vdW  Elec       q    Type
REMARK                         _______ _______ _______ _____ _____    ______ ____
ROOT
ATOM      1  O4* UNL     1     -36.108  25.188   3.032  0.00  0.00    -0.333 OA
ATOM      2  C2* UNL     1     -35.318  23.399   4.388  0.00  0.00    +0.187 C 
ATOM      3  C3* UNL     1     -34.617  24.673   4.812  0.00  0.00    +0.171 C 
ATOM      4  C1* UNL     1     -35.824  23.779   3.002  0.00  0.00    +0.230 C 
ATOM      5  C4* UNL     1     -35.548  25.742   4.240  0.00  0.00    +0.175 C 
ENDROOT
BRANCH   4   9
ATOM      6  I   UNL     1     -35.031  21.096   1.246  0.00  0.00    -0.026 I 
ATOM      7  O   UNL     1     -38.440  24.584   3.612  0.00  0.00    -0.252 OA
ATOM      8  O   UNL     1     -40.329  21.036   1.392  0.00  0.00    -0.270 OA
ATOM      9  N   UNL     1     -36.990  23.060   2.579  0.00  0.00    -0.213 N 
ATOM     10  N   UNL     1     -39.369  22.817   2.504  0.00  0.00    -0.236 N 
ATOM     11  C   UNL     1     -38.272  23.560   2.945  0.00  0.00    +0.316 C 
ATOM     12  C   UNL     1     -36.899  21.876   1.813  0.00  0.00    +0.092 C 
ATOM     13  C   UNL     1     -37.980  21.192   1.408  0.00  0.00    +0.079 C 
ATOM     14  C   UNL     1     -39.335  21.657   1.757  0.00  0.00    +0.255 C 
ATOM     15  H   UNL     1     -40.259  23.156   2.753  0.00  0.00    +0.159 HD
ENDBRANCH   4   9
BRANCH   2  16
ATOM     16  O2* UNL     1     -36.412  23.151   5.267  0.00  0.00    -0.378 OA
ATOM     17  H2* UNL     1     -37.023  22.522   4.852  0.00  0.00    +0.211 HD
ENDBRANCH   2  16
BRANCH   3  18
ATOM     18  O3* UNL     1     -33.334  24.739   4.203  0.00  0.00    -0.379 OA
ATOM     19  H3* UNL     1     -32.940  23.852   4.183  0.00  0.00    +0.211 HD
ENDBRANCH   3  18
BRANCH   5  20
ATOM     20  C5* UNL     1     -34.894  27.075   3.923  0.00  0.00    +0.169 C 
BRANCH  20  21
ATOM     21  O5* UNL     1     -33.933  27.364   4.926  0.00  0.00    -0.379 OA
ATOM     22  H5* UNL     1     -33.833  26.594   5.509  0.00  0.00    +0.211 HD
ENDBRANCH  20  21
ENDBRANCH   5  20
TORSDOF 5
ENDMDL
MODEL 6
REMARK VINA RESULT:      -5.2      2.466      3.300
REMARK  Name = 19362123
REMARK  5 active torsions:
REMARK  status: ('A' for Active; 'I' for Inactive)
REMARK    1  A    between atoms: C2*_2  and  O2*_16
REMARK    2  A    between atoms: C3*_3  and  O3*_18
REMARK    3  A    between atoms: C1*_4  and  N_9
REMARK    4  A    between atoms: C4*_5  and  C5*_20
REMARK    5  A    between atoms: C5*_20  and  O5*_21
REMARK                            x       y       z     vdW  Elec       q    Type
REMARK                         _______ _______ _______ _____ _____    ______ ____
ROOT
ATOM      1  O4* UNL     1     -36.855  23.043   2.643  0.00  0.00    -0.333 OA
ATOM      2  C2* UNL     1     -38.311  24.919   2.804  0.00  0.00    +0.187 C 
ATOM      3  C3* UNL     1     -39.078  23.762   2.198  0.00  0.00    +0.171 C 
ATOM      4  C1* UNL     1     -36.869  24.479   2.575  0.00  0.00    +0.230 C 
ATOM      5  C4* UNL     1     -38.216  22.570   2.613  0.00  0.00    +0.175 C 
ENDROOT
BRANCH   4   9
ATOM      6  I   UNL     1     -35.411  27.205   1.412  0.00  0.00    -0.026 I 
ATOM      7  O   UNL     1     -36.361  23.329   5.081  0.00  0.00    -0.252 OA
ATOM      8  O   UNL     1     -33.262  26.524   6.210  0.00  0.00    -0.270 OA
ATOM      9  N   UNL     1     -35.929  25.017   3.514  0.00  0.00    -0.213 N 
ATOM     10  N   UNL     1     -34.821  24.923   5.632  0.00  0.00    -0.236 N 
ATOM     11  C   UNL     1     -35.750  24.351   4.759  0.00  0.00    +0.316 C 
ATOM     12  C   UNL     1     -35.183  26.184   3.236  0.00  0.00    +0.092 C 
ATOM     13  C   UNL     1     -34.299  26.701   4.103  0.00  0.00    +0.079 C 
ATOM     14  C   UNL     1     -34.068  26.058   5.410  0.00  0.00    +0.255 C 
ATOM     15  H   UNL     1     -34.691  24.468   6.495  0.00  0.00    +0.159 HD
ENDBRANCH   4   9
BRANCH   2  16
ATOM     16  O2* UNL     1     -38.594  24.990   4.198  0.00  0.00    -0.378 OA
ATOM     17  H2* UNL     1     -38.938  25.871   4.413  0.00  0.00    +0.211 HD
ENDBRANCH   2  16
BRANCH   3  18
ATOM     18  O3* UNL     1     -39.109  23.896   0.783  0.00  0.00    -0.379 OA
ATOM     19  H3* UNL     1     -39.434  23.072   0.387  0.00  0.00    +0.211 HD
ENDBRANCH   3  18
BRANCH   5  20
ATOM     20  C5* UNL     1     -38.304  21.353   1.709  0.00  0.00    +0.169 C 
BRANCH  20  21
ATOM     21  O5* UNL     1     -39.659  20.942   1.624  0.00  0.00    -0.379 OA
ATOM     22  H5* UNL     1     -40.165  21.599   1.120  0.00  0.00    +0.211 HD
ENDBRANCH  20  21
ENDBRANCH   5  20
TORSDOF 5
ENDMDL
MODEL 7
REMARK VINA RESULT:      -5.2      2.348      4.543
REMARK  Name = 19362123
REMARK  5 active torsions:
REMARK  status: ('A' for Active; 'I' for Inactive)
REMARK    1  A    between atoms: C2*_2  and  O2*_16
REMARK    2  A    between atoms: C3*_3  and  O3*_18
REMARK    3  A    between atoms: C1*_4  and  N_9
REMARK    4  A    between atoms: C4*_5  and  C5*_20
REMARK    5  A    between atoms: C5*_20  and  O5*_21
REMARK                            x       y       z     vdW  Elec       q    Type
REMARK                         _______ _______ _______ _____ _____    ______ ____
ROOT
ATOM      1  O4* UNL     1     -36.592  24.772   1.509  0.00  0.00    -0.333 OA
ATOM      2  C2* UNL     1     -37.715  25.807   3.334  0.00  0.00    +0.187 C 
ATOM      3  C3* UNL     1     -38.182  26.456   2.047  0.00  0.00    +0.171 C 
ATOM      4  C1* UNL     1     -36.417  25.147   2.885  0.00  0.00    +0.230 C 
ATOM      5  C4* UNL     1     -37.787  25.404   1.011  0.00  0.00    +0.175 C 
ENDROOT
BRANCH   4   9
ATOM      6  I   UNL     1     -34.430  25.962   5.396  0.00  0.00    -0.026 I 
ATOM      7  O   UNL     1     -37.281  22.545   2.301  0.00  0.00    -0.252 OA
ATOM      8  O   UNL     1     -34.984  20.709   5.828  0.00  0.00    -0.270 OA
ATOM      9  N   UNL     1     -36.039  23.998   3.656  0.00  0.00    -0.213 N 
ATOM     10  N   UNL     1     -36.134  21.642   4.057  0.00  0.00    -0.236 N 
ATOM     11  C   UNL     1     -36.537  22.722   3.269  0.00  0.00    +0.316 C 
ATOM     12  C   UNL     1     -35.192  24.102   4.782  0.00  0.00    +0.092 C 
ATOM     13  C   UNL     1     -34.828  23.037   5.513  0.00  0.00    +0.079 C 
ATOM     14  C   UNL     1     -35.311  21.688   5.164  0.00  0.00    +0.255 C 
ATOM     15  H   UNL     1     -36.473  20.756   3.796  0.00  0.00    +0.159 HD
ENDBRANCH   4   9
BRANCH   2  16
ATOM     16  O2* UNL     1     -38.664  24.821   3.732  0.00  0.00    -0.378 OA
ATOM     17  H2* UNL     1     -39.495  24.960   3.252  0.00  0.00    +0.211 HD
ENDBRANCH   2  16
BRANCH   3  18
ATOM     18  O3* UNL     1     -37.470  27.668   1.837  0.00  0.00    -0.379 OA
ATOM     19  H3* UNL     1     -36.775  27.524   1.176  0.00  0.00    +0.211 HD
ENDBRANCH   3  18
BRANCH   5  20
ATOM     20  C5* UNL     1     -37.529  25.932  -0.389  0.00  0.00    +0.169 C 
BRANCH  20  21
ATOM     21  O5* UNL     1     -36.192  26.398  -0.464  0.00  0.00    -0.379 OA
ATOM     22  H5* UNL     1     -35.588  25.640  -0.529  0.00  0.00    +0.211 HD
ENDBRANCH  20  21
ENDBRANCH   5  20
TORSDOF 5
ENDMDL
MODEL 8
REMARK VINA RESULT:      -5.1      2.412      3.406
REMARK  Name = 19362123
REMARK  5 active torsions:
REMARK  status: ('A' for Active; 'I' for Inactive)
REMARK    1  A    between atoms: C2*_2  and  O2*_16
REMARK    2  A    between atoms: C3*_3  and  O3*_18
REMARK    3  A    between atoms: C1*_4  and  N_9
REMARK    4  A    between atoms: C4*_5  and  C5*_20
REMARK    5  A    between atoms: C5*_20  and  O5*_21
REMARK                            x       y       z     vdW  Elec       q    Type
REMARK                         _______ _______ _______ _____ _____    ______ ____
ROOT
ATOM      1  O4* UNL     1     -34.984  22.850   3.159  0.00  0.00    -0.333 OA
ATOM      2  C2* UNL     1     -36.988  24.128   3.044  0.00  0.00    +0.187 C 
ATOM      3  C3* UNL     1     -37.312  22.688   2.703  0.00  0.00    +0.171 C 
ATOM      4  C1* UNL     1     -35.479  24.157   2.827  0.00  0.00    +0.230 C 
ATOM      5  C4* UNL     1     -36.106  21.954   3.287  0.00  0.00    +0.175 C 
ENDROOT
BRANCH   4   9
ATOM      6  I   UNL     1     -34.767  26.834   1.027  0.00  0.00    -0.026 I 
ATOM      7  O   UNL     1     -34.833  23.824   5.535  0.00  0.00    -0.252 OA
ATOM      8  O   UNL     1     -32.826  27.944   5.833  0.00  0.00    -0.270 OA
ATOM      9  N   UNL     1     -34.789  25.147   3.601  0.00  0.00    -0.213 N 
ATOM     10  N   UNL     1     -33.837  25.874   5.672  0.00  0.00    -0.236 N 
ATOM     11  C   UNL     1     -34.511  24.873   4.970  0.00  0.00    +0.316 C 
ATOM     12  C   UNL     1     -34.381  26.379   3.043  0.00  0.00    +0.092 C 
ATOM     13  C   UNL     1     -33.733  27.316   3.753  0.00  0.00    +0.079 C 
ATOM     14  C   UNL     1     -33.418  27.092   5.176  0.00  0.00    +0.255 C 
ATOM     15  H   UNL     1     -33.640  25.692   6.619  0.00  0.00    +0.159 HD
ENDBRANCH   4   9
BRANCH   2  16
ATOM     16  O2* UNL     1     -37.299  24.366   4.414  0.00  0.00    -0.378 OA
ATOM     17  H2* UNL     1     -37.836  23.634   4.755  0.00  0.00    +0.211 HD
ENDBRANCH   2  16
BRANCH   3  18
ATOM     18  O3* UNL     1     -37.366  22.531   1.291  0.00  0.00    -0.379 OA
ATOM     19  H3* UNL     1     -37.944  23.213   0.912  0.00  0.00    +0.211 HD
ENDBRANCH   3  18
BRANCH   5  20
ATOM     20  C5* UNL     1     -35.767  20.628   2.629  0.00  0.00    +0.169 C 
BRANCH  20  21
ATOM     21  O5* UNL     1     -36.926  19.812   2.618  0.00  0.00    -0.379 OA
ATOM     22  H5* UNL     1     -37.412  19.950   1.790  0.00  0.00    +0.211 HD
ENDBRANCH  20  21
ENDBRANCH   5  20
TORSDOF 5
ENDMDL
MODEL 9
REMARK VINA RESULT:      -4.9      3.201      4.734
REMARK  Name = 19362123
REMARK  5 active torsions:
REMARK  status: ('A' for Active; 'I' for Inactive)
REMARK    1  A    between atoms: C2*_2  and  O2*_16
REMARK    2  A    between atoms: C3*_3  and  O3*_18
REMARK    3  A    between atoms: C1*_4  and  N_9
REMARK    4  A    between atoms: C4*_5  and  C5*_20
REMARK    5  A    between atoms: C5*_20  and  O5*_21
REMARK                            x       y       z     vdW  Elec       q    Type
REMARK                         _______ _______ _______ _____ _____    ______ ____
ROOT
ATOM      1  O4* UNL     1     -33.948  20.466   1.401  0.00  0.00    -0.333 OA
ATOM      2  C2* UNL     1     -35.916  19.592   0.388  0.00  0.00    +0.187 C 
ATOM      3  C3* UNL     1     -34.774  18.629   0.136  0.00  0.00    +0.171 C 
ATOM      4  C1* UNL     1     -35.162  20.867   0.745  0.00  0.00    +0.230 C 
ATOM      5  C4* UNL     1     -33.775  19.047   1.215  0.00  0.00    +0.175 C 
ENDROOT
BRANCH   4   9
ATOM      6  I   UNL     1     -36.603  23.273  -1.002  0.00  0.00    -0.026 I 
ATOM      7  O   UNL     1     -35.322  20.588   3.531  0.00  0.00    -0.252 OA
ATOM      8  O   UNL     1     -37.958  24.317   4.015  0.00  0.00    -0.270 OA
ATOM      9  N   UNL     1     -35.891  21.770   1.588  0.00  0.00    -0.213 N 
ATOM     10  N   UNL     1     -36.632  22.445   3.760  0.00  0.00    -0.236 N 
ATOM     11  C   UNL     1     -35.905  21.533   2.992  0.00  0.00    +0.316 C 
ATOM     12  C   UNL     1     -36.591  22.879   1.063  0.00  0.00    +0.092 C 
ATOM     13  C   UNL     1     -37.278  23.733   1.838  0.00  0.00    +0.079 C 
ATOM     14  C   UNL     1     -37.332  23.541   3.299  0.00  0.00    +0.255 C 
ATOM     15  H   UNL     1     -36.646  22.289   4.732  0.00  0.00    +0.159 HD
ENDBRANCH   4   9
BRANCH   2  16
ATOM     16  O2* UNL     1     -36.677  19.134   1.502  0.00  0.00    -0.378 OA
ATOM     17  H2* UNL     1     -36.242  18.362   1.895  0.00  0.00    +0.211 HD
ENDBRANCH   2  16
BRANCH   3  18
ATOM     18  O3* UNL     1     -34.239  18.849  -1.163  0.00  0.00    -0.379 OA
ATOM     19  H3* UNL     1     -33.270  18.856  -1.116  0.00  0.00    +0.211 HD
ENDBRANCH   3  18
BRANCH   5  20
ATOM     20  C5* UNL     1     -32.318  18.756   0.904  0.00  0.00    +0.169 C 
BRANCH  20  21
ATOM     21  O5* UNL     1     -31.886  17.668   1.706  0.00  0.00    -0.379 OA
ATOM     22  H5* UNL     1     -32.352  17.689   2.557  0.00  0.00    +0.211 HD
ENDBRANCH  20  21
ENDBRANCH   5  20
TORSDOF 5
ENDMDL
