MODEL 1
REMARK VINA RESULT:      -5.7      0.000      0.000
REMARK  Name = 60693
REMARK  5 active torsions:
REMARK  status: ('A' for Active; 'I' for Inactive)
REMARK    1  A    between atoms: C_5  and  N_18
REMARK    2  A    between atoms: C_11  and  S_12
REMARK    3  A    between atoms: S_12  and  N_15
REMARK    4  A    between atoms: N_18  and  C_21
REMARK    5  A    between atoms: C_21  and  C_22
REMARK                            x       y       z     vdW  Elec       q    Type
REMARK                         _______ _______ _______ _____ _____    ______ ____
ROOT
ATOM      1  S   UNL     1     -39.530  21.805   0.362  0.00  0.00    +0.014 S 
ATOM      2  S   UNL     1     -41.124  24.176   1.144  0.00  0.00    -0.049 S 
ATOM      3  O   UNL     1     -40.577  20.946   0.870  0.00  0.00    -0.168 OA
ATOM      4  O   UNL     1     -39.425  22.189  -1.030  0.00  0.00    -0.168 OA
ATOM      5  C   UNL     1     -37.345  23.360   2.257  0.00  0.00    -0.035 C 
ATOM      6  C   UNL     1     -36.941  22.348   1.157  0.00  0.00    +0.009 C 
ATOM      7  C   UNL     1     -38.713  23.940   2.028  0.00  0.00    -0.017 C 
ATOM      8  C   UNL     1     -37.942  21.209   0.935  0.00  0.00    +0.155 C 
ATOM      9  C   UNL     1     -39.667  23.316   1.251  0.00  0.00    +0.130 C 
ATOM     10  C   UNL     1     -39.216  25.174   2.547  0.00  0.00    +0.022 C 
ATOM     11  C   UNL     1     -40.514  25.421   2.149  0.00  0.00    +0.152 C 
ENDROOT
BRANCH  11  12
ATOM     12  S   UNL     1     -41.637  26.735   2.460  0.00  0.00    +0.063 S 
ATOM     13  O   UNL     1     -41.286  27.792   1.518  0.00  0.00    -0.153 OA
ATOM     14  O   UNL     1     -42.958  26.121   2.426  0.00  0.00    -0.153 OA
BRANCH  12  15
ATOM     15  N   UNL     1     -41.359  27.334   4.046  0.00  0.00    -0.203 NA
ATOM     16  H   UNL     1     -41.726  26.670   4.729  0.00  0.00    +0.144 HD
ATOM     17  H   UNL     1     -41.830  28.232   4.157  0.00  0.00    +0.144 HD
ENDBRANCH  12  15
ENDBRANCH  11  12
BRANCH   5  18
ATOM     18  N   UNL     1     -37.323  22.754   3.588  0.00  0.00    +0.388 N 
ATOM     19  H   UNL     1     -37.846  21.879   3.567  0.00  0.00    -0.084 HD
ATOM     20  H   UNL     1     -37.748  23.403   4.251  0.00  0.00    -0.084 HD
BRANCH  18  21
ATOM     21  C   UNL     1     -35.957  22.485   4.008  0.00  0.00    -0.081 C 
BRANCH  21  22
ATOM     22  C   UNL     1     -35.612  23.153   5.350  0.00  0.00    -0.021 C 
ATOM     23  C   UNL     1     -35.168  22.089   6.358  0.00  0.00    -0.002 C 
ATOM     24  C   UNL     1     -34.522  24.218   5.213  0.00  0.00    -0.002 C 
ENDBRANCH  21  22
ENDBRANCH  18  21
ENDBRANCH   5  18
TORSDOF 5
ENDMDL
MODEL 2
REMARK VINA RESULT:      -5.6      3.871      4.741
REMARK  Name = 60693
REMARK  5 active torsions:
REMARK  status: ('A' for Active; 'I' for Inactive)
REMARK    1  A    between atoms: C_5  and  N_18
REMARK    2  A    between atoms: C_11  and  S_12
REMARK    3  A    between atoms: S_12  and  N_15
REMARK    4  A    between atoms: N_18  and  C_21
REMARK    5  A    between atoms: C_21  and  C_22
REMARK                            x       y       z     vdW  Elec       q    Type
REMARK                         _______ _______ _______ _____ _____    ______ ____
ROOT
ATOM      1  S   UNL     1     -39.382  21.654   0.876  0.00  0.00    +0.014 S 
ATOM      2  S   UNL     1     -38.141  23.433   2.894  0.00  0.00    -0.049 S 
ATOM      3  O   UNL     1     -40.233  21.098   1.905  0.00  0.00    -0.168 OA
ATOM      4  O   UNL     1     -39.793  22.735   0.006  0.00  0.00    -0.168 OA
ATOM      5  C   UNL     1     -36.222  20.856   0.474  0.00  0.00    -0.035 C 
ATOM      6  C   UNL     1     -37.291  20.656  -0.629  0.00  0.00    +0.009 C 
ATOM      7  C   UNL     1     -36.630  21.887   1.489  0.00  0.00    -0.017 C 
ATOM      8  C   UNL     1     -38.694  20.327  -0.108  0.00  0.00    +0.155 C 
ATOM      9  C   UNL     1     -37.944  22.245   1.702  0.00  0.00    +0.130 C 
ATOM     10  C   UNL     1     -35.761  22.631   2.348  0.00  0.00    +0.022 C 
ATOM     11  C   UNL     1     -36.451  23.502   3.165  0.00  0.00    +0.152 C 
ENDROOT
BRANCH  11  12
ATOM     12  S   UNL     1     -35.948  24.646   4.399  0.00  0.00    +0.063 S 
ATOM     13  O   UNL     1     -36.076  23.944   5.672  0.00  0.00    -0.153 OA
ATOM     14  O   UNL     1     -34.652  25.140   3.953  0.00  0.00    -0.153 OA
BRANCH  12  15
ATOM     15  N   UNL     1     -37.054  25.962   4.413  0.00  0.00    -0.203 NA
ATOM     16  H   UNL     1     -36.598  26.793   4.036  0.00  0.00    +0.144 HD
ATOM     17  H   UNL     1     -37.353  26.143   5.371  0.00  0.00    +0.144 HD
ENDBRANCH  12  15
ENDBRANCH  11  12
BRANCH   5  18
ATOM     18  N   UNL     1     -35.931  19.609   1.181  0.00  0.00    +0.388 N 
ATOM     19  H   UNL     1     -36.751  19.004   1.146  0.00  0.00    -0.084 HD
ATOM     20  H   UNL     1     -35.696  19.828   2.149  0.00  0.00    -0.084 HD
BRANCH  18  21
ATOM     21  C   UNL     1     -34.805  18.922   0.570  0.00  0.00    -0.081 C 
BRANCH  21  22
ATOM     22  C   UNL     1     -33.458  19.342   1.183  0.00  0.00    -0.021 C 
ATOM     23  C   UNL     1     -32.590  18.104   1.423  0.00  0.00    -0.002 C 
ATOM     24  C   UNL     1     -32.699  20.339   0.303  0.00  0.00    -0.002 C 
ENDBRANCH  21  22
ENDBRANCH  18  21
ENDBRANCH   5  18
TORSDOF 5
ENDMDL
MODEL 3
REMARK VINA RESULT:      -5.5      3.449      4.817
REMARK  Name = 60693
REMARK  5 active torsions:
REMARK  status: ('A' for Active; 'I' for Inactive)
REMARK    1  A    between atoms: C_5  and  N_18
REMARK    2  A    between atoms: C_11  and  S_12
REMARK    3  A    between atoms: S_12  and  N_15
REMARK    4  A    between atoms: N_18  and  C_21
REMARK    5  A    between atoms: C_21  and  C_22
REMARK                            x       y       z     vdW  Elec       q    Type
REMARK                         _______ _______ _______ _____ _____    ______ ____
ROOT
ATOM      1  S   UNL     1     -35.513  25.817   4.398  0.00  0.00    +0.014 S 
ATOM      2  S   UNL     1     -38.072  25.847   2.906  0.00  0.00    -0.049 S 
ATOM      3  O   UNL     1     -34.933  26.691   3.402  0.00  0.00    -0.168 OA
ATOM      4  O   UNL     1     -36.093  26.298   5.634  0.00  0.00    -0.168 OA
ATOM      5  C   UNL     1     -35.965  22.592   3.975  0.00  0.00    -0.035 C 
ATOM      6  C   UNL     1     -35.094  23.181   5.112  0.00  0.00    +0.009 C 
ATOM      7  C   UNL     1     -36.962  23.583   3.443  0.00  0.00    -0.017 C 
ATOM      8  C   UNL     1     -34.371  24.485   4.756  0.00  0.00    +0.155 C 
ATOM      9  C   UNL     1     -36.808  24.945   3.586  0.00  0.00    +0.130 C 
ATOM     10  C   UNL     1     -38.174  23.284   2.747  0.00  0.00    +0.022 C 
ATOM     11  C   UNL     1     -38.870  24.422   2.393  0.00  0.00    +0.152 C 
ENDROOT
BRANCH  11  12
ATOM     12  S   UNL     1     -40.383  24.690   1.542  0.00  0.00    +0.063 S 
ATOM     13  O   UNL     1     -40.929  23.365   1.268  0.00  0.00    -0.153 OA
ATOM     14  O   UNL     1     -41.120  25.638   2.367  0.00  0.00    -0.153 OA
BRANCH  12  15
ATOM     15  N   UNL     1     -40.041  25.437   0.033  0.00  0.00    -0.203 NA
ATOM     16  H   UNL     1     -40.847  25.988  -0.265  0.00  0.00    +0.144 HD
ATOM     17  H   UNL     1     -39.844  24.719  -0.664  0.00  0.00    +0.144 HD
ENDBRANCH  12  15
ENDBRANCH  11  12
BRANCH   5  18
ATOM     18  N   UNL     1     -35.149  22.119   2.856  0.00  0.00    +0.388 N 
ATOM     19  H   UNL     1     -34.163  22.250   3.080  0.00  0.00    -0.084 HD
ATOM     20  H   UNL     1     -35.395  22.653   2.022  0.00  0.00    -0.084 HD
BRANCH  18  21
ATOM     21  C   UNL     1     -35.397  20.710   2.598  0.00  0.00    -0.081 C 
BRANCH  21  22
ATOM     22  C   UNL     1     -34.742  20.227   1.293  0.00  0.00    -0.021 C 
ATOM     23  C   UNL     1     -34.135  21.419   0.547  0.00  0.00    -0.002 C 
ATOM     24  C   UNL     1     -33.664  19.168   1.533  0.00  0.00    -0.002 C 
ENDBRANCH  21  22
ENDBRANCH  18  21
ENDBRANCH   5  18
TORSDOF 5
ENDMDL
MODEL 4
REMARK VINA RESULT:      -5.4      3.015      3.510
REMARK  Name = 60693
REMARK  5 active torsions:
REMARK  status: ('A' for Active; 'I' for Inactive)
REMARK    1  A    between atoms: C_5  and  N_18
REMARK    2  A    between atoms: C_11  and  S_12
REMARK    3  A    between atoms: S_12  and  N_15
REMARK    4  A    between atoms: N_18  and  C_21
REMARK    5  A    between atoms: C_21  and  C_22
REMARK                            x       y       z     vdW  Elec       q    Type
REMARK                         _______ _______ _______ _____ _____    ______ ____
ROOT
ATOM      1  S   UNL     1     -39.977  24.100   1.165  0.00  0.00    +0.014 S 
ATOM      2  S   UNL     1     -38.279  26.524   1.303  0.00  0.00    -0.049 S 
ATOM      3  O   UNL     1     -40.911  24.715   2.084  0.00  0.00    -0.168 OA
ATOM      4  O   UNL     1     -40.132  24.149  -0.273  0.00  0.00    -0.168 OA
ATOM      5  C   UNL     1     -37.126  22.747   2.072  0.00  0.00    -0.035 C 
ATOM      6  C   UNL     1     -38.242  21.958   1.343  0.00  0.00    +0.009 C 
ATOM      7  C   UNL     1     -37.238  24.230   1.857  0.00  0.00    -0.017 C 
ATOM      8  C   UNL     1     -39.668  22.412   1.674  0.00  0.00    +0.155 C 
ATOM      9  C   UNL     1     -38.416  24.844   1.489  0.00  0.00    +0.130 C 
ATOM     10  C   UNL     1     -36.188  25.193   1.986  0.00  0.00    +0.022 C 
ATOM     11  C   UNL     1     -36.617  26.477   1.718  0.00  0.00    +0.152 C 
ENDROOT
BRANCH  11  12
ATOM     12  S   UNL     1     -35.812  28.038   1.715  0.00  0.00    +0.063 S 
ATOM     13  O   UNL     1     -34.622  27.873   0.887  0.00  0.00    -0.153 OA
ATOM     14  O   UNL     1     -36.845  28.997   1.344  0.00  0.00    -0.153 OA
BRANCH  12  15
ATOM     15  N   UNL     1     -35.293  28.393   3.314  0.00  0.00    -0.203 NA
ATOM     16  H   UNL     1     -34.362  28.004   3.463  0.00  0.00    +0.144 HD
ATOM     17  H   UNL     1     -35.945  27.981   3.981  0.00  0.00    +0.144 HD
ENDBRANCH  12  15
ENDBRANCH  11  12
BRANCH   5  18
ATOM     18  N   UNL     1     -37.134  22.493   3.514  0.00  0.00    +0.388 N 
ATOM     19  H   UNL     1     -37.657  21.637   3.701  0.00  0.00    -0.084 HD
ATOM     20  H   UNL     1     -37.574  23.284   3.984  0.00  0.00    -0.084 HD
BRANCH  18  21
ATOM     21  C   UNL     1     -35.778  22.343   4.017  0.00  0.00    -0.081 C 
BRANCH  21  22
ATOM     22  C   UNL     1     -35.560  23.086   5.346  0.00  0.00    -0.021 C 
ATOM     23  C   UNL     1     -35.179  22.084   6.440  0.00  0.00    -0.002 C 
ATOM     24  C   UNL     1     -34.484  24.169   5.244  0.00  0.00    -0.002 C 
ENDBRANCH  21  22
ENDBRANCH  18  21
ENDBRANCH   5  18
TORSDOF 5
ENDMDL
MODEL 5
REMARK VINA RESULT:      -5.3      6.532      8.363
REMARK  Name = 60693
REMARK  5 active torsions:
REMARK  status: ('A' for Active; 'I' for Inactive)
REMARK    1  A    between atoms: C_5  and  N_18
REMARK    2  A    between atoms: C_11  and  S_12
REMARK    3  A    between atoms: S_12  and  N_15
REMARK    4  A    between atoms: N_18  and  C_21
REMARK    5  A    between atoms: C_21  and  C_22
REMARK                            x       y       z     vdW  Elec       q    Type
REMARK                         _______ _______ _______ _____ _____    ______ ____
ROOT
ATOM      1  S   UNL     1     -32.287  28.066   4.694  0.00  0.00    +0.014 S 
ATOM      2  S   UNL     1     -34.090  25.717   4.743  0.00  0.00    -0.049 S 
ATOM      3  O   UNL     1     -32.422  28.188   6.129  0.00  0.00    -0.168 OA
ATOM      4  O   UNL     1     -31.195  27.361   4.057  0.00  0.00    -0.168 OA
ATOM      5  C   UNL     1     -34.564  29.051   2.542  0.00  0.00    -0.035 C 
ATOM      6  C   UNL     1     -33.117  29.603   2.554  0.00  0.00    +0.009 C 
ATOM      7  C   UNL     1     -34.672  27.711   3.215  0.00  0.00    -0.017 C 
ATOM      8  C   UNL     1     -32.472  29.680   3.941  0.00  0.00    +0.155 C 
ATOM      9  C   UNL     1     -33.748  27.261   4.134  0.00  0.00    +0.130 C 
ATOM     10  C   UNL     1     -35.697  26.734   3.013  0.00  0.00    +0.022 C 
ATOM     11  C   UNL     1     -35.505  25.606   3.784  0.00  0.00    +0.152 C 
ENDROOT
BRANCH  11  12
ATOM     12  S   UNL     1     -36.405  24.109   3.968  0.00  0.00    +0.063 S 
ATOM     13  O   UNL     1     -37.810  24.494   4.055  0.00  0.00    -0.153 OA
ATOM     14  O   UNL     1     -35.938  23.249   2.888  0.00  0.00    -0.153 OA
BRANCH  12  15
ATOM     15  N   UNL     1     -35.968  23.384   5.464  0.00  0.00    -0.203 NA
ATOM     16  H   UNL     1     -35.306  23.987   5.953  0.00  0.00    +0.144 HD
ATOM     17  H   UNL     1     -35.537  22.477   5.288  0.00  0.00    +0.144 HD
ENDBRANCH  12  15
ENDBRANCH  11  12
BRANCH   5  18
ATOM     18  N   UNL     1     -35.500  29.966   3.195  0.00  0.00    +0.388 N 
ATOM     19  H   UNL     1     -35.191  30.136   4.152  0.00  0.00    -0.084 HD
ATOM     20  H   UNL     1     -36.428  29.543   3.193  0.00  0.00    -0.084 HD
BRANCH  18  21
ATOM     21  C   UNL     1     -35.562  31.232   2.482  0.00  0.00    -0.081 C 
BRANCH  21  22
ATOM     22  C   UNL     1     -36.708  31.273   1.456  0.00  0.00    -0.021 C 
ATOM     23  C   UNL     1     -37.653  32.432   1.784  0.00  0.00    -0.002 C 
ATOM     24  C   UNL     1     -36.203  31.412   0.018  0.00  0.00    -0.002 C 
ENDBRANCH  21  22
ENDBRANCH  18  21
ENDBRANCH   5  18
TORSDOF 5
ENDMDL
MODEL 6
REMARK VINA RESULT:      -5.3      5.209      6.289
REMARK  Name = 60693
REMARK  5 active torsions:
REMARK  status: ('A' for Active; 'I' for Inactive)
REMARK    1  A    between atoms: C_5  and  N_18
REMARK    2  A    between atoms: C_11  and  S_12
REMARK    3  A    between atoms: S_12  and  N_15
REMARK    4  A    between atoms: N_18  and  C_21
REMARK    5  A    between atoms: C_21  and  C_22
REMARK                            x       y       z     vdW  Elec       q    Type
REMARK                         _______ _______ _______ _____ _____    ______ ____
ROOT
ATOM      1  S   UNL     1     -36.452  27.026   0.811  0.00  0.00    +0.014 S 
ATOM      2  S   UNL     1     -34.476  28.172   2.697  0.00  0.00    -0.049 S 
ATOM      3  O   UNL     1     -37.493  27.806   1.443  0.00  0.00    -0.168 OA
ATOM      4  O   UNL     1     -35.745  27.460  -0.376  0.00  0.00    -0.168 OA
ATOM      5  C   UNL     1     -35.200  24.265   2.072  0.00  0.00    -0.035 C 
ATOM      6  C   UNL     1     -35.889  24.325   0.687  0.00  0.00    +0.009 C 
ATOM      7  C   UNL     1     -34.703  25.610   2.525  0.00  0.00    -0.017 C 
ATOM      8  C   UNL     1     -37.026  25.347   0.580  0.00  0.00    +0.155 C 
ATOM      9  C   UNL     1     -35.207  26.795   2.033  0.00  0.00    +0.130 C 
ATOM     10  C   UNL     1     -33.673  25.861   3.484  0.00  0.00    +0.022 C 
ATOM     11  C   UNL     1     -33.452  27.209   3.676  0.00  0.00    +0.152 C 
ENDROOT
BRANCH  11  12
ATOM     12  S   UNL     1     -32.349  28.113   4.701  0.00  0.00    +0.063 S 
ATOM     13  O   UNL     1     -31.007  27.786   4.231  0.00  0.00    -0.153 OA
ATOM     14  O   UNL     1     -32.833  29.487   4.662  0.00  0.00    -0.153 OA
BRANCH  12  15
ATOM     15  N   UNL     1     -32.495  27.533   6.312  0.00  0.00    -0.203 NA
ATOM     16  H   UNL     1     -32.265  28.283   6.966  0.00  0.00    +0.144 HD
ATOM     17  H   UNL     1     -31.853  26.753   6.451  0.00  0.00    +0.144 HD
ENDBRANCH  12  15
ENDBRANCH  11  12
BRANCH   5  18
ATOM     18  N   UNL     1     -36.096  23.739   3.103  0.00  0.00    +0.388 N 
ATOM     19  H   UNL     1     -36.994  23.505   2.679  0.00  0.00    -0.084 HD
ATOM     20  H   UNL     1     -36.221  24.451   3.823  0.00  0.00    -0.084 HD
BRANCH  18  21
ATOM     21  C   UNL     1     -35.533  22.547   3.715  0.00  0.00    -0.081 C 
BRANCH  21  22
ATOM     22  C   UNL     1     -35.005  22.810   5.136  0.00  0.00    -0.021 C 
ATOM     23  C   UNL     1     -35.704  24.037   5.728  0.00  0.00    -0.002 C 
ATOM     24  C   UNL     1     -35.198  21.609   6.065  0.00  0.00    -0.002 C 
ENDBRANCH  21  22
ENDBRANCH  18  21
ENDBRANCH   5  18
TORSDOF 5
ENDMDL
MODEL 7
REMARK VINA RESULT:      -5.2      5.331      6.365
REMARK  Name = 60693
REMARK  5 active torsions:
REMARK  status: ('A' for Active; 'I' for Inactive)
REMARK    1  A    between atoms: C_5  and  N_18
REMARK    2  A    between atoms: C_11  and  S_12
REMARK    3  A    between atoms: S_12  and  N_15
REMARK    4  A    between atoms: N_18  and  C_21
REMARK    5  A    between atoms: C_21  and  C_22
REMARK                            x       y       z     vdW  Elec       q    Type
REMARK                         _______ _______ _______ _____ _____    ______ ____
ROOT
ATOM      1  S   UNL     1     -36.777  23.635   4.057  0.00  0.00    +0.014 S 
ATOM      2  S   UNL     1     -34.874  25.798   4.749  0.00  0.00    -0.049 S 
ATOM      3  O   UNL     1     -36.341  22.893   5.220  0.00  0.00    -0.168 OA
ATOM      4  O   UNL     1     -37.939  24.499   4.057  0.00  0.00    -0.168 OA
ATOM      5  C   UNL     1     -35.081  23.821   1.251  0.00  0.00    -0.035 C 
ATOM      6  C   UNL     1     -36.520  23.254   1.333  0.00  0.00    +0.009 C 
ATOM      7  C   UNL     1     -34.753  24.723   2.408  0.00  0.00    -0.017 C 
ATOM      8  C   UNL     1     -36.852  22.537   2.646  0.00  0.00    +0.155 C 
ATOM      9  C   UNL     1     -35.429  24.673   3.608  0.00  0.00    +0.130 C 
ATOM     10  C   UNL     1     -33.742  25.735   2.442  0.00  0.00    +0.022 C 
ATOM     11  C   UNL     1     -33.697  26.391   3.655  0.00  0.00    +0.152 C 
ENDROOT
BRANCH  11  12
ATOM     12  S   UNL     1     -32.694  27.689   4.283  0.00  0.00    +0.063 S 
ATOM     13  O   UNL     1     -31.359  27.461   3.742  0.00  0.00    -0.153 OA
ATOM     14  O   UNL     1     -33.421  28.914   3.972  0.00  0.00    -0.153 OA
BRANCH  12  15
ATOM     15  N   UNL     1     -32.601  27.535   5.992  0.00  0.00    -0.203 NA
ATOM     16  H   UNL     1     -31.624  27.443   6.272  0.00  0.00    +0.144 HD
ATOM     17  H   UNL     1     -33.118  26.706   6.286  0.00  0.00    +0.144 HD
ENDBRANCH  12  15
ENDBRANCH  11  12
BRANCH   5  18
ATOM     18  N   UNL     1     -34.079  22.755   1.206  0.00  0.00    +0.388 N 
ATOM     19  H   UNL     1     -34.192  22.154   2.021  0.00  0.00    -0.084 HD
ATOM     20  H   UNL     1     -33.151  23.177   1.205  0.00  0.00    -0.084 HD
BRANCH  18  21
ATOM     21  C   UNL     1     -34.232  21.957  -0.000  0.00  0.00    -0.081 C 
BRANCH  21  22
ATOM     22  C   UNL     1     -33.882  20.476   0.227  0.00  0.00    -0.021 C 
ATOM     23  C   UNL     1     -32.361  20.299   0.230  0.00  0.00    -0.002 C 
ATOM     24  C   UNL     1     -34.466  19.928   1.531  0.00  0.00    -0.002 C 
ENDBRANCH  21  22
ENDBRANCH  18  21
ENDBRANCH   5  18
TORSDOF 5
ENDMDL
MODEL 8
REMARK VINA RESULT:      -5.2      3.795      6.587
REMARK  Name = 60693
REMARK  5 active torsions:
REMARK  status: ('A' for Active; 'I' for Inactive)
REMARK    1  A    between atoms: C_5  and  N_18
REMARK    2  A    between atoms: C_11  and  S_12
REMARK    3  A    between atoms: S_12  and  N_15
REMARK    4  A    between atoms: N_18  and  C_21
REMARK    5  A    between atoms: C_21  and  C_22
REMARK                            x       y       z     vdW  Elec       q    Type
REMARK                         _______ _______ _______ _____ _____    ______ ____
ROOT
ATOM      1  S   UNL     1     -38.413  21.356  -0.066  0.00  0.00    +0.014 S 
ATOM      2  S   UNL     1     -36.119  19.497  -0.305  0.00  0.00    -0.049 S 
ATOM      3  O   UNL     1     -38.113  21.880  -1.380  0.00  0.00    -0.168 OA
ATOM      4  O   UNL     1     -39.386  20.309   0.167  0.00  0.00    -0.168 OA
ATOM      5  C   UNL     1     -36.752  22.148   2.654  0.00  0.00    -0.035 C 
ATOM      6  C   UNL     1     -38.272  22.394   2.490  0.00  0.00    +0.009 C 
ATOM      7  C   UNL     1     -36.240  21.084   1.724  0.00  0.00    -0.017 C 
ATOM      8  C   UNL     1     -38.719  22.714   1.059  0.00  0.00    +0.155 C 
ATOM      9  C   UNL     1     -36.896  20.727   0.565  0.00  0.00    +0.130 C 
ATOM     10  C   UNL     1     -35.052  20.304   1.890  0.00  0.00    +0.022 C 
ATOM     11  C   UNL     1     -34.864  19.408   0.858  0.00  0.00    +0.152 C 
ENDROOT
BRANCH  11  12
ATOM     12  S   UNL     1     -33.620  18.217   0.511  0.00  0.00    +0.063 S 
ATOM     13  O   UNL     1     -33.065  18.585  -0.787  0.00  0.00    -0.153 OA
ATOM     14  O   UNL     1     -32.776  18.193   1.699  0.00  0.00    -0.153 OA
BRANCH  12  15
ATOM     15  N   UNL     1     -34.365  16.677   0.345  0.00  0.00    -0.203 NA
ATOM     16  H   UNL     1     -33.829  15.982   0.866  0.00  0.00    +0.144 HD
ATOM     17  H   UNL     1     -34.390  16.418  -0.641  0.00  0.00    +0.144 HD
ENDBRANCH  12  15
ENDBRANCH  11  12
BRANCH   5  18
ATOM     18  N   UNL     1     -35.976  23.367   2.423  0.00  0.00    +0.388 N 
ATOM     19  H   UNL     1     -36.613  24.158   2.331  0.00  0.00    -0.084 HD
ATOM     20  H   UNL     1     -35.430  23.252   1.569  0.00  0.00    -0.084 HD
BRANCH  18  21
ATOM     21  C   UNL     1     -35.067  23.615   3.530  0.00  0.00    -0.081 C 
BRANCH  21  22
ATOM     22  C   UNL     1     -35.796  23.697   4.883  0.00  0.00    -0.021 C 
ATOM     23  C   UNL     1     -35.121  22.764   5.891  0.00  0.00    -0.002 C 
ATOM     24  C   UNL     1     -35.833  25.121   5.444  0.00  0.00    -0.002 C 
ENDBRANCH  21  22
ENDBRANCH  18  21
ENDBRANCH   5  18
TORSDOF 5
ENDMDL
MODEL 9
REMARK VINA RESULT:      -5.2      4.013      6.435
REMARK  Name = 60693
REMARK  5 active torsions:
REMARK  status: ('A' for Active; 'I' for Inactive)
REMARK    1  A    between atoms: C_5  and  N_18
REMARK    2  A    between atoms: C_11  and  S_12
REMARK    3  A    between atoms: S_12  and  N_15
REMARK    4  A    between atoms: N_18  and  C_21
REMARK    5  A    between atoms: C_21  and  C_22
REMARK                            x       y       z     vdW  Elec       q    Type
REMARK                         _______ _______ _______ _____ _____    ______ ____
ROOT
ATOM      1  S   UNL     1     -35.513  23.611   5.042  0.00  0.00    +0.014 S 
ATOM      2  S   UNL     1     -35.886  21.552   2.944  0.00  0.00    -0.049 S 
ATOM      3  O   UNL     1     -35.853  22.631   6.050  0.00  0.00    -0.168 OA
ATOM      4  O   UNL     1     -34.150  23.918   4.662  0.00  0.00    -0.168 OA
ATOM      5  C   UNL     1     -37.714  25.131   3.138  0.00  0.00    -0.035 C 
ATOM      6  C   UNL     1     -36.752  25.887   4.086  0.00  0.00    +0.009 C 
ATOM      7  C   UNL     1     -37.212  23.758   2.785  0.00  0.00    -0.017 C 
ATOM      8  C   UNL     1     -36.396  25.133   5.372  0.00  0.00    +0.155 C 
ATOM      9  C   UNL     1     -36.298  23.077   3.561  0.00  0.00    +0.130 C 
ATOM     10  C   UNL     1     -37.577  22.983   1.640  0.00  0.00    +0.022 C 
ATOM     11  C   UNL     1     -36.935  21.763   1.606  0.00  0.00    +0.152 C 
ENDROOT
BRANCH  11  12
ATOM     12  S   UNL     1     -36.976  20.413   0.483  0.00  0.00    +0.063 S 
ATOM     13  O   UNL     1     -36.551  20.950  -0.805  0.00  0.00    -0.153 OA
ATOM     14  O   UNL     1     -36.213  19.355   1.133  0.00  0.00    -0.153 OA
BRANCH  12  15
ATOM     15  N   UNL     1     -38.603  19.883   0.319  0.00  0.00    -0.203 NA
ATOM     16  H   UNL     1     -39.117  20.092   1.175  0.00  0.00    +0.144 HD
ATOM     17  H   UNL     1     -38.617  18.878   0.151  0.00  0.00    +0.144 HD
ENDBRANCH  12  15
ENDBRANCH  11  12
BRANCH   5  18
ATOM     18  N   UNL     1     -39.051  24.992   3.717  0.00  0.00    +0.388 N 
ATOM     19  H   UNL     1     -39.012  25.221   4.710  0.00  0.00    -0.084 HD
ATOM     20  H   UNL     1     -39.366  24.030   3.589  0.00  0.00    -0.084 HD
BRANCH  18  21
ATOM     21  C   UNL     1     -39.992  25.883   3.058  0.00  0.00    -0.081 C 
BRANCH  21  22
ATOM     22  C   UNL     1     -40.088  25.622   1.545  0.00  0.00    -0.021 C 
ATOM     23  C   UNL     1     -41.160  24.565   1.270  0.00  0.00    -0.002 C 
ATOM     24  C   UNL     1     -40.401  26.892   0.749  0.00  0.00    -0.002 C 
ENDBRANCH  21  22
ENDBRANCH  18  21
ENDBRANCH   5  18
TORSDOF 5
ENDMDL
