MODEL 1
REMARK VINA RESULT:      -5.7      0.000      0.000
REMARK  Name = 52922085
REMARK  14 active torsions:
REMARK  status: ('A' for Active; 'I' for Inactive)
REMARK    1  A    between atoms: O_1  and  C_7
REMARK    2  A    between atoms: O_1  and  C_17
REMARK    3  A    between atoms: C_3  and  O_8
REMARK    4  A    between atoms: C_4  and  O_10
REMARK    5  A    between atoms: C_5  and  O_12
REMARK    6  A    between atoms: C_6  and  C_14
REMARK    7  A    between atoms: C_14  and  O_15
REMARK    8  A    between atoms: C_17  and  C_18
REMARK    9  A    between atoms: C_18  and  C_20
REMARK   10  A    between atoms: C_19  and  C_21
REMARK   11  A    between atoms: C_21  and  C_24
REMARK   12  A    between atoms: C_23  and  C_28
REMARK   13  A    between atoms: C_28  and  C_30
REMARK   14  A    between atoms: C_30  and  O_31
REMARK                            x       y       z     vdW  Elec       q    Type
REMARK                         _______ _______ _______ _____ _____    ______ ____
ROOT
ATOM      1  O   UNL     1     -35.797  21.894   0.632  0.00  0.00    -0.328 OA
ENDROOT
BRANCH   1   7
ATOM      2  O   UNL     1     -37.179  23.520   1.611  0.00  0.00    -0.326 OA
ATOM      3  C   UNL     1     -39.504  21.894   1.172  0.00  0.00    +0.172 C 
ATOM      4  C   UNL     1     -39.550  23.136   2.066  0.00  0.00    +0.169 C 
ATOM      5  C   UNL     1     -38.085  21.332   1.092  0.00  0.00    +0.196 C 
ATOM      6  C   UNL     1     -38.469  24.141   1.643  0.00  0.00    +0.176 C 
ATOM      7  C   UNL     1     -37.113  22.437   0.679  0.00  0.00    +0.266 C 
BRANCH   3   8
ATOM      8  O   UNL     1     -40.392  20.909   1.694  0.00  0.00    -0.379 OA
ATOM      9  H   UNL     1     -40.586  21.108   2.623  0.00  0.00    +0.211 HD
ENDBRANCH   3   8
BRANCH   4  10
ATOM     10  O   UNL     1     -40.830  23.753   1.953  0.00  0.00    -0.379 OA
ATOM     11  H   UNL     1     -41.384  23.487   2.704  0.00  0.00    +0.211 HD
ENDBRANCH   4  10
BRANCH   5  12
ATOM     12  O   UNL     1     -37.689  20.847   2.379  0.00  0.00    -0.378 OA
ATOM     13  H   UNL     1     -37.729  21.570   3.024  0.00  0.00    +0.211 HD
ENDBRANCH   5  12
BRANCH   6  14
ATOM     14  C   UNL     1     -38.387  25.316   2.611  0.00  0.00    +0.169 C 
BRANCH  14  15
ATOM     15  O   UNL     1     -38.794  24.874   3.894  0.00  0.00    -0.379 OA
ATOM     16  H   UNL     1     -38.023  24.829   4.480  0.00  0.00    +0.211 HD
ENDBRANCH  14  15
ENDBRANCH   6  14
ENDBRANCH   1   7
BRANCH   1  17
ATOM     17  C   UNL     1     -35.082  22.364  -0.501  0.00  0.00    +0.150 C 
BRANCH  17  18
ATOM     18  C   UNL     1     -33.840  23.122  -0.045  0.00  0.00    +0.058 C 
BRANCH  18  20
ATOM     19  C   UNL     1     -34.127  25.296   1.175  0.00  0.00    -0.030 C 
ATOM     20  C   UNL     1     -34.089  24.602   0.029  0.00  0.00    -0.028 C 
BRANCH  19  21
ATOM     21  C   UNL     1     -33.927  24.682   2.529  0.00  0.00    +0.033 C 
BRANCH  21  24
ATOM     22  O   UNL     1     -32.634  26.860   4.022  0.00  0.00    -0.296 OA
ATOM     23  C   UNL     1     -35.378  24.705   4.683  0.00  0.00    +0.019 C 
ATOM     24  C   UNL     1     -34.605  25.501   3.613  0.00  0.00    +0.062 C 
ATOM     25  C   UNL     1     -35.401  25.666   5.880  0.00  0.00    +0.009 C 
ATOM     26  C   UNL     1     -34.013  26.296   5.916  0.00  0.00    +0.065 C 
ATOM     27  C   UNL     1     -33.624  26.289   4.460  0.00  0.00    +0.151 C 
BRANCH  23  28
ATOM     28  C   UNL     1     -34.753  23.360   5.063  0.00  0.00    +0.110 C 
BRANCH  28  30
ATOM     29  O   UNL     1     -35.217  21.056   4.413  0.00  0.00    -0.250 OA
ATOM     30  C   UNL     1     -35.590  22.207   4.582  0.00  0.00    +0.314 C 
BRANCH  30  31
ATOM     31  O   UNL     1     -36.860  22.631   4.353  0.00  0.00    -0.480 OA
ATOM     32  H   UNL     1     -37.461  22.719   5.067  0.00  0.00    +0.295 HD
ENDBRANCH  30  31
ENDBRANCH  28  30
ENDBRANCH  23  28
ENDBRANCH  21  24
ENDBRANCH  19  21
ENDBRANCH  18  20
ENDBRANCH  17  18
ENDBRANCH   1  17
TORSDOF 14
ENDMDL
MODEL 2
REMARK VINA RESULT:      -5.3      3.535      6.407
REMARK  Name = 52922085
REMARK  14 active torsions:
REMARK  status: ('A' for Active; 'I' for Inactive)
REMARK    1  A    between atoms: O_1  and  C_7
REMARK    2  A    between atoms: O_1  and  C_17
REMARK    3  A    between atoms: C_3  and  O_8
REMARK    4  A    between atoms: C_4  and  O_10
REMARK    5  A    between atoms: C_5  and  O_12
REMARK    6  A    between atoms: C_6  and  C_14
REMARK    7  A    between atoms: C_14  and  O_15
REMARK    8  A    between atoms: C_17  and  C_18
REMARK    9  A    between atoms: C_18  and  C_20
REMARK   10  A    between atoms: C_19  and  C_21
REMARK   11  A    between atoms: C_21  and  C_24
REMARK   12  A    between atoms: C_23  and  C_28
REMARK   13  A    between atoms: C_28  and  C_30
REMARK   14  A    between atoms: C_30  and  O_31
REMARK                            x       y       z     vdW  Elec       q    Type
REMARK                         _______ _______ _______ _____ _____    ______ ____
ROOT
ATOM      1  O   UNL     1     -38.029  22.888   2.427  0.00  0.00    -0.328 OA
ENDROOT
BRANCH   1   7
ATOM      2  O   UNL     1     -36.676  22.707   4.337  0.00  0.00    -0.326 OA
ATOM      3  C   UNL     1     -35.940  25.476   4.152  0.00  0.00    +0.172 C 
ATOM      4  C   UNL     1     -35.622  24.641   5.395  0.00  0.00    +0.169 C 
ATOM      5  C   UNL     1     -37.135  24.894   3.397  0.00  0.00    +0.196 C 
ATOM      6  C   UNL     1     -35.506  23.155   5.029  0.00  0.00    +0.176 C 
ATOM      7  C   UNL     1     -36.895  23.411   3.112  0.00  0.00    +0.266 C 
BRANCH   3   8
ATOM      8  O   UNL     1     -36.217  26.816   4.547  0.00  0.00    -0.379 OA
ATOM      9  H   UNL     1     -35.919  27.426   3.855  0.00  0.00    +0.211 HD
ENDBRANCH   3   8
BRANCH   4  10
ATOM     10  O   UNL     1     -34.388  25.082   5.957  0.00  0.00    -0.379 OA
ATOM     11  H   UNL     1     -33.708  24.403   5.817  0.00  0.00    +0.211 HD
ENDBRANCH   4  10
BRANCH   5  12
ATOM     12  O   UNL     1     -38.313  25.009   4.202  0.00  0.00    -0.378 OA
ATOM     13  H   UNL     1     -38.908  24.267   4.012  0.00  0.00    +0.211 HD
ENDBRANCH   5  12
BRANCH   6  14
ATOM     14  C   UNL     1     -35.344  22.283   6.269  0.00  0.00    +0.169 C 
BRANCH  14  15
ATOM     15  O   UNL     1     -35.398  20.924   5.875  0.00  0.00    -0.379 OA
ATOM     16  H   UNL     1     -35.014  20.369   6.571  0.00  0.00    +0.211 HD
ENDBRANCH  14  15
ENDBRANCH   6  14
ENDBRANCH   1   7
BRANCH   1  17
ATOM     17  C   UNL     1     -37.812  21.548   2.012  0.00  0.00    +0.150 C 
BRANCH  17  18
ATOM     18  C   UNL     1     -36.397  21.403   1.466  0.00  0.00    +0.058 C 
BRANCH  18  20
ATOM     19  C   UNL     1     -34.497  19.778   1.693  0.00  0.00    -0.030 C 
ATOM     20  C   UNL     1     -35.650  20.290   2.148  0.00  0.00    -0.028 C 
BRANCH  19  21
ATOM     21  C   UNL     1     -33.808  20.251   0.448  0.00  0.00    +0.033 C 
BRANCH  21  24
ATOM     22  O   UNL     1     -31.875  21.963  -0.959  0.00  0.00    -0.296 OA
ATOM     23  C   UNL     1     -31.727  18.697   0.428  0.00  0.00    +0.019 C 
ATOM     24  C   UNL     1     -32.301  20.121   0.567  0.00  0.00    +0.062 C 
ATOM     25  C   UNL     1     -30.279  18.949  -0.012  0.00  0.00    +0.009 C 
ATOM     26  C   UNL     1     -30.356  20.093  -1.017  0.00  0.00    +0.065 C 
ATOM     27  C   UNL     1     -31.554  20.864  -0.525  0.00  0.00    +0.151 C 
BRANCH  23  28
ATOM     28  C   UNL     1     -32.463  17.800  -0.569  0.00  0.00    +0.110 C 
BRANCH  28  30
ATOM     29  O   UNL     1     -32.155  15.539   0.289  0.00  0.00    -0.250 OA
ATOM     30  C   UNL     1     -32.876  16.498   0.058  0.00  0.00    +0.314 C 
BRANCH  30  31
ATOM     31  O   UNL     1     -34.203  16.530   0.344  0.00  0.00    -0.480 OA
ATOM     32  H   UNL     1     -34.660  15.736   0.538  0.00  0.00    +0.295 HD
ENDBRANCH  30  31
ENDBRANCH  28  30
ENDBRANCH  23  28
ENDBRANCH  21  24
ENDBRANCH  19  21
ENDBRANCH  18  20
ENDBRANCH  17  18
ENDBRANCH   1  17
TORSDOF 14
ENDMDL
MODEL 3
REMARK VINA RESULT:      -5.3      3.517      6.473
REMARK  Name = 52922085
REMARK  14 active torsions:
REMARK  status: ('A' for Active; 'I' for Inactive)
REMARK    1  A    between atoms: O_1  and  C_7
REMARK    2  A    between atoms: O_1  and  C_17
REMARK    3  A    between atoms: C_3  and  O_8
REMARK    4  A    between atoms: C_4  and  O_10
REMARK    5  A    between atoms: C_5  and  O_12
REMARK    6  A    between atoms: C_6  and  C_14
REMARK    7  A    between atoms: C_14  and  O_15
REMARK    8  A    between atoms: C_17  and  C_18
REMARK    9  A    between atoms: C_18  and  C_20
REMARK   10  A    between atoms: C_19  and  C_21
REMARK   11  A    between atoms: C_21  and  C_24
REMARK   12  A    between atoms: C_23  and  C_28
REMARK   13  A    between atoms: C_28  and  C_30
REMARK   14  A    between atoms: C_30  and  O_31
REMARK                            x       y       z     vdW  Elec       q    Type
REMARK                         _______ _______ _______ _____ _____    ______ ____
ROOT
ATOM      1  O   UNL     1     -38.147  23.052   2.504  0.00  0.00    -0.328 OA
ENDROOT
BRANCH   1   7
ATOM      2  O   UNL     1     -36.720  22.783   4.349  0.00  0.00    -0.326 OA
ATOM      3  C   UNL     1     -35.839  25.507   4.141  0.00  0.00    +0.172 C 
ATOM      4  C   UNL     1     -35.512  24.648   5.365  0.00  0.00    +0.169 C 
ATOM      5  C   UNL     1     -37.098  24.997   3.439  0.00  0.00    +0.196 C 
ATOM      6  C   UNL     1     -35.496  23.160   4.988  0.00  0.00    +0.176 C 
ATOM      7  C   UNL     1     -36.955  23.506   3.138  0.00  0.00    +0.266 C 
BRANCH   3   8
ATOM      8  O   UNL     1     -36.023  26.858   4.554  0.00  0.00    -0.379 OA
ATOM      9  H   UNL     1     -35.281  27.397   4.237  0.00  0.00    +0.211 HD
ENDBRANCH   3   8
BRANCH   4  10
ATOM     10  O   UNL     1     -34.230  25.015   5.871  0.00  0.00    -0.379 OA
ATOM     11  H   UNL     1     -33.567  24.377   5.565  0.00  0.00    +0.211 HD
ENDBRANCH   4  10
BRANCH   5  12
ATOM     12  O   UNL     1     -38.230  25.173   4.298  0.00  0.00    -0.378 OA
ATOM     13  H   UNL     1     -38.764  25.918   3.980  0.00  0.00    +0.211 HD
ENDBRANCH   5  12
BRANCH   6  14
ATOM     14  C   UNL     1     -35.327  22.272   6.216  0.00  0.00    +0.169 C 
BRANCH  14  15
ATOM     15  O   UNL     1     -35.363  20.918   5.801  0.00  0.00    -0.379 OA
ATOM     16  H   UNL     1     -35.869  20.397   6.443  0.00  0.00    +0.211 HD
ENDBRANCH  14  15
ENDBRANCH   6  14
ENDBRANCH   1   7
BRANCH   1  17
ATOM     17  C   UNL     1     -37.929  22.772   1.129  0.00  0.00    +0.150 C 
BRANCH  17  18
ATOM     18  C   UNL     1     -36.703  21.879   0.975  0.00  0.00    +0.058 C 
BRANCH  18  20
ATOM     19  C   UNL     1     -36.292  19.417   0.718  0.00  0.00    -0.030 C 
ATOM     20  C   UNL     1     -37.042  20.429   1.176  0.00  0.00    -0.028 C 
BRANCH  19  21
ATOM     21  C   UNL     1     -35.019  19.605  -0.053  0.00  0.00    +0.033 C 
BRANCH  21  24
ATOM     22  O   UNL     1     -32.564  21.222  -0.037  0.00  0.00    -0.296 OA
ATOM     23  C   UNL     1     -33.305  17.853   0.804  0.00  0.00    +0.019 C 
ATOM     24  C   UNL     1     -33.804  19.311   0.807  0.00  0.00    +0.062 C 
ATOM     25  C   UNL     1     -31.830  17.990   1.207  0.00  0.00    +0.009 C 
ATOM     26  C   UNL     1     -31.321  19.217   0.459  0.00  0.00    +0.065 C 
ATOM     27  C   UNL     1     -32.565  20.063   0.358  0.00  0.00    +0.151 C 
BRANCH  23  28
ATOM     28  C   UNL     1     -33.450  17.124  -0.534  0.00  0.00    +0.110 C 
BRANCH  28  30
ATOM     29  O   UNL     1     -33.915  14.758  -0.896  0.00  0.00    -0.250 OA
ATOM     30  C   UNL     1     -34.197  15.828  -0.380  0.00  0.00    +0.314 C 
BRANCH  30  31
ATOM     31  O   UNL     1     -35.266  16.014   0.438  0.00  0.00    -0.480 OA
ATOM     32  H   UNL     1     -35.765  16.805   0.385  0.00  0.00    +0.295 HD
ENDBRANCH  30  31
ENDBRANCH  28  30
ENDBRANCH  23  28
ENDBRANCH  21  24
ENDBRANCH  19  21
ENDBRANCH  18  20
ENDBRANCH  17  18
ENDBRANCH   1  17
TORSDOF 14
ENDMDL
MODEL 4
REMARK VINA RESULT:      -5.2      2.332      5.535
REMARK  Name = 52922085
REMARK  14 active torsions:
REMARK  status: ('A' for Active; 'I' for Inactive)
REMARK    1  A    between atoms: O_1  and  C_7
REMARK    2  A    between atoms: O_1  and  C_17
REMARK    3  A    between atoms: C_3  and  O_8
REMARK    4  A    between atoms: C_4  and  O_10
REMARK    5  A    between atoms: C_5  and  O_12
REMARK    6  A    between atoms: C_6  and  C_14
REMARK    7  A    between atoms: C_14  and  O_15
REMARK    8  A    between atoms: C_17  and  C_18
REMARK    9  A    between atoms: C_18  and  C_20
REMARK   10  A    between atoms: C_19  and  C_21
REMARK   11  A    between atoms: C_21  and  C_24
REMARK   12  A    between atoms: C_23  and  C_28
REMARK   13  A    between atoms: C_28  and  C_30
REMARK   14  A    between atoms: C_30  and  O_31
REMARK                            x       y       z     vdW  Elec       q    Type
REMARK                         _______ _______ _______ _____ _____    ______ ____
ROOT
ATOM      1  O   UNL     1     -37.979  23.308   2.042  0.00  0.00    -0.328 OA
ENDROOT
BRANCH   1   7
ATOM      2  O   UNL     1     -36.751  22.744   3.961  0.00  0.00    -0.326 OA
ATOM      3  C   UNL     1     -36.084  25.499   4.417  0.00  0.00    +0.172 C 
ATOM      4  C   UNL     1     -35.824  24.423   5.475  0.00  0.00    +0.169 C 
ATOM      5  C   UNL     1     -37.209  25.074   3.473  0.00  0.00    +0.196 C 
ATOM      6  C   UNL     1     -35.642  23.051   4.813  0.00  0.00    +0.176 C 
ATOM      7  C   UNL     1     -36.908  23.689   2.900  0.00  0.00    +0.266 C 
BRANCH   3   8
ATOM      8  O   UNL     1     -36.424  26.721   5.065  0.00  0.00    -0.379 OA
ATOM      9  H   UNL     1     -35.893  26.820   5.870  0.00  0.00    +0.211 HD
ENDBRANCH   3   8
BRANCH   4  10
ATOM     10  O   UNL     1     -34.643  24.752   6.203  0.00  0.00    -0.379 OA
ATOM     11  H   UNL     1     -34.877  25.296   6.971  0.00  0.00    +0.211 HD
ENDBRANCH   4  10
BRANCH   5  12
ATOM     12  O   UNL     1     -38.440  24.999   4.199  0.00  0.00    -0.378 OA
ATOM     13  H   UNL     1     -38.395  25.580   4.974  0.00  0.00    +0.211 HD
ENDBRANCH   5  12
BRANCH   6  14
ATOM     14  C   UNL     1     -35.538  21.938   5.849  0.00  0.00    +0.169 C 
BRANCH  14  15
ATOM     15  O   UNL     1     -35.124  20.751   5.196  0.00  0.00    -0.379 OA
ATOM     16  H   UNL     1     -34.189  20.583   5.392  0.00  0.00    +0.211 HD
ENDBRANCH  14  15
ENDBRANCH   6  14
ENDBRANCH   1   7
BRANCH   1  17
ATOM     17  C   UNL     1     -37.922  23.998   0.802  0.00  0.00    +0.150 C 
BRANCH  17  18
ATOM     18  C   UNL     1     -36.957  23.285  -0.138  0.00  0.00    +0.058 C 
BRANCH  18  20
ATOM     19  C   UNL     1     -34.459  23.232  -0.376  0.00  0.00    -0.030 C 
ATOM     20  C   UNL     1     -35.587  23.903  -0.101  0.00  0.00    -0.028 C 
BRANCH  19  21
ATOM     21  C   UNL     1     -34.422  21.781  -0.753  0.00  0.00    +0.033 C 
BRANCH  21  24
ATOM     22  O   UNL     1     -32.063  20.209  -1.534  0.00  0.00    -0.296 OA
ATOM     23  C   UNL     1     -34.325  20.074   1.201  0.00  0.00    +0.019 C 
ATOM     24  C   UNL     1     -33.567  20.981   0.212  0.00  0.00    +0.062 C 
ATOM     25  C   UNL     1     -33.279  19.012   1.568  0.00  0.00    +0.009 C 
ATOM     26  C   UNL     1     -32.565  18.681   0.262  0.00  0.00    +0.065 C 
ATOM     27  C   UNL     1     -32.659  19.986  -0.487  0.00  0.00    +0.151 C 
BRANCH  23  28
ATOM     28  C   UNL     1     -35.597  19.432   0.643  0.00  0.00    +0.110 C 
BRANCH  28  30
ATOM     29  O   UNL     1     -37.884  20.247   0.868  0.00  0.00    -0.250 OA
ATOM     30  C   UNL     1     -36.822  19.910   1.370  0.00  0.00    +0.314 C 
BRANCH  30  31
ATOM     31  O   UNL     1     -36.584  19.919   2.708  0.00  0.00    -0.480 OA
ATOM     32  H   UNL     1     -37.299  19.966   3.311  0.00  0.00    +0.295 HD
ENDBRANCH  30  31
ENDBRANCH  28  30
ENDBRANCH  23  28
ENDBRANCH  21  24
ENDBRANCH  19  21
ENDBRANCH  18  20
ENDBRANCH  17  18
ENDBRANCH   1  17
TORSDOF 14
ENDMDL
MODEL 5
REMARK VINA RESULT:      -5.2      2.429      4.760
REMARK  Name = 52922085
REMARK  14 active torsions:
REMARK  status: ('A' for Active; 'I' for Inactive)
REMARK    1  A    between atoms: O_1  and  C_7
REMARK    2  A    between atoms: O_1  and  C_17
REMARK    3  A    between atoms: C_3  and  O_8
REMARK    4  A    between atoms: C_4  and  O_10
REMARK    5  A    between atoms: C_5  and  O_12
REMARK    6  A    between atoms: C_6  and  C_14
REMARK    7  A    between atoms: C_14  and  O_15
REMARK    8  A    between atoms: C_17  and  C_18
REMARK    9  A    between atoms: C_18  and  C_20
REMARK   10  A    between atoms: C_19  and  C_21
REMARK   11  A    between atoms: C_21  and  C_24
REMARK   12  A    between atoms: C_23  and  C_28
REMARK   13  A    between atoms: C_28  and  C_30
REMARK   14  A    between atoms: C_30  and  O_31
REMARK                            x       y       z     vdW  Elec       q    Type
REMARK                         _______ _______ _______ _____ _____    ______ ____
ROOT
ATOM      1  O   UNL     1     -38.985  20.736   0.856  0.00  0.00    -0.328 OA
ENDROOT
BRANCH   1   7
ATOM      2  O   UNL     1     -37.709  18.994  -0.065  0.00  0.00    -0.326 OA
ATOM      3  C   UNL     1     -35.284  20.164   0.930  0.00  0.00    +0.172 C 
ATOM      4  C   UNL     1     -35.316  18.742   0.364  0.00  0.00    +0.169 C 
ATOM      5  C   UNL     1     -36.663  20.578   1.442  0.00  0.00    +0.196 C 
ATOM      6  C   UNL     1     -36.463  18.592  -0.645  0.00  0.00    +0.176 C 
ATOM      7  C   UNL     1     -37.708  20.363   0.348  0.00  0.00    +0.266 C 
BRANCH   3   8
ATOM      8  O   UNL     1     -34.331  20.225   1.987  0.00  0.00    -0.379 OA
ATOM      9  H   UNL     1     -34.487  19.495   2.607  0.00  0.00    +0.211 HD
ENDBRANCH   3   8
BRANCH   4  10
ATOM     10  O   UNL     1     -34.080  18.465  -0.289  0.00  0.00    -0.379 OA
ATOM     11  H   UNL     1     -33.391  18.305   0.375  0.00  0.00    +0.211 HD
ENDBRANCH   4  10
BRANCH   5  12
ATOM     12  O   UNL     1     -37.020  19.767   2.566  0.00  0.00    -0.378 OA
ATOM     13  H   UNL     1     -36.217  19.503   3.043  0.00  0.00    +0.211 HD
ENDBRANCH   5  12
BRANCH   6  14
ATOM     14  C   UNL     1     -36.618  17.148  -1.107  0.00  0.00    +0.169 C 
BRANCH  14  15
ATOM     15  O   UNL     1     -35.995  16.301  -0.158  0.00  0.00    -0.379 OA
ATOM     16  H   UNL     1     -36.548  16.245   0.637  0.00  0.00    +0.211 HD
ENDBRANCH  14  15
ENDBRANCH   6  14
ENDBRANCH   1   7
BRANCH   1  17
ATOM     17  C   UNL     1     -39.137  22.147   0.892  0.00  0.00    +0.150 C 
BRANCH  17  18
ATOM     18  C   UNL     1     -39.596  22.579   2.280  0.00  0.00    +0.058 C 
BRANCH  18  20
ATOM     19  C   UNL     1     -38.663  24.833   2.868  0.00  0.00    -0.030 C 
ATOM     20  C   UNL     1     -39.666  24.075   2.402  0.00  0.00    -0.028 C 
BRANCH  19  21
ATOM     21  C   UNL     1     -37.345  24.284   3.327  0.00  0.00    +0.033 C 
BRANCH  21  24
ATOM     22  O   UNL     1     -35.915  26.738   2.568  0.00  0.00    -0.296 OA
ATOM     23  C   UNL     1     -35.763  24.559   5.368  0.00  0.00    +0.019 C 
ATOM     24  C   UNL     1     -36.668  25.221   4.310  0.00  0.00    +0.062 C 
ATOM     25  C   UNL     1     -34.806  25.691   5.763  0.00  0.00    +0.009 C 
ATOM     26  C   UNL     1     -34.458  26.398   4.457  0.00  0.00    +0.065 C 
ATOM     27  C   UNL     1     -35.708  26.186   3.641  0.00  0.00    +0.151 C 
BRANCH  23  28
ATOM     28  C   UNL     1     -34.996  23.327   4.881  0.00  0.00    +0.110 C 
BRANCH  28  30
ATOM     29  O   UNL     1     -36.022  21.974   6.631  0.00  0.00    -0.250 OA
ATOM     30  C   UNL     1     -35.503  22.069   5.529  0.00  0.00    +0.314 C 
BRANCH  30  31
ATOM     31  O   UNL     1     -35.298  21.014   4.697  0.00  0.00    -0.480 OA
ATOM     32  H   UNL     1     -35.120  21.161   3.789  0.00  0.00    +0.295 HD
ENDBRANCH  30  31
ENDBRANCH  28  30
ENDBRANCH  23  28
ENDBRANCH  21  24
ENDBRANCH  19  21
ENDBRANCH  18  20
ENDBRANCH  17  18
ENDBRANCH   1  17
TORSDOF 14
ENDMDL
MODEL 6
REMARK VINA RESULT:      -5.2      2.366      7.157
REMARK  Name = 52922085
REMARK  14 active torsions:
REMARK  status: ('A' for Active; 'I' for Inactive)
REMARK    1  A    between atoms: O_1  and  C_7
REMARK    2  A    between atoms: O_1  and  C_17
REMARK    3  A    between atoms: C_3  and  O_8
REMARK    4  A    between atoms: C_4  and  O_10
REMARK    5  A    between atoms: C_5  and  O_12
REMARK    6  A    between atoms: C_6  and  C_14
REMARK    7  A    between atoms: C_14  and  O_15
REMARK    8  A    between atoms: C_17  and  C_18
REMARK    9  A    between atoms: C_18  and  C_20
REMARK   10  A    between atoms: C_19  and  C_21
REMARK   11  A    between atoms: C_21  and  C_24
REMARK   12  A    between atoms: C_23  and  C_28
REMARK   13  A    between atoms: C_28  and  C_30
REMARK   14  A    between atoms: C_30  and  O_31
REMARK                            x       y       z     vdW  Elec       q    Type
REMARK                         _______ _______ _______ _____ _____    ______ ____
ROOT
ATOM      1  O   UNL     1     -34.818  25.837   4.271  0.00  0.00    -0.328 OA
ENDROOT
BRANCH   1   7
ATOM      2  O   UNL     1     -33.336  27.408   5.191  0.00  0.00    -0.326 OA
ATOM      3  C   UNL     1     -33.104  28.756   2.667  0.00  0.00    +0.172 C 
ATOM      4  C   UNL     1     -32.568  29.375   3.961  0.00  0.00    +0.169 C 
ATOM      5  C   UNL     1     -34.225  27.761   2.964  0.00  0.00    +0.196 C 
ATOM      6  C   UNL     1     -32.220  28.278   4.976  0.00  0.00    +0.176 C 
ATOM      7  C   UNL     1     -33.751  26.739   3.997  0.00  0.00    +0.266 C 
BRANCH   3   8
ATOM      8  O   UNL     1     -33.584  29.794   1.816  0.00  0.00    -0.379 OA
ATOM      9  H   UNL     1     -32.837  30.329   1.506  0.00  0.00    +0.211 HD
ENDBRANCH   3   8
BRANCH   4  10
ATOM     10  O   UNL     1     -31.395  30.133   3.671  0.00  0.00    -0.379 OA
ATOM     11  H   UNL     1     -31.549  30.678   2.883  0.00  0.00    +0.211 HD
ENDBRANCH   4  10
BRANCH   5  12
ATOM     12  O   UNL     1     -35.352  28.456   3.507  0.00  0.00    -0.378 OA
ATOM     13  H   UNL     1     -35.912  27.832   3.997  0.00  0.00    +0.211 HD
ENDBRANCH   5  12
BRANCH   6  14
ATOM     14  C   UNL     1     -31.831  28.868   6.327  0.00  0.00    +0.169 C 
BRANCH  14  15
ATOM     15  O   UNL     1     -32.218  27.960   7.344  0.00  0.00    -0.379 OA
ATOM     16  H   UNL     1     -32.463  27.112   6.943  0.00  0.00    +0.211 HD
ENDBRANCH  14  15
ENDBRANCH   6  14
ENDBRANCH   1   7
BRANCH   1  17
ATOM     17  C   UNL     1     -34.424  24.830   5.192  0.00  0.00    +0.150 C 
BRANCH  17  18
ATOM     18  C   UNL     1     -35.610  23.925   5.502  0.00  0.00    +0.058 C 
BRANCH  18  20
ATOM     19  C   UNL     1     -35.491  21.872   4.064  0.00  0.00    -0.030 C 
ATOM     20  C   UNL     1     -35.289  22.481   5.242  0.00  0.00    -0.028 C 
BRANCH  19  21
ATOM     21  C   UNL     1     -36.062  22.557   2.858  0.00  0.00    +0.033 C 
BRANCH  21  24
ATOM     22  O   UNL     1     -37.747  20.744   1.271  0.00  0.00    -0.296 OA
ATOM     23  C   UNL     1     -38.268  23.924   2.762  0.00  0.00    +0.019 C 
ATOM     24  C   UNL     1     -37.580  22.550   2.887  0.00  0.00    +0.062 C 
ATOM     25  C   UNL     1     -39.659  23.567   2.222  0.00  0.00    +0.009 C 
ATOM     26  C   UNL     1     -39.420  22.476   1.184  0.00  0.00    +0.065 C 
ATOM     27  C   UNL     1     -38.190  21.792   1.723  0.00  0.00    +0.151 C 
BRANCH  23  28
ATOM     28  C   UNL     1     -37.556  24.922   1.847  0.00  0.00    +0.110 C 
BRANCH  28  30
ATOM     29  O   UNL     1     -37.727  27.351   1.727  0.00  0.00    -0.250 OA
ATOM     30  C   UNL     1     -37.642  26.324   2.383  0.00  0.00    +0.314 C 
BRANCH  30  31
ATOM     31  O   UNL     1     -37.613  26.294   3.741  0.00  0.00    -0.480 OA
ATOM     32  H   UNL     1     -37.384  25.504   4.187  0.00  0.00    +0.295 HD
ENDBRANCH  30  31
ENDBRANCH  28  30
ENDBRANCH  23  28
ENDBRANCH  21  24
ENDBRANCH  19  21
ENDBRANCH  18  20
ENDBRANCH  17  18
ENDBRANCH   1  17
TORSDOF 14
ENDMDL
MODEL 7
REMARK VINA RESULT:      -5.0      3.084      8.419
REMARK  Name = 52922085
REMARK  14 active torsions:
REMARK  status: ('A' for Active; 'I' for Inactive)
REMARK    1  A    between atoms: O_1  and  C_7
REMARK    2  A    between atoms: O_1  and  C_17
REMARK    3  A    between atoms: C_3  and  O_8
REMARK    4  A    between atoms: C_4  and  O_10
REMARK    5  A    between atoms: C_5  and  O_12
REMARK    6  A    between atoms: C_6  and  C_14
REMARK    7  A    between atoms: C_14  and  O_15
REMARK    8  A    between atoms: C_17  and  C_18
REMARK    9  A    between atoms: C_18  and  C_20
REMARK   10  A    between atoms: C_19  and  C_21
REMARK   11  A    between atoms: C_21  and  C_24
REMARK   12  A    between atoms: C_23  and  C_28
REMARK   13  A    between atoms: C_28  and  C_30
REMARK   14  A    between atoms: C_30  and  O_31
REMARK                            x       y       z     vdW  Elec       q    Type
REMARK                         _______ _______ _______ _____ _____    ______ ____
ROOT
ATOM      1  O   UNL     1     -32.860  28.398   5.137  0.00  0.00    -0.328 OA
ENDROOT
BRANCH   1   7
ATOM      2  O   UNL     1     -30.974  27.661   3.950  0.00  0.00    -0.326 OA
ATOM      3  C   UNL     1     -29.217  28.909   5.847  0.00  0.00    +0.172 C 
ATOM      4  C   UNL     1     -28.696  27.927   4.795  0.00  0.00    +0.169 C 
ATOM      5  C   UNL     1     -30.696  28.657   6.142  0.00  0.00    +0.196 C 
ATOM      6  C   UNL     1     -29.618  27.916   3.567  0.00  0.00    +0.176 C 
ATOM      7  C   UNL     1     -31.492  28.655   4.837  0.00  0.00    +0.266 C 
BRANCH   3   8
ATOM      8  O   UNL     1     -28.450  28.769   7.039  0.00  0.00    -0.379 OA
ATOM      9  H   UNL     1     -29.016  28.929   7.810  0.00  0.00    +0.211 HD
ENDBRANCH   3   8
BRANCH   4  10
ATOM     10  O   UNL     1     -27.385  28.318   4.391  0.00  0.00    -0.379 OA
ATOM     11  H   UNL     1     -26.845  27.527   4.239  0.00  0.00    +0.211 HD
ENDBRANCH   4  10
BRANCH   5  12
ATOM     12  O   UNL     1     -30.849  27.375   6.760  0.00  0.00    -0.378 OA
ATOM     13  H   UNL     1     -31.638  26.936   6.404  0.00  0.00    +0.211 HD
ENDBRANCH   5  12
BRANCH   6  14
ATOM     14  C   UNL     1     -29.212  26.836   2.571  0.00  0.00    +0.169 C 
BRANCH  14  15
ATOM     15  O   UNL     1     -28.592  25.778   3.280  0.00  0.00    -0.379 OA
ATOM     16  H   UNL     1     -28.861  24.929   2.896  0.00  0.00    +0.211 HD
ENDBRANCH  14  15
ENDBRANCH   6  14
ENDBRANCH   1   7
BRANCH   1  17
ATOM     17  C   UNL     1     -33.310  27.200   4.520  0.00  0.00    +0.150 C 
BRANCH  17  18
ATOM     18  C   UNL     1     -33.811  26.232   5.586  0.00  0.00    +0.058 C 
BRANCH  18  20
ATOM     19  C   UNL     1     -35.945  24.933   5.346  0.00  0.00    -0.030 C 
ATOM     20  C   UNL     1     -35.307  26.094   5.552  0.00  0.00    -0.028 C 
BRANCH  19  21
ATOM     21  C   UNL     1     -35.245  23.625   5.123  0.00  0.00    +0.033 C 
BRANCH  21  24
ATOM     22  O   UNL     1     -35.024  20.696   4.989  0.00  0.00    -0.296 OA
ATOM     23  C   UNL     1     -35.990  23.207   2.671  0.00  0.00    +0.019 C 
ATOM     24  C   UNL     1     -36.006  22.751   4.144  0.00  0.00    +0.062 C 
ATOM     25  C   UNL     1     -36.266  21.907   1.903  0.00  0.00    +0.009 C 
ATOM     26  C   UNL     1     -35.454  20.835   2.622  0.00  0.00    +0.065 C 
ATOM     27  C   UNL     1     -35.441  21.347   4.040  0.00  0.00    +0.151 C 
BRANCH  23  28
ATOM     28  C   UNL     1     -34.684  23.858   2.212  0.00  0.00    +0.110 C 
BRANCH  28  30
ATOM     29  O   UNL     1     -34.061  26.024   1.282  0.00  0.00    -0.250 OA
ATOM     30  C   UNL     1     -34.905  25.267   1.736  0.00  0.00    +0.314 C 
BRANCH  30  31
ATOM     31  O   UNL     1     -36.215  25.596   1.883  0.00  0.00    -0.480 OA
ATOM     32  H   UNL     1     -36.552  25.810   2.730  0.00  0.00    +0.295 HD
ENDBRANCH  30  31
ENDBRANCH  28  30
ENDBRANCH  23  28
ENDBRANCH  21  24
ENDBRANCH  19  21
ENDBRANCH  18  20
ENDBRANCH  17  18
ENDBRANCH   1  17
TORSDOF 14
ENDMDL
MODEL 8
REMARK VINA RESULT:      -5.0      4.088      6.078
REMARK  Name = 52922085
REMARK  14 active torsions:
REMARK  status: ('A' for Active; 'I' for Inactive)
REMARK    1  A    between atoms: O_1  and  C_7
REMARK    2  A    between atoms: O_1  and  C_17
REMARK    3  A    between atoms: C_3  and  O_8
REMARK    4  A    between atoms: C_4  and  O_10
REMARK    5  A    between atoms: C_5  and  O_12
REMARK    6  A    between atoms: C_6  and  C_14
REMARK    7  A    between atoms: C_14  and  O_15
REMARK    8  A    between atoms: C_17  and  C_18
REMARK    9  A    between atoms: C_18  and  C_20
REMARK   10  A    between atoms: C_19  and  C_21
REMARK   11  A    between atoms: C_21  and  C_24
REMARK   12  A    between atoms: C_23  and  C_28
REMARK   13  A    between atoms: C_28  and  C_30
REMARK   14  A    between atoms: C_30  and  O_31
REMARK                            x       y       z     vdW  Elec       q    Type
REMARK                         _______ _______ _______ _____ _____    ______ ____
ROOT
ATOM      1  O   UNL     1     -33.711  19.992   0.629  0.00  0.00    -0.328 OA
ENDROOT
BRANCH   1   7
ATOM      2  O   UNL     1     -34.573  17.894   0.024  0.00  0.00    -0.326 OA
ATOM      3  C   UNL     1     -31.925  16.820  -0.254  0.00  0.00    +0.172 C 
ATOM      4  C   UNL     1     -33.161  15.918  -0.250  0.00  0.00    +0.169 C 
ATOM      5  C   UNL     1     -32.204  18.130   0.483  0.00  0.00    +0.196 C 
ATOM      6  C   UNL     1     -34.394  16.694  -0.735  0.00  0.00    +0.176 C 
ATOM      7  C   UNL     1     -33.461  18.787  -0.087  0.00  0.00    +0.266 C 
BRANCH   3   8
ATOM      8  O   UNL     1     -30.842  16.132   0.365  0.00  0.00    -0.379 OA
ATOM      9  H   UNL     1     -30.500  15.455  -0.239  0.00  0.00    +0.211 HD
ENDBRANCH   3   8
BRANCH   4  10
ATOM     10  O   UNL     1     -32.938  14.807  -1.116  0.00  0.00    -0.379 OA
ATOM     11  H   UNL     1     -33.249  13.995  -0.686  0.00  0.00    +0.211 HD
ENDBRANCH   4  10
BRANCH   5  12
ATOM     12  O   UNL     1     -32.431  17.860   1.870  0.00  0.00    -0.378 OA
ATOM     13  H   UNL     1     -31.866  17.124   2.154  0.00  0.00    +0.211 HD
ENDBRANCH   5  12
BRANCH   6  14
ATOM     14  C   UNL     1     -35.667  15.868  -0.595  0.00  0.00    +0.169 C 
BRANCH  14  15
ATOM     15  O   UNL     1     -35.644  15.213   0.661  0.00  0.00    -0.379 OA
ATOM     16  H   UNL     1     -35.996  15.807   1.342  0.00  0.00    +0.211 HD
ENDBRANCH  14  15
ENDBRANCH   6  14
ENDBRANCH   1   7
BRANCH   1  17
ATOM     17  C   UNL     1     -35.102  20.195   0.834  0.00  0.00    +0.150 C 
BRANCH  17  18
ATOM     18  C   UNL     1     -35.348  20.655   2.266  0.00  0.00    +0.058 C 
BRANCH  18  20
ATOM     19  C   UNL     1     -36.695  22.760   2.491  0.00  0.00    -0.030 C 
ATOM     20  C   UNL     1     -36.633  21.425   2.389  0.00  0.00    -0.028 C 
BRANCH  19  21
ATOM     21  C   UNL     1     -35.491  23.654   2.496  0.00  0.00    +0.033 C 
BRANCH  21  24
ATOM     22  O   UNL     1     -33.957  26.162   2.492  0.00  0.00    -0.296 OA
ATOM     23  C   UNL     1     -35.562  24.256   5.021  0.00  0.00    +0.019 C 
ATOM     24  C   UNL     1     -35.608  24.734   3.556  0.00  0.00    +0.062 C 
ATOM     25  C   UNL     1     -35.095  25.506   5.779  0.00  0.00    +0.009 C 
ATOM     26  C   UNL     1     -34.015  26.129   4.901  0.00  0.00    +0.065 C 
ATOM     27  C   UNL     1     -34.462  25.727   3.518  0.00  0.00    +0.151 C 
BRANCH  23  28
ATOM     28  C   UNL     1     -34.633  23.068   5.283  0.00  0.00    +0.110 C 
BRANCH  28  30
ATOM     29  O   UNL     1     -36.275  22.080   6.792  0.00  0.00    -0.250 OA
ATOM     30  C   UNL     1     -35.344  21.960   6.009  0.00  0.00    +0.314 C 
BRANCH  30  31
ATOM     31  O   UNL     1     -34.794  20.766   5.668  0.00  0.00    -0.480 OA
ATOM     32  H   UNL     1     -35.013  20.366   4.849  0.00  0.00    +0.295 HD
ENDBRANCH  30  31
ENDBRANCH  28  30
ENDBRANCH  23  28
ENDBRANCH  21  24
ENDBRANCH  19  21
ENDBRANCH  18  20
ENDBRANCH  17  18
ENDBRANCH   1  17
TORSDOF 14
ENDMDL
MODEL 9
REMARK VINA RESULT:      -5.0      2.149      6.620
REMARK  Name = 52922085
REMARK  14 active torsions:
REMARK  status: ('A' for Active; 'I' for Inactive)
REMARK    1  A    between atoms: O_1  and  C_7
REMARK    2  A    between atoms: O_1  and  C_17
REMARK    3  A    between atoms: C_3  and  O_8
REMARK    4  A    between atoms: C_4  and  O_10
REMARK    5  A    between atoms: C_5  and  O_12
REMARK    6  A    between atoms: C_6  and  C_14
REMARK    7  A    between atoms: C_14  and  O_15
REMARK    8  A    between atoms: C_17  and  C_18
REMARK    9  A    between atoms: C_18  and  C_20
REMARK   10  A    between atoms: C_19  and  C_21
REMARK   11  A    between atoms: C_21  and  C_24
REMARK   12  A    between atoms: C_23  and  C_28
REMARK   13  A    between atoms: C_28  and  C_30
REMARK   14  A    between atoms: C_30  and  O_31
REMARK                            x       y       z     vdW  Elec       q    Type
REMARK                         _______ _______ _______ _____ _____    ______ ____
ROOT
ATOM      1  O   UNL     1     -37.575  24.128   2.010  0.00  0.00    -0.328 OA
ENDROOT
BRANCH   1   7
ATOM      2  O   UNL     1     -36.310  23.761   3.954  0.00  0.00    -0.326 OA
ATOM      3  C   UNL     1     -35.116  26.363   3.741  0.00  0.00    +0.172 C 
ATOM      4  C   UNL     1     -34.967  25.512   5.004  0.00  0.00    +0.169 C 
ATOM      5  C   UNL     1     -36.376  25.975   2.968  0.00  0.00    +0.196 C 
ATOM      6  C   UNL     1     -35.095  24.021   4.665  0.00  0.00    +0.176 C 
ATOM      7  C   UNL     1     -36.383  24.468   2.712  0.00  0.00    +0.266 C 
BRANCH   3   8
ATOM      8  O   UNL     1     -35.172  27.739   4.107  0.00  0.00    -0.379 OA
ATOM      9  H   UNL     1     -34.548  27.908   4.830  0.00  0.00    +0.211 HD
ENDBRANCH   3   8
BRANCH   4  10
ATOM     10  O   UNL     1     -33.688  25.751   5.587  0.00  0.00    -0.379 OA
ATOM     11  H   UNL     1     -33.131  26.236   4.957  0.00  0.00    +0.211 HD
ENDBRANCH   4  10
BRANCH   5  12
ATOM     12  O   UNL     1     -37.534  26.301   3.743  0.00  0.00    -0.378 OA
ATOM     13  H   UNL     1     -37.314  26.258   4.687  0.00  0.00    +0.211 HD
ENDBRANCH   5  12
BRANCH   6  14
ATOM     14  C   UNL     1     -35.106  23.159   5.922  0.00  0.00    +0.169 C 
BRANCH  14  15
ATOM     15  O   UNL     1     -36.178  22.237   5.827  0.00  0.00    -0.379 OA
ATOM     16  H   UNL     1     -36.468  22.172   4.904  0.00  0.00    +0.211 HD
ENDBRANCH  14  15
ENDBRANCH   6  14
ENDBRANCH   1   7
BRANCH   1  17
ATOM     17  C   UNL     1     -38.330  23.152   2.712  0.00  0.00    +0.150 C 
BRANCH  17  18
ATOM     18  C   UNL     1     -39.684  22.967   2.036  0.00  0.00    +0.058 C 
BRANCH  18  20
ATOM     19  C   UNL     1     -39.378  22.086  -0.293  0.00  0.00    -0.030 C 
ATOM     20  C   UNL     1     -39.584  23.113   0.544  0.00  0.00    -0.028 C 
BRANCH  19  21
ATOM     21  C   UNL     1     -39.221  20.663   0.154  0.00  0.00    +0.033 C 
BRANCH  21  24
ATOM     22  O   UNL     1     -39.349  17.944  -0.958  0.00  0.00    -0.296 OA
ATOM     23  C   UNL     1     -36.697  20.051   0.110  0.00  0.00    +0.019 C 
ATOM     24  C   UNL     1     -38.078  19.978  -0.572  0.00  0.00    +0.062 C 
ATOM     25  C   UNL     1     -35.958  18.840  -0.473  0.00  0.00    +0.009 C 
ATOM     26  C   UNL     1     -36.991  17.718  -0.512  0.00  0.00    +0.065 C 
ATOM     27  C   UNL     1     -38.276  18.481  -0.710  0.00  0.00    +0.151 C 
BRANCH  23  28
ATOM     28  C   UNL     1     -36.730  20.000   1.639  0.00  0.00    +0.110 C 
BRANCH  28  30
ATOM     29  O   UNL     1     -34.746  21.417   1.640  0.00  0.00    -0.250 OA
ATOM     30  C   UNL     1     -35.595  20.778   2.243  0.00  0.00    +0.314 C 
BRANCH  30  31
ATOM     31  O   UNL     1     -35.639  20.672   3.597  0.00  0.00    -0.480 OA
ATOM     32  H   UNL     1     -36.463  20.695   4.042  0.00  0.00    +0.295 HD
ENDBRANCH  30  31
ENDBRANCH  28  30
ENDBRANCH  23  28
ENDBRANCH  21  24
ENDBRANCH  19  21
ENDBRANCH  18  20
ENDBRANCH  17  18
ENDBRANCH   1  17
TORSDOF 14
ENDMDL
