MODEL 1
REMARK VINA RESULT:      -5.3      0.000      0.000
REMARK  Name = 191807
REMARK  3 active torsions:
REMARK  status: ('A' for Active; 'I' for Inactive)
REMARK    1  A    between atoms: C_10  and  O_16
REMARK    2  A    between atoms: C_11  and  C_18
REMARK    3  A    between atoms: C_18  and  O_19
REMARK                            x       y       z     vdW  Elec       q    Type
REMARK                         _______ _______ _______ _____ _____    ______ ____
ROOT
ATOM      1  O   UNL     1     -34.477  24.192   3.857  0.00  0.00    -0.332 OA
ATOM      2  O   UNL     1     -37.378  23.018   3.562  0.00  0.00    -0.437 OA
ATOM      3  O   UNL     1     -33.827  23.325   0.728  0.00  0.00    -0.251 OA
ATOM      4  O   UNL     1     -36.528  19.524   0.683  0.00  0.00    -0.192 OA
ATOM      5  N   UNL     1     -35.637  23.102   2.134  0.00  0.00    -0.159 N 
ATOM      6  N   UNL     1     -35.167  21.399   0.626  0.00  0.00    -0.158 N 
ATOM      7  N   UNL     1     -37.032  21.196   2.139  0.00  0.00    -0.268 NA
ATOM      8  C   UNL     1     -36.848  24.358   3.640  0.00  0.00    +0.246 C 
ATOM      9  C   UNL     1     -35.532  24.313   2.892  0.00  0.00    +0.247 C 
ATOM     10  C   UNL     1     -36.462  24.713   5.055  0.00  0.00    +0.185 C 
ATOM     11  C   UNL     1     -35.027  24.215   5.185  0.00  0.00    +0.177 C 
ATOM     12  C   UNL     1     -36.701  22.361   2.576  0.00  0.00    +0.363 C 
ATOM     13  C   UNL     1     -34.792  22.671   1.124  0.00  0.00    +0.331 C 
ATOM     14  C   UNL     1     -36.263  20.643   1.127  0.00  0.00    +0.280 C 
ATOM     15  C   UNL     1     -34.377  20.806  -0.446  0.00  0.00    +0.136 C 
ENDROOT
BRANCH  10  16
ATOM     16  O   UNL     1     -36.470  26.134   5.164  0.00  0.00    -0.378 OA
ATOM     17  H   UNL     1     -35.727  26.419   5.720  0.00  0.00    +0.211 HD
ENDBRANCH  10  16
BRANCH  11  18
ATOM     18  C   UNL     1     -34.922  22.816   5.776  0.00  0.00    +0.169 C 
BRANCH  18  19
ATOM     19  O   UNL     1     -36.217  22.388   6.132  0.00  0.00    -0.379 OA
ATOM     20  H   UNL     1     -36.641  23.062   6.685  0.00  0.00    +0.211 HD
ENDBRANCH  18  19
ENDBRANCH  11  18
TORSDOF 3
ENDMDL
MODEL 2
REMARK VINA RESULT:      -5.3      2.026      2.529
REMARK  Name = 191807
REMARK  3 active torsions:
REMARK  status: ('A' for Active; 'I' for Inactive)
REMARK    1  A    between atoms: C_10  and  O_16
REMARK    2  A    between atoms: C_11  and  C_18
REMARK    3  A    between atoms: C_18  and  O_19
REMARK                            x       y       z     vdW  Elec       q    Type
REMARK                         _______ _______ _______ _____ _____    ______ ____
ROOT
ATOM      1  O   UNL     1     -34.813  23.154   3.844  0.00  0.00    -0.332 OA
ATOM      2  O   UNL     1     -37.440  24.750   4.499  0.00  0.00    -0.437 OA
ATOM      3  O   UNL     1     -35.842  22.775   0.719  0.00  0.00    -0.251 OA
ATOM      4  O   UNL     1     -40.396  22.586   1.706  0.00  0.00    -0.192 OA
ATOM      5  N   UNL     1     -36.719  23.749   2.613  0.00  0.00    -0.159 N 
ATOM      6  N   UNL     1     -38.152  22.673   1.135  0.00  0.00    -0.158 N 
ATOM      7  N   UNL     1     -39.018  23.681   3.146  0.00  0.00    -0.268 NA
ATOM      8  C   UNL     1     -36.058  25.130   4.336  0.00  0.00    +0.246 C 
ATOM      9  C   UNL     1     -35.524  24.240   3.234  0.00  0.00    +0.247 C 
ATOM     10  C   UNL     1     -35.240  24.754   5.548  0.00  0.00    +0.185 C 
ATOM     11  C   UNL     1     -34.804  23.319   5.272  0.00  0.00    +0.177 C 
ATOM     12  C   UNL     1     -37.806  24.035   3.396  0.00  0.00    +0.363 C 
ATOM     13  C   UNL     1     -36.815  23.045   1.424  0.00  0.00    +0.331 C 
ATOM     14  C   UNL     1     -39.255  22.962   1.985  0.00  0.00    +0.280 C 
ATOM     15  C   UNL     1     -38.422  21.927  -0.087  0.00  0.00    +0.136 C 
ENDROOT
BRANCH  10  16
ATOM     16  O   UNL     1     -34.087  25.591   5.572  0.00  0.00    -0.378 OA
ATOM     17  H   UNL     1     -33.297  25.059   5.384  0.00  0.00    +0.211 HD
ENDBRANCH  10  16
BRANCH  11  18
ATOM     18  C   UNL     1     -35.727  22.276   5.885  0.00  0.00    +0.169 C 
BRANCH  18  19
ATOM     19  O   UNL     1     -35.188  21.000   5.625  0.00  0.00    -0.379 OA
ATOM     20  H   UNL     1     -35.883  20.330   5.712  0.00  0.00    +0.211 HD
ENDBRANCH  18  19
ENDBRANCH  11  18
TORSDOF 3
ENDMDL
MODEL 3
REMARK VINA RESULT:      -5.2      1.851      4.840
REMARK  Name = 191807
REMARK  3 active torsions:
REMARK  status: ('A' for Active; 'I' for Inactive)
REMARK    1  A    between atoms: C_10  and  O_16
REMARK    2  A    between atoms: C_11  and  C_18
REMARK    3  A    between atoms: C_18  and  O_19
REMARK                            x       y       z     vdW  Elec       q    Type
REMARK                         _______ _______ _______ _____ _____    ______ ____
ROOT
ATOM      1  O   UNL     1     -35.984  22.313   0.864  0.00  0.00    -0.332 OA
ATOM      2  O   UNL     1     -36.186  21.644   3.928  0.00  0.00    -0.437 OA
ATOM      3  O   UNL     1     -34.151  24.976   1.582  0.00  0.00    -0.251 OA
ATOM      4  O   UNL     1     -36.194  25.910   5.668  0.00  0.00    -0.192 OA
ATOM      5  N   UNL     1     -35.200  23.341   2.820  0.00  0.00    -0.159 N 
ATOM      6  N   UNL     1     -35.128  25.510   3.650  0.00  0.00    -0.158 N 
ATOM      7  N   UNL     1     -36.241  23.772   4.895  0.00  0.00    -0.268 NA
ATOM      8  C   UNL     1     -35.471  21.053   2.824  0.00  0.00    +0.246 C 
ATOM      9  C   UNL     1     -35.051  22.214   1.948  0.00  0.00    +0.247 C 
ATOM     10  C   UNL     1     -36.392  20.239   1.949  0.00  0.00    +0.185 C 
ATOM     11  C   UNL     1     -36.949  21.250   0.953  0.00  0.00    +0.177 C 
ATOM     12  C   UNL     1     -35.894  22.977   3.944  0.00  0.00    +0.363 C 
ATOM     13  C   UNL     1     -34.767  24.637   2.593  0.00  0.00    +0.331 C 
ATOM     14  C   UNL     1     -35.874  25.105   4.791  0.00  0.00    +0.280 C 
ATOM     15  C   UNL     1     -34.741  26.912   3.564  0.00  0.00    +0.136 C 
ENDROOT
BRANCH  10  16
ATOM     16  O   UNL     1     -35.596  19.287   1.246  0.00  0.00    -0.378 OA
ATOM     17  H   UNL     1     -34.937  19.753   0.706  0.00  0.00    +0.211 HD
ENDBRANCH  10  16
BRANCH  11  18
ATOM     18  C   UNL     1     -38.286  21.843   1.374  0.00  0.00    +0.169 C 
BRANCH  18  19
ATOM     19  O   UNL     1     -38.844  21.014   2.368  0.00  0.00    -0.379 OA
ATOM     20  H   UNL     1     -38.499  21.273   3.237  0.00  0.00    +0.211 HD
ENDBRANCH  18  19
ENDBRANCH  11  18
TORSDOF 3
ENDMDL
MODEL 4
REMARK VINA RESULT:      -5.2      2.043      3.534
REMARK  Name = 191807
REMARK  3 active torsions:
REMARK  status: ('A' for Active; 'I' for Inactive)
REMARK    1  A    between atoms: C_10  and  O_16
REMARK    2  A    between atoms: C_11  and  C_18
REMARK    3  A    between atoms: C_18  and  O_19
REMARK                            x       y       z     vdW  Elec       q    Type
REMARK                         _______ _______ _______ _____ _____    ______ ____
ROOT
ATOM      1  O   UNL     1     -35.871  26.342   4.081  0.00  0.00    -0.332 OA
ATOM      2  O   UNL     1     -34.420  23.597   4.561  0.00  0.00    -0.437 OA
ATOM      3  O   UNL     1     -38.732  24.734   3.639  0.00  0.00    -0.251 OA
ATOM      4  O   UNL     1     -36.871  20.903   1.741  0.00  0.00    -0.192 OA
ATOM      5  N   UNL     1     -36.558  24.100   4.060  0.00  0.00    -0.159 N 
ATOM      6  N   UNL     1     -37.870  22.771   2.679  0.00  0.00    -0.158 N 
ATOM      7  N   UNL     1     -35.580  22.165   3.123  0.00  0.00    -0.268 NA
ATOM      8  C   UNL     1     -34.797  24.689   5.425  0.00  0.00    +0.246 C 
ATOM      9  C   UNL     1     -36.123  25.185   4.889  0.00  0.00    +0.247 C 
ATOM     10  C   UNL     1     -33.865  25.864   5.260  0.00  0.00    +0.185 C 
ATOM     11  C   UNL     1     -34.469  26.660   4.109  0.00  0.00    +0.177 C 
ATOM     12  C   UNL     1     -35.530  23.216   3.865  0.00  0.00    +0.363 C 
ATOM     13  C   UNL     1     -37.805  23.940   3.478  0.00  0.00    +0.331 C 
ATOM     14  C   UNL     1     -36.774  21.888   2.475  0.00  0.00    +0.280 C 
ATOM     15  C   UNL     1     -39.121  22.458   1.998  0.00  0.00    +0.136 C 
ENDROOT
BRANCH  10  16
ATOM     16  O   UNL     1     -33.936  26.646   6.450  0.00  0.00    -0.378 OA
ATOM     17  H   UNL     1     -33.802  26.073   7.222  0.00  0.00    +0.211 HD
ENDBRANCH  10  16
BRANCH  11  18
ATOM     18  C   UNL     1     -33.868  26.317   2.753  0.00  0.00    +0.169 C 
BRANCH  18  19
ATOM     19  O   UNL     1     -32.632  25.675   2.967  0.00  0.00    -0.379 OA
ATOM     20  H   UNL     1     -32.720  24.728   2.772  0.00  0.00    +0.211 HD
ENDBRANCH  18  19
ENDBRANCH  11  18
TORSDOF 3
ENDMDL
MODEL 5
REMARK VINA RESULT:      -5.2      2.620      4.949
REMARK  Name = 191807
REMARK  3 active torsions:
REMARK  status: ('A' for Active; 'I' for Inactive)
REMARK    1  A    between atoms: C_10  and  O_16
REMARK    2  A    between atoms: C_11  and  C_18
REMARK    3  A    between atoms: C_18  and  O_19
REMARK                            x       y       z     vdW  Elec       q    Type
REMARK                         _______ _______ _______ _____ _____    ______ ____
ROOT
ATOM      1  O   UNL     1     -37.083  24.876   1.617  0.00  0.00    -0.332 OA
ATOM      2  O   UNL     1     -36.772  23.610   4.477  0.00  0.00    -0.437 OA
ATOM      3  O   UNL     1     -33.938  25.903   1.748  0.00  0.00    -0.251 OA
ATOM      4  O   UNL     1     -33.829  26.616   6.355  0.00  0.00    -0.192 OA
ATOM      5  N   UNL     1     -35.343  24.780   3.187  0.00  0.00    -0.159 N 
ATOM      6  N   UNL     1     -33.804  26.284   4.062  0.00  0.00    -0.158 N 
ATOM      7  N   UNL     1     -35.316  25.109   5.525  0.00  0.00    -0.268 NA
ATOM      8  C   UNL     1     -36.873  23.058   3.148  0.00  0.00    +0.246 C 
ATOM      9  C   UNL     1     -36.123  24.022   2.254  0.00  0.00    +0.247 C 
ATOM     10  C   UNL     1     -38.293  23.106   2.641  0.00  0.00    +0.185 C 
ATOM     11  C   UNL     1     -38.412  24.484   1.999  0.00  0.00    +0.177 C 
ATOM     12  C   UNL     1     -35.773  24.540   4.464  0.00  0.00    +0.363 C 
ATOM     13  C   UNL     1     -34.324  25.673   2.894  0.00  0.00    +0.331 C 
ATOM     14  C   UNL     1     -34.293  26.032   5.373  0.00  0.00    +0.280 C 
ATOM     15  C   UNL     1     -32.720  27.249   3.923  0.00  0.00    +0.136 C 
ENDROOT
BRANCH  10  16
ATOM     16  O   UNL     1     -38.428  22.111   1.629  0.00  0.00    -0.378 OA
ATOM     17  H   UNL     1     -37.662  21.516   1.657  0.00  0.00    +0.211 HD
ENDBRANCH  10  16
BRANCH  11  18
ATOM     18  C   UNL     1     -38.978  25.542   2.936  0.00  0.00    +0.169 C 
BRANCH  18  19
ATOM     19  O   UNL     1     -39.569  24.889   4.036  0.00  0.00    -0.379 OA
ATOM     20  H   UNL     1     -39.268  23.967   4.066  0.00  0.00    +0.211 HD
ENDBRANCH  18  19
ENDBRANCH  11  18
TORSDOF 3
ENDMDL
MODEL 6
REMARK VINA RESULT:      -5.2      3.219      5.471
REMARK  Name = 191807
REMARK  3 active torsions:
REMARK  status: ('A' for Active; 'I' for Inactive)
REMARK    1  A    between atoms: C_10  and  O_16
REMARK    2  A    between atoms: C_11  and  C_18
REMARK    3  A    between atoms: C_18  and  O_19
REMARK                            x       y       z     vdW  Elec       q    Type
REMARK                         _______ _______ _______ _____ _____    ______ ____
ROOT
ATOM      1  O   UNL     1     -35.636  24.567   2.604  0.00  0.00    -0.332 OA
ATOM      2  O   UNL     1     -34.728  24.580   5.613  0.00  0.00    -0.437 OA
ATOM      3  O   UNL     1     -32.859  26.169   1.775  0.00  0.00    -0.251 OA
ATOM      4  O   UNL     1     -32.472  28.595   5.740  0.00  0.00    -0.192 OA
ATOM      5  N   UNL     1     -33.781  25.427   3.752  0.00  0.00    -0.159 N 
ATOM      6  N   UNL     1     -32.594  27.424   3.743  0.00  0.00    -0.158 N 
ATOM      7  N   UNL     1     -33.603  26.623   5.780  0.00  0.00    -0.268 NA
ATOM      8  C   UNL     1     -34.818  23.554   4.603  0.00  0.00    +0.246 C 
ATOM      9  C   UNL     1     -34.432  24.231   3.305  0.00  0.00    +0.247 C 
ATOM     10  C   UNL     1     -36.248  23.122   4.388  0.00  0.00    +0.185 C 
ATOM     11  C   UNL     1     -36.777  24.096   3.341  0.00  0.00    +0.177 C 
ATOM     12  C   UNL     1     -34.005  25.613   5.090  0.00  0.00    +0.363 C 
ATOM     13  C   UNL     1     -33.057  26.322   2.981  0.00  0.00    +0.331 C 
ATOM     14  C   UNL     1     -32.869  27.601   5.128  0.00  0.00    +0.280 C 
ATOM     15  C   UNL     1     -31.810  28.457   3.077  0.00  0.00    +0.136 C 
ENDROOT
BRANCH  10  16
ATOM     16  O   UNL     1     -36.227  21.810   3.829  0.00  0.00    -0.378 OA
ATOM     17  H   UNL     1     -36.887  21.258   4.278  0.00  0.00    +0.211 HD
ENDBRANCH  10  16
BRANCH  11  18
ATOM     18  C   UNL     1     -37.496  25.297   3.940  0.00  0.00    +0.169 C 
BRANCH  18  19
ATOM     19  O   UNL     1     -38.874  25.003   4.000  0.00  0.00    -0.379 OA
ATOM     20  H   UNL     1     -39.123  24.806   4.917  0.00  0.00    +0.211 HD
ENDBRANCH  18  19
ENDBRANCH  11  18
TORSDOF 3
ENDMDL
MODEL 7
REMARK VINA RESULT:      -5.2      1.870      2.459
REMARK  Name = 191807
REMARK  3 active torsions:
REMARK  status: ('A' for Active; 'I' for Inactive)
REMARK    1  A    between atoms: C_10  and  O_16
REMARK    2  A    between atoms: C_11  and  C_18
REMARK    3  A    between atoms: C_18  and  O_19
REMARK                            x       y       z     vdW  Elec       q    Type
REMARK                         _______ _______ _______ _____ _____    ______ ____
ROOT
ATOM      1  O   UNL     1     -36.288  25.579   2.747  0.00  0.00    -0.332 OA
ATOM      2  O   UNL     1     -35.630  23.347   4.859  0.00  0.00    -0.437 OA
ATOM      3  O   UNL     1     -38.019  23.375   0.982  0.00  0.00    -0.251 OA
ATOM      4  O   UNL     1     -35.403  19.676   2.085  0.00  0.00    -0.192 OA
ATOM      5  N   UNL     1     -36.784  23.293   2.925  0.00  0.00    -0.159 N 
ATOM      6  N   UNL     1     -36.752  21.464   1.493  0.00  0.00    -0.158 N 
ATOM      7  N   UNL     1     -35.452  21.438   3.522  0.00  0.00    -0.268 NA
ATOM      8  C   UNL     1     -36.495  24.501   4.866  0.00  0.00    +0.246 C 
ATOM      9  C   UNL     1     -37.050  24.595   3.460  0.00  0.00    +0.247 C 
ATOM     10  C   UNL     1     -35.706  25.775   5.042  0.00  0.00    +0.185 C 
ATOM     11  C   UNL     1     -35.312  26.168   3.622  0.00  0.00    +0.177 C 
ATOM     12  C   UNL     1     -35.929  22.612   3.749  0.00  0.00    +0.363 C 
ATOM     13  C   UNL     1     -37.258  22.766   1.734  0.00  0.00    +0.331 C 
ATOM     14  C   UNL     1     -35.842  20.795   2.357  0.00  0.00    +0.280 C 
ATOM     15  C   UNL     1     -37.160  20.769   0.279  0.00  0.00    +0.136 C 
ENDROOT
BRANCH  10  16
ATOM     16  O   UNL     1     -36.588  26.764   5.567  0.00  0.00    -0.378 OA
ATOM     17  H   UNL     1     -36.078  27.414   6.077  0.00  0.00    +0.211 HD
ENDBRANCH  10  16
BRANCH  11  18
ATOM     18  C   UNL     1     -33.933  25.669   3.216  0.00  0.00    +0.169 C 
BRANCH  18  19
ATOM     19  O   UNL     1     -33.265  25.222   4.374  0.00  0.00    -0.379 OA
ATOM     20  H   UNL     1     -32.459  25.747   4.506  0.00  0.00    +0.211 HD
ENDBRANCH  18  19
ENDBRANCH  11  18
TORSDOF 3
ENDMDL
MODEL 8
REMARK VINA RESULT:      -5.1      2.099      5.151
REMARK  Name = 191807
REMARK  3 active torsions:
REMARK  status: ('A' for Active; 'I' for Inactive)
REMARK    1  A    between atoms: C_10  and  O_16
REMARK    2  A    between atoms: C_11  and  C_18
REMARK    3  A    between atoms: C_18  and  O_19
REMARK                            x       y       z     vdW  Elec       q    Type
REMARK                         _______ _______ _______ _____ _____    ______ ____
ROOT
ATOM      1  O   UNL     1     -35.573  21.787   3.322  0.00  0.00    -0.332 OA
ATOM      2  O   UNL     1     -37.240  24.197   2.185  0.00  0.00    -0.437 OA
ATOM      3  O   UNL     1     -34.833  23.584   6.003  0.00  0.00    -0.251 OA
ATOM      4  O   UNL     1     -34.771  27.716   3.841  0.00  0.00    -0.192 OA
ATOM      5  N   UNL     1     -36.024  23.964   4.068  0.00  0.00    -0.159 N 
ATOM      6  N   UNL     1     -34.786  25.701   4.987  0.00  0.00    -0.158 N 
ATOM      7  N   UNL     1     -36.023  26.042   2.947  0.00  0.00    -0.268 NA
ATOM      8  C   UNL     1     -37.595  22.916   2.747  0.00  0.00    +0.246 C 
ATOM      9  C   UNL     1     -36.581  22.663   3.843  0.00  0.00    +0.247 C 
ATOM     10  C   UNL     1     -37.361  21.801   1.758  0.00  0.00    +0.185 C 
ATOM     11  C   UNL     1     -35.904  21.411   1.974  0.00  0.00    +0.177 C 
ATOM     12  C   UNL     1     -36.402  24.817   3.066  0.00  0.00    +0.363 C 
ATOM     13  C   UNL     1     -35.186  24.347   5.103  0.00  0.00    +0.331 C 
ATOM     14  C   UNL     1     -35.175  26.553   3.916  0.00  0.00    +0.280 C 
ATOM     15  C   UNL     1     -33.903  26.260   6.003  0.00  0.00    +0.136 C 
ENDROOT
BRANCH  10  16
ATOM     16  O   UNL     1     -38.194  20.706   2.132  0.00  0.00    -0.378 OA
ATOM     17  H   UNL     1     -37.759  20.195   2.835  0.00  0.00    +0.211 HD
ENDBRANCH  10  16
BRANCH  11  18
ATOM     18  C   UNL     1     -34.941  22.112   1.026  0.00  0.00    +0.169 C 
BRANCH  18  19
ATOM     19  O   UNL     1     -35.694  22.719   0.000  0.00  0.00    -0.379 OA
ATOM     20  H   UNL     1     -36.116  23.523   0.341  0.00  0.00    +0.211 HD
ENDBRANCH  18  19
ENDBRANCH  11  18
TORSDOF 3
ENDMDL
MODEL 9
REMARK VINA RESULT:      -5.1      2.442      4.005
REMARK  Name = 191807
REMARK  3 active torsions:
REMARK  status: ('A' for Active; 'I' for Inactive)
REMARK    1  A    between atoms: C_10  and  O_16
REMARK    2  A    between atoms: C_11  and  C_18
REMARK    3  A    between atoms: C_18  and  O_19
REMARK                            x       y       z     vdW  Elec       q    Type
REMARK                         _______ _______ _______ _____ _____    ______ ____
ROOT
ATOM      1  O   UNL     1     -38.027  25.875   3.520  0.00  0.00    -0.332 OA
ATOM      2  O   UNL     1     -36.611  24.345   1.168  0.00  0.00    -0.437 OA
ATOM      3  O   UNL     1     -35.882  24.537   5.659  0.00  0.00    -0.251 OA
ATOM      4  O   UNL     1     -35.335  20.509   3.375  0.00  0.00    -0.192 OA
ATOM      5  N   UNL     1     -36.235  24.367   3.389  0.00  0.00    -0.159 N 
ATOM      6  N   UNL     1     -35.552  22.484   4.566  0.00  0.00    -0.158 N 
ATOM      7  N   UNL     1     -35.964  22.348   2.196  0.00  0.00    -0.268 NA
ATOM      8  C   UNL     1     -36.650  25.728   1.576  0.00  0.00    +0.246 C 
ATOM      9  C   UNL     1     -36.670  25.699   3.090  0.00  0.00    +0.247 C 
ATOM     10  C   UNL     1     -37.960  26.374   1.198  0.00  0.00    +0.185 C 
ATOM     11  C   UNL     1     -38.878  26.074   2.378  0.00  0.00    +0.177 C 
ATOM     12  C   UNL     1     -36.247  23.603   2.253  0.00  0.00    +0.363 C 
ATOM     13  C   UNL     1     -35.886  23.860   4.631  0.00  0.00    +0.331 C 
ATOM     14  C   UNL     1     -35.602  21.712   3.373  0.00  0.00    +0.280 C 
ATOM     15  C   UNL     1     -35.157  21.802   5.792  0.00  0.00    +0.136 C 
ENDROOT
BRANCH  10  16
ATOM     16  O   UNL     1     -37.746  27.782   1.125  0.00  0.00    -0.378 OA
ATOM     17  H   UNL     1     -37.523  28.121   2.007  0.00  0.00    +0.211 HD
ENDBRANCH  10  16
BRANCH  11  18
ATOM     18  C   UNL     1     -39.727  24.826   2.183  0.00  0.00    +0.169 C 
BRANCH  18  19
ATOM     19  O   UNL     1     -39.688  24.074   3.375  0.00  0.00    -0.379 OA
ATOM     20  H   UNL     1     -39.783  24.668   4.136  0.00  0.00    +0.211 HD
ENDBRANCH  18  19
ENDBRANCH  11  18
TORSDOF 3
ENDMDL
