MODEL 1
REMARK VINA RESULT:      -5.2      0.000      0.000
REMARK  Name = 198102
REMARK  7 active torsions:
REMARK  status: ('A' for Active; 'I' for Inactive)
REMARK    1  A    between atoms: C_2  and  O_7
REMARK    2  A    between atoms: C_3  and  O_9
REMARK    3  A    between atoms: C_4  and  O_11
REMARK    4  A    between atoms: C_5  and  C_17
REMARK    5  A    between atoms: C_6  and  N_13
REMARK    6  A    between atoms: N_13  and  N_16
REMARK    7  A    between atoms: C_17  and  O_18
REMARK                            x       y       z     vdW  Elec       q    Type
REMARK                         _______ _______ _______ _____ _____    ______ ____
ROOT
ATOM      1  O   UNL     1     -34.681  23.677   3.755  0.00  0.00    -0.335 OA
ATOM      2  C   UNL     1     -37.297  24.799   4.098  0.00  0.00    +0.170 C 
ATOM      3  C   UNL     1     -37.044  23.580   3.209  0.00  0.00    +0.169 C 
ATOM      4  C   UNL     1     -36.025  25.630   4.288  0.00  0.00    +0.184 C 
ATOM      5  C   UNL     1     -35.814  22.806   3.694  0.00  0.00    +0.175 C 
ATOM      6  C   UNL     1     -34.847  24.738   4.698  0.00  0.00    +0.222 C 
ENDROOT
BRANCH   2   7
ATOM      7  O   UNL     1     -38.308  25.616   3.506  0.00  0.00    -0.379 OA
ATOM      8  H   UNL     1     -37.937  26.487   3.296  0.00  0.00    +0.211 HD
ENDBRANCH   2   7
BRANCH   3   9
ATOM      9  O   UNL     1     -38.203  22.752   3.254  0.00  0.00    -0.379 OA
ATOM     10  H   UNL     1     -38.018  21.911   2.807  0.00  0.00    +0.211 HD
ENDBRANCH   3   9
BRANCH   4  11
ATOM     11  O   UNL     1     -36.258  26.598   5.310  0.00  0.00    -0.378 OA
ATOM     12  H   UNL     1     -37.192  26.577   5.568  0.00  0.00    +0.211 HD
ENDBRANCH   4  11
BRANCH   6  13
ATOM     13  N   UNL     1     -33.619  25.530   4.790  0.00  0.00    -0.148 NA
ATOM     14  C   UNL     1     -33.470  26.352   3.580  0.00  0.00    +0.114 C 
BRANCH  13  16
ATOM     15  O   UNL     1     -33.271  27.401   5.701  0.00  0.00    -0.082 OA
ATOM     16  N   UNL     1     -33.554  26.216   5.913  0.00  0.00    +0.034 NA
ENDBRANCH  13  16
ENDBRANCH   6  13
BRANCH   5  17
ATOM     17  C   UNL     1     -35.449  21.658   2.758  0.00  0.00    +0.169 C 
BRANCH  17  18
ATOM     18  O   UNL     1     -36.152  20.500   3.171  0.00  0.00    -0.379 OA
ATOM     19  H   UNL     1     -36.940  20.763   3.674  0.00  0.00    +0.211 HD
ENDBRANCH  17  18
ENDBRANCH   5  17
TORSDOF 7
ENDMDL
MODEL 2
REMARK VINA RESULT:      -5.1      2.907      4.453
REMARK  Name = 198102
REMARK  7 active torsions:
REMARK  status: ('A' for Active; 'I' for Inactive)
REMARK    1  A    between atoms: C_2  and  O_7
REMARK    2  A    between atoms: C_3  and  O_9
REMARK    3  A    between atoms: C_4  and  O_11
REMARK    4  A    between atoms: C_5  and  C_17
REMARK    5  A    between atoms: C_6  and  N_13
REMARK    6  A    between atoms: N_13  and  N_16
REMARK    7  A    between atoms: C_17  and  O_18
REMARK                            x       y       z     vdW  Elec       q    Type
REMARK                         _______ _______ _______ _____ _____    ______ ____
ROOT
ATOM      1  O   UNL     1     -37.179  23.010   3.711  0.00  0.00    -0.335 OA
ATOM      2  C   UNL     1     -36.386  25.658   4.471  0.00  0.00    +0.170 C 
ATOM      3  C   UNL     1     -35.877  24.414   5.202  0.00  0.00    +0.169 C 
ATOM      4  C   UNL     1     -37.705  25.382   3.743  0.00  0.00    +0.184 C 
ATOM      5  C   UNL     1     -35.875  23.202   4.265  0.00  0.00    +0.175 C 
ATOM      6  C   UNL     1     -37.606  24.106   2.899  0.00  0.00    +0.222 C 
ENDROOT
BRANCH   2   7
ATOM      7  O   UNL     1     -36.581  26.715   5.413  0.00  0.00    -0.379 OA
ATOM      8  H   UNL     1     -35.857  27.355   5.334  0.00  0.00    +0.211 HD
ENDBRANCH   2   7
BRANCH   3   9
ATOM      9  O   UNL     1     -34.558  24.685   5.669  0.00  0.00    -0.379 OA
ATOM     10  H   UNL     1     -33.912  24.285   5.065  0.00  0.00    +0.211 HD
ENDBRANCH   3   9
BRANCH   4  11
ATOM     11  O   UNL     1     -37.998  26.487   2.890  0.00  0.00    -0.378 OA
ATOM     12  H   UNL     1     -37.190  26.764   2.430  0.00  0.00    +0.211 HD
ENDBRANCH   4  11
BRANCH   6  13
ATOM     13  N   UNL     1     -38.898  23.805   2.280  0.00  0.00    -0.148 NA
ATOM     14  C   UNL     1     -39.023  22.354   2.081  0.00  0.00    +0.114 C 
BRANCH  13  16
ATOM     15  O   UNL     1     -40.650  24.977   2.189  0.00  0.00    -0.082 OA
ATOM     16  N   UNL     1     -39.902  24.342   2.942  0.00  0.00    +0.034 NA
ENDBRANCH  13  16
ENDBRANCH   6  13
BRANCH   5  17
ATOM     17  C   UNL     1     -35.498  21.913   4.989  0.00  0.00    +0.169 C 
BRANCH  17  18
ATOM     18  O   UNL     1     -36.026  21.964   6.302  0.00  0.00    -0.379 OA
ATOM     19  H   UNL     1     -36.672  22.686   6.363  0.00  0.00    +0.211 HD
ENDBRANCH  17  18
ENDBRANCH   5  17
TORSDOF 7
ENDMDL
MODEL 3
REMARK VINA RESULT:      -5.1      1.975      2.150
REMARK  Name = 198102
REMARK  7 active torsions:
REMARK  status: ('A' for Active; 'I' for Inactive)
REMARK    1  A    between atoms: C_2  and  O_7
REMARK    2  A    between atoms: C_3  and  O_9
REMARK    3  A    between atoms: C_4  and  O_11
REMARK    4  A    between atoms: C_5  and  C_17
REMARK    5  A    between atoms: C_6  and  N_13
REMARK    6  A    between atoms: N_13  and  N_16
REMARK    7  A    between atoms: C_17  and  O_18
REMARK                            x       y       z     vdW  Elec       q    Type
REMARK                         _______ _______ _______ _____ _____    ______ ____
ROOT
ATOM      1  O   UNL     1     -34.460  24.763   5.516  0.00  0.00    -0.335 OA
ATOM      2  C   UNL     1     -36.385  25.079   3.416  0.00  0.00    +0.170 C 
ATOM      3  C   UNL     1     -36.020  23.707   3.985  0.00  0.00    +0.169 C 
ATOM      4  C   UNL     1     -35.274  26.103   3.661  0.00  0.00    +0.184 C 
ATOM      5  C   UNL     1     -35.546  23.836   5.437  0.00  0.00    +0.175 C 
ATOM      6  C   UNL     1     -34.830  26.087   5.128  0.00  0.00    +0.222 C 
ENDROOT
BRANCH   2   7
ATOM      7  O   UNL     1     -36.616  24.963   2.010  0.00  0.00    -0.379 OA
ATOM      8  H   UNL     1     -35.869  24.503   1.597  0.00  0.00    +0.211 HD
ENDBRANCH   2   7
BRANCH   3   9
ATOM      9  O   UNL     1     -37.175  22.876   3.910  0.00  0.00    -0.379 OA
ATOM     10  H   UNL     1     -36.964  22.073   3.407  0.00  0.00    +0.211 HD
ENDBRANCH   3   9
BRANCH   4  11
ATOM     11  O   UNL     1     -35.766  27.402   3.334  0.00  0.00    -0.378 OA
ATOM     12  H   UNL     1     -35.084  27.896   2.853  0.00  0.00    +0.211 HD
ENDBRANCH   4  11
BRANCH   6  13
ATOM     13  N   UNL     1     -33.708  27.007   5.330  0.00  0.00    -0.148 NA
ATOM     14  C   UNL     1     -33.120  26.782   6.658  0.00  0.00    +0.114 C 
BRANCH  13  16
ATOM     15  O   UNL     1     -31.811  27.585   4.612  0.00  0.00    -0.082 OA
ATOM     16  N   UNL     1     -32.837  26.950   4.343  0.00  0.00    +0.034 NA
ENDBRANCH  13  16
ENDBRANCH   6  13
BRANCH   5  17
ATOM     17  C   UNL     1     -35.048  22.509   6.001  0.00  0.00    +0.169 C 
BRANCH  17  18
ATOM     18  O   UNL     1     -36.166  21.757   6.435  0.00  0.00    -0.379 OA
ATOM     19  H   UNL     1     -36.921  22.351   6.573  0.00  0.00    +0.211 HD
ENDBRANCH  17  18
ENDBRANCH   5  17
TORSDOF 7
ENDMDL
MODEL 4
REMARK VINA RESULT:      -4.7      3.356      5.126
REMARK  Name = 198102
REMARK  7 active torsions:
REMARK  status: ('A' for Active; 'I' for Inactive)
REMARK    1  A    between atoms: C_2  and  O_7
REMARK    2  A    between atoms: C_3  and  O_9
REMARK    3  A    between atoms: C_4  and  O_11
REMARK    4  A    between atoms: C_5  and  C_17
REMARK    5  A    between atoms: C_6  and  N_13
REMARK    6  A    between atoms: N_13  and  N_16
REMARK    7  A    between atoms: C_17  and  O_18
REMARK                            x       y       z     vdW  Elec       q    Type
REMARK                         _______ _______ _______ _____ _____    ______ ____
ROOT
ATOM      1  O   UNL     1     -37.256  22.952   3.372  0.00  0.00    -0.335 OA
ATOM      2  C   UNL     1     -38.318  25.594   3.036  0.00  0.00    +0.170 C 
ATOM      3  C   UNL     1     -37.468  25.206   4.247  0.00  0.00    +0.169 C 
ATOM      4  C   UNL     1     -38.970  24.367   2.392  0.00  0.00    +0.184 C 
ATOM      5  C   UNL     1     -36.515  24.059   3.891  0.00  0.00    +0.175 C 
ATOM      6  C   UNL     1     -37.937  23.261   2.154  0.00  0.00    +0.222 C 
ENDROOT
BRANCH   2   7
ATOM      7  O   UNL     1     -39.337  26.508   3.446  0.00  0.00    -0.379 OA
ATOM      8  H   UNL     1     -38.930  27.268   3.889  0.00  0.00    +0.211 HD
ENDBRANCH   2   7
BRANCH   3   9
ATOM      9  O   UNL     1     -36.732  26.355   4.657  0.00  0.00    -0.379 OA
ATOM     10  H   UNL     1     -37.343  27.023   5.008  0.00  0.00    +0.211 HD
ENDBRANCH   3   9
BRANCH   4  11
ATOM     11  O   UNL     1     -39.540  24.754   1.142  0.00  0.00    -0.378 OA
ATOM     12  H   UNL     1     -40.294  24.179   0.938  0.00  0.00    +0.211 HD
ENDBRANCH   4  11
BRANCH   6  13
ATOM     13  N   UNL     1     -38.588  22.063   1.619  0.00  0.00    -0.148 NA
ATOM     14  C   UNL     1     -37.668  20.920   1.709  0.00  0.00    +0.114 C 
BRANCH  13  16
ATOM     15  O   UNL     1     -40.447  21.075   1.495  0.00  0.00    -0.082 OA
ATOM     16  N   UNL     1     -39.763  21.848   2.175  0.00  0.00    +0.034 NA
ENDBRANCH  13  16
ENDBRANCH   6  13
BRANCH   5  17
ATOM     17  C   UNL     1     -35.741  23.555   5.105  0.00  0.00    +0.169 C 
BRANCH  17  18
ATOM     18  O   UNL     1     -36.196  22.251   5.419  0.00  0.00    -0.379 OA
ATOM     19  H   UNL     1     -36.109  21.682   4.638  0.00  0.00    +0.211 HD
ENDBRANCH  17  18
ENDBRANCH   5  17
TORSDOF 7
ENDMDL
MODEL 5
REMARK VINA RESULT:      -4.6      2.713      4.901
REMARK  Name = 198102
REMARK  7 active torsions:
REMARK  status: ('A' for Active; 'I' for Inactive)
REMARK    1  A    between atoms: C_2  and  O_7
REMARK    2  A    between atoms: C_3  and  O_9
REMARK    3  A    between atoms: C_4  and  O_11
REMARK    4  A    between atoms: C_5  and  C_17
REMARK    5  A    between atoms: C_6  and  N_13
REMARK    6  A    between atoms: N_13  and  N_16
REMARK    7  A    between atoms: C_17  and  O_18
REMARK                            x       y       z     vdW  Elec       q    Type
REMARK                         _______ _______ _______ _____ _____    ______ ____
ROOT
ATOM      1  O   UNL     1     -37.242  23.689   2.574  0.00  0.00    -0.335 OA
ATOM      2  C   UNL     1     -35.889  23.965   5.086  0.00  0.00    +0.170 C 
ATOM      3  C   UNL     1     -36.445  25.170   4.324  0.00  0.00    +0.169 C 
ATOM      4  C   UNL     1     -35.636  22.778   4.152  0.00  0.00    +0.184 C 
ATOM      5  C   UNL     1     -37.631  24.752   3.448  0.00  0.00    +0.175 C 
ATOM      6  C   UNL     1     -36.863  22.503   3.274  0.00  0.00    +0.222 C 
ENDROOT
BRANCH   2   7
ATOM      7  O   UNL     1     -34.663  24.332   5.722  0.00  0.00    -0.379 OA
ATOM      8  H   UNL     1     -34.085  24.772   5.080  0.00  0.00    +0.211 HD
ENDBRANCH   2   7
BRANCH   3   9
ATOM      9  O   UNL     1     -36.851  26.147   5.278  0.00  0.00    -0.379 OA
ATOM     10  H   UNL     1     -36.346  26.028   6.099  0.00  0.00    +0.211 HD
ENDBRANCH   3   9
BRANCH   4  11
ATOM     11  O   UNL     1     -35.357  21.624   4.944  0.00  0.00    -0.378 OA
ATOM     12  H   UNL     1     -35.951  20.902   4.684  0.00  0.00    +0.211 HD
ENDBRANCH   4  11
BRANCH   6  13
ATOM     13  N   UNL     1     -36.577  21.424   2.327  0.00  0.00    -0.148 NA
ATOM     14  C   UNL     1     -37.216  21.721   1.036  0.00  0.00    +0.114 C 
BRANCH  13  16
ATOM     15  O   UNL     1     -35.044  19.986   2.502  0.00  0.00    -0.082 OA
ATOM     16  N   UNL     1     -35.288  21.170   2.239  0.00  0.00    +0.034 NA
ENDBRANCH  13  16
ENDBRANCH   6  13
BRANCH   5  17
ATOM     17  C   UNL     1     -38.133  25.896   2.573  0.00  0.00    +0.169 C 
BRANCH  17  18
ATOM     18  O   UNL     1     -39.178  26.562   3.258  0.00  0.00    -0.379 OA
ATOM     19  H   UNL     1     -38.805  27.091   3.981  0.00  0.00    +0.211 HD
ENDBRANCH  17  18
ENDBRANCH   5  17
TORSDOF 7
ENDMDL
MODEL 6
REMARK VINA RESULT:      -4.6      1.850      2.219
REMARK  Name = 198102
REMARK  7 active torsions:
REMARK  status: ('A' for Active; 'I' for Inactive)
REMARK    1  A    between atoms: C_2  and  O_7
REMARK    2  A    between atoms: C_3  and  O_9
REMARK    3  A    between atoms: C_4  and  O_11
REMARK    4  A    between atoms: C_5  and  C_17
REMARK    5  A    between atoms: C_6  and  N_13
REMARK    6  A    between atoms: N_13  and  N_16
REMARK    7  A    between atoms: C_17  and  O_18
REMARK                            x       y       z     vdW  Elec       q    Type
REMARK                         _______ _______ _______ _____ _____    ______ ____
ROOT
ATOM      1  O   UNL     1     -36.478  23.241   3.617  0.00  0.00    -0.335 OA
ATOM      2  C   UNL     1     -37.762  25.759   3.142  0.00  0.00    +0.170 C 
ATOM      3  C   UNL     1     -37.883  24.587   2.166  0.00  0.00    +0.169 C 
ATOM      4  C   UNL     1     -36.510  25.637   4.015  0.00  0.00    +0.184 C 
ATOM      5  C   UNL     1     -37.717  23.254   2.903  0.00  0.00    +0.175 C 
ATOM      6  C   UNL     1     -36.413  24.239   4.637  0.00  0.00    +0.222 C 
ENDROOT
BRANCH   2   7
ATOM      7  O   UNL     1     -37.705  26.983   2.407  0.00  0.00    -0.379 OA
ATOM      8  H   UNL     1     -37.330  26.815   1.529  0.00  0.00    +0.211 HD
ENDBRANCH   2   7
BRANCH   3   9
ATOM      9  O   UNL     1     -39.164  24.657   1.547  0.00  0.00    -0.379 OA
ATOM     10  H   UNL     1     -39.069  24.993   0.641  0.00  0.00    +0.211 HD
ENDBRANCH   3   9
BRANCH   4  11
ATOM     11  O   UNL     1     -36.581  26.610   5.056  0.00  0.00    -0.378 OA
ATOM     12  H   UNL     1     -35.716  26.682   5.491  0.00  0.00    +0.211 HD
ENDBRANCH   4  11
BRANCH   6  13
ATOM     13  N   UNL     1     -35.168  24.107   5.397  0.00  0.00    -0.148 NA
ATOM     14  C   UNL     1     -35.007  22.714   5.839  0.00  0.00    +0.114 C 
BRANCH  13  16
ATOM     15  O   UNL     1     -33.610  25.527   5.339  0.00  0.00    -0.082 OA
ATOM     16  N   UNL     1     -34.132  24.581   4.737  0.00  0.00    +0.034 NA
ENDBRANCH  13  16
ENDBRANCH   6  13
BRANCH   5  17
ATOM     17  C   UNL     1     -37.701  22.065   1.948  0.00  0.00    +0.169 C 
BRANCH  17  18
ATOM     18  O   UNL     1     -38.688  21.139   2.364  0.00  0.00    -0.379 OA
ATOM     19  H   UNL     1     -39.537  21.364   1.950  0.00  0.00    +0.211 HD
ENDBRANCH  17  18
ENDBRANCH   5  17
TORSDOF 7
ENDMDL
MODEL 7
REMARK VINA RESULT:      -4.5      1.627      1.955
REMARK  Name = 198102
REMARK  7 active torsions:
REMARK  status: ('A' for Active; 'I' for Inactive)
REMARK    1  A    between atoms: C_2  and  O_7
REMARK    2  A    between atoms: C_3  and  O_9
REMARK    3  A    between atoms: C_4  and  O_11
REMARK    4  A    between atoms: C_5  and  C_17
REMARK    5  A    between atoms: C_6  and  N_13
REMARK    6  A    between atoms: N_13  and  N_16
REMARK    7  A    between atoms: C_17  and  O_18
REMARK                            x       y       z     vdW  Elec       q    Type
REMARK                         _______ _______ _______ _____ _____    ______ ____
ROOT
ATOM      1  O   UNL     1     -35.822  23.981   3.923  0.00  0.00    -0.335 OA
ATOM      2  C   UNL     1     -38.469  24.096   2.829  0.00  0.00    +0.170 C 
ATOM      3  C   UNL     1     -37.524  22.926   2.552  0.00  0.00    +0.169 C 
ATOM      4  C   UNL     1     -37.699  25.358   3.229  0.00  0.00    +0.184 C 
ATOM      5  C   UNL     1     -36.526  22.756   3.702  0.00  0.00    +0.175 C 
ATOM      6  C   UNL     1     -36.679  25.049   4.331  0.00  0.00    +0.222 C 
ENDROOT
BRANCH   2   7
ATOM      7  O   UNL     1     -39.243  24.368   1.659  0.00  0.00    -0.379 OA
ATOM      8  H   UNL     1     -38.654  24.644   0.940  0.00  0.00    +0.211 HD
ENDBRANCH   2   7
BRANCH   3   9
ATOM      9  O   UNL     1     -38.312  21.748   2.398  0.00  0.00    -0.379 OA
ATOM     10  H   UNL     1     -38.493  21.363   3.270  0.00  0.00    +0.211 HD
ENDBRANCH   3   9
BRANCH   4  11
ATOM     11  O   UNL     1     -38.628  26.329   3.708  0.00  0.00    -0.378 OA
ATOM     12  H   UNL     1     -39.513  26.126   3.369  0.00  0.00    +0.211 HD
ENDBRANCH   4  11
BRANCH   6  13
ATOM     13  N   UNL     1     -35.890  26.242   4.642  0.00  0.00    -0.148 NA
ATOM     14  C   UNL     1     -34.814  25.890   5.580  0.00  0.00    +0.114 C 
BRANCH  13  16
ATOM     15  O   UNL     1     -34.657  27.747   3.826  0.00  0.00    -0.082 OA
ATOM     16  N   UNL     1     -35.470  26.856   3.554  0.00  0.00    +0.034 NA
ENDBRANCH  13  16
ENDBRANCH   6  13
BRANCH   5  17
ATOM     17  C   UNL     1     -35.482  21.683   3.406  0.00  0.00    +0.169 C 
BRANCH  17  18
ATOM     18  O   UNL     1     -36.119  20.419   3.424  0.00  0.00    -0.379 OA
ATOM     19  H   UNL     1     -36.043  20.006   2.550  0.00  0.00    +0.211 HD
ENDBRANCH  17  18
ENDBRANCH   5  17
TORSDOF 7
ENDMDL
MODEL 8
REMARK VINA RESULT:      -4.4      2.418      4.218
REMARK  Name = 198102
REMARK  7 active torsions:
REMARK  status: ('A' for Active; 'I' for Inactive)
REMARK    1  A    between atoms: C_2  and  O_7
REMARK    2  A    between atoms: C_3  and  O_9
REMARK    3  A    between atoms: C_4  and  O_11
REMARK    4  A    between atoms: C_5  and  C_17
REMARK    5  A    between atoms: C_6  and  N_13
REMARK    6  A    between atoms: N_13  and  N_16
REMARK    7  A    between atoms: C_17  and  O_18
REMARK                            x       y       z     vdW  Elec       q    Type
REMARK                         _______ _______ _______ _____ _____    ______ ____
ROOT
ATOM      1  O   UNL     1     -37.814  24.479   3.657  0.00  0.00    -0.335 OA
ATOM      2  C   UNL     1     -35.641  26.144   2.805  0.00  0.00    +0.170 C 
ATOM      3  C   UNL     1     -37.055  26.299   2.242  0.00  0.00    +0.169 C 
ATOM      4  C   UNL     1     -35.415  24.742   3.378  0.00  0.00    +0.184 C 
ATOM      5  C   UNL     1     -38.096  25.824   3.261  0.00  0.00    +0.175 C 
ATOM      6  C   UNL     1     -36.556  24.347   4.322  0.00  0.00    +0.222 C 
ENDROOT
BRANCH   2   7
ATOM      7  O   UNL     1     -34.688  26.389   1.768  0.00  0.00    -0.379 OA
ATOM      8  H   UNL     1     -35.131  26.810   1.016  0.00  0.00    +0.211 HD
ENDBRANCH   2   7
BRANCH   3   9
ATOM      9  O   UNL     1     -37.258  27.674   1.927  0.00  0.00    -0.379 OA
ATOM     10  H   UNL     1     -37.442  27.766   0.979  0.00  0.00    +0.211 HD
ENDBRANCH   3   9
BRANCH   4  11
ATOM     11  O   UNL     1     -34.184  24.735   4.100  0.00  0.00    -0.378 OA
ATOM     12  H   UNL     1     -34.283  25.255   4.913  0.00  0.00    +0.211 HD
ENDBRANCH   4  11
BRANCH   6  13
ATOM     13  N   UNL     1     -36.373  22.973   4.793  0.00  0.00    -0.148 NA
ATOM     14  C   UNL     1     -35.864  22.140   3.694  0.00  0.00    +0.114 C 
BRANCH  13  16
ATOM     15  O   UNL     1     -36.004  21.990   6.622  0.00  0.00    -0.082 OA
ATOM     16  N   UNL     1     -35.643  22.917   5.888  0.00  0.00    +0.034 NA
ENDBRANCH  13  16
ENDBRANCH   6  13
BRANCH   5  17
ATOM     17  C   UNL     1     -39.510  25.839   2.690  0.00  0.00    +0.169 C 
BRANCH  17  18
ATOM     18  O   UNL     1     -40.425  25.626   3.750  0.00  0.00    -0.379 OA
ATOM     19  H   UNL     1     -40.635  26.475   4.171  0.00  0.00    +0.211 HD
ENDBRANCH  17  18
ENDBRANCH   5  17
TORSDOF 7
ENDMDL
MODEL 9
REMARK VINA RESULT:      -4.3      2.268      3.299
REMARK  Name = 198102
REMARK  7 active torsions:
REMARK  status: ('A' for Active; 'I' for Inactive)
REMARK    1  A    between atoms: C_2  and  O_7
REMARK    2  A    between atoms: C_3  and  O_9
REMARK    3  A    between atoms: C_4  and  O_11
REMARK    4  A    between atoms: C_5  and  C_17
REMARK    5  A    between atoms: C_6  and  N_13
REMARK    6  A    between atoms: N_13  and  N_16
REMARK    7  A    between atoms: C_17  and  O_18
REMARK                            x       y       z     vdW  Elec       q    Type
REMARK                         _______ _______ _______ _____ _____    ______ ____
ROOT
ATOM      1  O   UNL     1     -36.767  23.771   2.530  0.00  0.00    -0.335 OA
ATOM      2  C   UNL     1     -35.578  22.977   5.014  0.00  0.00    +0.170 C 
ATOM      3  C   UNL     1     -36.130  21.960   4.014  0.00  0.00    +0.169 C 
ATOM      4  C   UNL     1     -36.214  24.357   4.821  0.00  0.00    +0.184 C 
ATOM      5  C   UNL     1     -36.075  22.521   2.590  0.00  0.00    +0.175 C 
ATOM      6  C   UNL     1     -36.169  24.778   3.348  0.00  0.00    +0.222 C 
ENDROOT
BRANCH   2   7
ATOM      7  O   UNL     1     -35.836  22.523   6.344  0.00  0.00    -0.379 OA
ATOM      8  H   UNL     1     -35.456  23.149   6.979  0.00  0.00    +0.211 HD
ENDBRANCH   2   7
BRANCH   3   9
ATOM      9  O   UNL     1     -35.347  20.774   4.113  0.00  0.00    -0.379 OA
ATOM     10  H   UNL     1     -35.827  20.033   3.710  0.00  0.00    +0.211 HD
ENDBRANCH   3   9
BRANCH   4  11
ATOM     11  O   UNL     1     -35.493  25.308   5.604  0.00  0.00    -0.378 OA
ATOM     12  H   UNL     1     -35.643  26.198   5.250  0.00  0.00    +0.211 HD
ENDBRANCH   4  11
BRANCH   6  13
ATOM     13  N   UNL     1     -36.857  26.057   3.163  0.00  0.00    -0.148 NA
ATOM     14  C   UNL     1     -36.253  26.783   2.037  0.00  0.00    +0.114 C 
BRANCH  13  16
ATOM     15  O   UNL     1     -38.645  26.702   2.250  0.00  0.00    -0.082 OA
ATOM     16  N   UNL     1     -38.162  25.907   3.065  0.00  0.00    +0.034 NA
ENDBRANCH  13  16
ENDBRANCH   6  13
BRANCH   5  17
ATOM     17  C   UNL     1     -36.736  21.590   1.577  0.00  0.00    +0.169 C 
BRANCH  17  18
ATOM     18  O   UNL     1     -37.599  20.709   2.272  0.00  0.00    -0.379 OA
ATOM     19  H   UNL     1     -38.000  21.175   3.023  0.00  0.00    +0.211 HD
ENDBRANCH  17  18
ENDBRANCH   5  17
TORSDOF 7
ENDMDL
