MODEL 1
REMARK VINA RESULT:      -5.8      0.000      0.000
REMARK  Name = 195043
REMARK  13 active torsions:
REMARK  status: ('A' for Active; 'I' for Inactive)
REMARK    1  A    between atoms: C_1  and  C_4
REMARK    2  A    between atoms: C_1  and  N_17
REMARK    3  A    between atoms: C_1  and  C_26
REMARK    4  A    between atoms: N_3  and  C_6
REMARK    5  A    between atoms: C_6  and  C_9
REMARK    6  A    between atoms: C_6  and  C_12
REMARK    7  A    between atoms: C_12  and  C_13
REMARK    8  A    between atoms: C_13  and  S_14
REMARK    9  A    between atoms: C_18  and  C_20
REMARK   10  A    between atoms: C_26  and  C_27
REMARK   11  A    between atoms: C_27  and  C_28
REMARK   12  A    between atoms: C_28  and  N_29
REMARK   13  A    between atoms: N_29  and  C_32
REMARK                            x       y       z     vdW  Elec       q    Type
REMARK                         _______ _______ _______ _____ _____    ______ ____
ROOT
ATOM      1  C   UNL     1     -36.111  21.872   3.285  0.00  0.00    +0.149 C 
ENDROOT
BRANCH   1   4
ATOM      2  O   UNL     1     -35.902  23.797   1.826  0.00  0.00    -0.273 OA
ATOM      3  N   UNL     1     -38.011  23.198   2.589  0.00  0.00    -0.297 N 
ATOM      4  C   UNL     1     -36.633  23.065   2.491  0.00  0.00    +0.241 C 
ATOM      5  H   UNL     1     -38.507  22.560   3.150  0.00  0.00    +0.150 HD
BRANCH   3   6
ATOM      6  C   UNL     1     -38.749  24.234   1.904  0.00  0.00    +0.149 C 
BRANCH   6   9
ATOM      7  O   UNL     1     -38.499  26.518   2.694  0.00  0.00    -0.274 OA
ATOM      8  N   UNL     1     -39.780  25.066   3.929  0.00  0.00    -0.327 N 
ATOM      9  C   UNL     1     -38.969  25.396   2.864  0.00  0.00    +0.237 C 
ATOM     10  H   UNL     1     -39.991  25.742   4.613  0.00  0.00    +0.145 HD
ATOM     11  H   UNL     1     -40.148  24.156   4.004  0.00  0.00    +0.145 HD
ENDBRANCH   6   9
BRANCH   6  12
ATOM     12  C   UNL     1     -40.057  23.705   1.299  0.00  0.00    +0.041 C 
BRANCH  12  13
ATOM     13  C   UNL     1     -40.762  24.709   0.384  0.00  0.00    +0.060 C 
BRANCH  13  14
ATOM     14  S   UNL     1     -42.349  25.225   1.106  0.00  0.00    -0.139 S 
ATOM     15  C   UNL     1     -42.004  26.992   1.257  0.00  0.00    +0.069 C 
ENDBRANCH  13  14
ENDBRANCH  12  13
ENDBRANCH   6  12
ENDBRANCH   3   6
ENDBRANCH   1   4
BRANCH   1  17
ATOM     16  O   UNL     1     -35.994  19.703   1.407  0.00  0.00    -0.270 OA
ATOM     17  N   UNL     1     -34.933  21.359   2.635  0.00  0.00    -0.295 N 
ATOM     18  C   UNL     1     -34.974  20.301   1.737  0.00  0.00    +0.246 C 
ATOM     19  H   UNL     1     -34.063  21.776   2.836  0.00  0.00    +0.150 HD
BRANCH  18  20
ATOM     20  C   UNL     1     -33.667  19.873   1.173  0.00  0.00    +0.053 C 
ATOM     21  C   UNL     1     -32.968  20.720   0.315  0.00  0.00    +0.005 C 
ATOM     22  C   UNL     1     -33.141  18.624   1.502  0.00  0.00    +0.005 C 
ATOM     23  C   UNL     1     -31.741  20.319  -0.215  0.00  0.00    +0.000 C 
ATOM     24  C   UNL     1     -31.913  18.223   0.974  0.00  0.00    +0.000 C 
ATOM     25  C   UNL     1     -31.214  19.071   0.114  0.00  0.00    +0.000 C 
ENDBRANCH  18  20
ENDBRANCH   1  17
BRANCH   1  26
ATOM     26  C   UNL     1     -35.854  22.201   4.761  0.00  0.00    +0.031 C 
BRANCH  26  27
ATOM     27  C   UNL     1     -34.618  23.079   4.999  0.00  0.00    +0.029 C 
BRANCH  27  28
ATOM     28  C   UNL     1     -34.978  24.442   5.582  0.00  0.00    +0.129 C 
BRANCH  28  29
ATOM     29  N   UNL     1     -34.650  25.498   4.624  0.00  0.00    -0.240 NA
BRANCH  29  32
ATOM     30  N   UNL     1     -35.531  27.448   3.532  0.00  0.00    -0.370 N 
ATOM     31  N   UNL     1     -36.610  26.525   5.315  0.00  0.00    -0.370 N 
ATOM     32  C   UNL     1     -35.525  26.443   4.474  0.00  0.00    +0.189 C 
ATOM     33  H   UNL     1     -34.807  27.504   2.868  0.00  0.00    +0.159 HD
ATOM     34  H   UNL     1     -36.259  28.110   3.524  0.00  0.00    +0.159 HD
ATOM     35  H   UNL     1     -36.726  25.864   6.036  0.00  0.00    +0.159 HD
ATOM     36  H   UNL     1     -37.272  27.244   5.197  0.00  0.00    +0.159 HD
ENDBRANCH  29  32
ENDBRANCH  28  29
ENDBRANCH  27  28
ENDBRANCH  26  27
ENDBRANCH   1  26
TORSDOF 13
ENDMDL
MODEL 2
REMARK VINA RESULT:      -5.7      1.780      2.283
REMARK  Name = 195043
REMARK  13 active torsions:
REMARK  status: ('A' for Active; 'I' for Inactive)
REMARK    1  A    between atoms: C_1  and  C_4
REMARK    2  A    between atoms: C_1  and  N_17
REMARK    3  A    between atoms: C_1  and  C_26
REMARK    4  A    between atoms: N_3  and  C_6
REMARK    5  A    between atoms: C_6  and  C_9
REMARK    6  A    between atoms: C_6  and  C_12
REMARK    7  A    between atoms: C_12  and  C_13
REMARK    8  A    between atoms: C_13  and  S_14
REMARK    9  A    between atoms: C_18  and  C_20
REMARK   10  A    between atoms: C_26  and  C_27
REMARK   11  A    between atoms: C_27  and  C_28
REMARK   12  A    between atoms: C_28  and  N_29
REMARK   13  A    between atoms: N_29  and  C_32
REMARK                            x       y       z     vdW  Elec       q    Type
REMARK                         _______ _______ _______ _____ _____    ______ ____
ROOT
ATOM      1  C   UNL     1     -36.418  22.193   1.798  0.00  0.00    +0.149 C 
ENDROOT
BRANCH   1   4
ATOM      2  O   UNL     1     -36.657  23.624  -0.144  0.00  0.00    -0.273 OA
ATOM      3  N   UNL     1     -36.443  24.607   1.947  0.00  0.00    -0.297 N 
ATOM      4  C   UNL     1     -36.512  23.532   1.074  0.00  0.00    +0.241 C 
ATOM      5  H   UNL     1     -36.325  24.427   2.907  0.00  0.00    +0.150 HD
BRANCH   3   6
ATOM      6  C   UNL     1     -36.539  25.981   1.509  0.00  0.00    +0.149 C 
BRANCH   6   9
ATOM      7  O   UNL     1     -34.306  26.345   2.395  0.00  0.00    -0.274 OA
ATOM      8  N   UNL     1     -35.814  28.074   2.482  0.00  0.00    -0.327 N 
ATOM      9  C   UNL     1     -35.432  26.786   2.177  0.00  0.00    +0.237 C 
ATOM     10  H   UNL     1     -35.177  28.686   2.917  0.00  0.00    +0.145 HD
ATOM     11  H   UNL     1     -36.724  28.383   2.265  0.00  0.00    +0.145 HD
ENDBRANCH   6   9
BRANCH   6  12
ATOM     12  C   UNL     1     -37.935  26.568   1.757  0.00  0.00    +0.041 C 
BRANCH  12  13
ATOM     13  C   UNL     1     -38.706  25.870   2.880  0.00  0.00    +0.060 C 
BRANCH  13  14
ATOM     14  S   UNL     1     -40.353  25.359   2.302  0.00  0.00    -0.139 S 
ATOM     15  C   UNL     1     -41.344  26.471   3.324  0.00  0.00    +0.069 C 
ENDBRANCH  13  14
ENDBRANCH  12  13
ENDBRANCH   6  12
ENDBRANCH   3   6
ENDBRANCH   1   4
BRANCH   1  17
ATOM     16  O   UNL     1     -35.938  19.485   0.972  0.00  0.00    -0.270 OA
ATOM     17  N   UNL     1     -35.140  21.595   1.510  0.00  0.00    -0.295 N 
ATOM     18  C   UNL     1     -35.005  20.271   1.115  0.00  0.00    +0.246 C 
ATOM     19  H   UNL     1     -34.330  22.148   1.596  0.00  0.00    +0.150 HD
BRANCH  18  20
ATOM     20  C   UNL     1     -33.616  19.798   0.881  0.00  0.00    +0.053 C 
ATOM     21  C   UNL     1     -32.729  20.581   0.144  0.00  0.00    +0.005 C 
ATOM     22  C   UNL     1     -33.200  18.572   1.399  0.00  0.00    +0.005 C 
ATOM     23  C   UNL     1     -31.424  20.138  -0.076  0.00  0.00    +0.000 C 
ATOM     24  C   UNL     1     -31.895  18.129   1.180  0.00  0.00    +0.000 C 
ATOM     25  C   UNL     1     -31.008  18.912   0.441  0.00  0.00    +0.000 C 
ENDBRANCH  18  20
ENDBRANCH   1  17
BRANCH   1  26
ATOM     26  C   UNL     1     -36.668  22.310   3.307  0.00  0.00    +0.031 C 
BRANCH  26  27
ATOM     27  C   UNL     1     -35.420  22.071   4.168  0.00  0.00    +0.029 C 
BRANCH  27  28
ATOM     28  C   UNL     1     -35.388  22.966   5.404  0.00  0.00    +0.129 C 
BRANCH  28  29
ATOM     29  N   UNL     1     -36.285  24.107   5.218  0.00  0.00    -0.240 NA
BRANCH  29  32
ATOM     30  N   UNL     1     -36.445  26.478   5.570  0.00  0.00    -0.370 N 
ATOM     31  N   UNL     1     -34.413  25.453   5.462  0.00  0.00    -0.370 N 
ATOM     32  C   UNL     1     -35.777  25.285   5.406  0.00  0.00    +0.189 C 
ATOM     33  H   UNL     1     -37.429  26.497   5.550  0.00  0.00    +0.159 HD
ATOM     34  H   UNL     1     -35.940  27.311   5.706  0.00  0.00    +0.159 HD
ATOM     35  H   UNL     1     -33.816  24.676   5.359  0.00  0.00    +0.159 HD
ATOM     36  H   UNL     1     -34.032  26.350   5.605  0.00  0.00    +0.159 HD
ENDBRANCH  29  32
ENDBRANCH  28  29
ENDBRANCH  27  28
ENDBRANCH  26  27
ENDBRANCH   1  26
TORSDOF 13
ENDMDL
MODEL 3
REMARK VINA RESULT:      -5.6      3.698      6.533
REMARK  Name = 195043
REMARK  13 active torsions:
REMARK  status: ('A' for Active; 'I' for Inactive)
REMARK    1  A    between atoms: C_1  and  C_4
REMARK    2  A    between atoms: C_1  and  N_17
REMARK    3  A    between atoms: C_1  and  C_26
REMARK    4  A    between atoms: N_3  and  C_6
REMARK    5  A    between atoms: C_6  and  C_9
REMARK    6  A    between atoms: C_6  and  C_12
REMARK    7  A    between atoms: C_12  and  C_13
REMARK    8  A    between atoms: C_13  and  S_14
REMARK    9  A    between atoms: C_18  and  C_20
REMARK   10  A    between atoms: C_26  and  C_27
REMARK   11  A    between atoms: C_27  and  C_28
REMARK   12  A    between atoms: C_28  and  N_29
REMARK   13  A    between atoms: N_29  and  C_32
REMARK                            x       y       z     vdW  Elec       q    Type
REMARK                         _______ _______ _______ _____ _____    ______ ____
ROOT
ATOM      1  C   UNL     1     -34.442  26.068   2.728  0.00  0.00    +0.149 C 
ENDROOT
BRANCH   1   4
ATOM      2  O   UNL     1     -36.105  27.603   1.857  0.00  0.00    -0.273 OA
ATOM      3  N   UNL     1     -36.690  25.378   2.162  0.00  0.00    -0.297 N 
ATOM      4  C   UNL     1     -35.823  26.459   2.210  0.00  0.00    +0.241 C 
ATOM      5  H   UNL     1     -36.368  24.501   2.469  0.00  0.00    +0.150 HD
BRANCH   3   6
ATOM      6  C   UNL     1     -38.048  25.483   1.679  0.00  0.00    +0.149 C 
BRANCH   6   9
ATOM      7  O   UNL     1     -39.906  26.534   2.840  0.00  0.00    -0.274 OA
ATOM      8  N   UNL     1     -38.668  24.955   3.958  0.00  0.00    -0.327 N 
ATOM      9  C   UNL     1     -38.971  25.737   2.864  0.00  0.00    +0.237 C 
ATOM     10  H   UNL     1     -39.201  25.035   4.782  0.00  0.00    +0.145 HD
ATOM     11  H   UNL     1     -37.920  24.316   3.914  0.00  0.00    +0.145 HD
ENDBRANCH   6   9
BRANCH   6  12
ATOM     12  C   UNL     1     -38.463  24.257   0.853  0.00  0.00    +0.041 C 
BRANCH  12  13
ATOM     13  C   UNL     1     -37.721  22.975   1.241  0.00  0.00    +0.060 C 
BRANCH  13  14
ATOM     14  S   UNL     1     -38.872  21.767   1.965  0.00  0.00    -0.139 S 
ATOM     15  C   UNL     1     -39.741  21.297   0.453  0.00  0.00    +0.069 C 
ENDBRANCH  13  14
ENDBRANCH  12  13
ENDBRANCH   6  12
ENDBRANCH   3   6
ENDBRANCH   1   4
BRANCH   1  17
ATOM     16  O   UNL     1     -31.708  26.857   3.106  0.00  0.00    -0.270 OA
ATOM     17  N   UNL     1     -33.959  27.108   3.599  0.00  0.00    -0.295 N 
ATOM     18  C   UNL     1     -32.612  27.419   3.717  0.00  0.00    +0.246 C 
ATOM     19  H   UNL     1     -34.612  27.618   4.132  0.00  0.00    +0.150 HD
BRANCH  18  20
ATOM     20  C   UNL     1     -32.274  28.501   4.679  0.00  0.00    +0.053 C 
ATOM     21  C   UNL     1     -32.194  29.822   4.241  0.00  0.00    +0.005 C 
ATOM     22  C   UNL     1     -32.037  28.194   6.019  0.00  0.00    +0.005 C 
ATOM     23  C   UNL     1     -31.877  30.838   5.144  0.00  0.00    +0.000 C 
ATOM     24  C   UNL     1     -31.721  29.210   6.922  0.00  0.00    +0.000 C 
ATOM     25  C   UNL     1     -31.641  30.532   6.483  0.00  0.00    +0.000 C 
ENDBRANCH  18  20
ENDBRANCH   1  17
BRANCH   1  26
ATOM     26  C   UNL     1     -34.426  24.695   3.412  0.00  0.00    +0.031 C 
BRANCH  26  27
ATOM     27  C   UNL     1     -34.413  24.760   4.945  0.00  0.00    +0.029 C 
BRANCH  27  28
ATOM     28  C   UNL     1     -35.629  24.078   5.565  0.00  0.00    +0.129 C 
BRANCH  28  29
ATOM     29  N   UNL     1     -36.177  23.091   4.634  0.00  0.00    -0.240 NA
BRANCH  29  32
ATOM     30  N   UNL     1     -35.337  21.219   5.884  0.00  0.00    -0.370 N 
ATOM     31  N   UNL     1     -35.611  21.082   3.626  0.00  0.00    -0.370 N 
ATOM     32  C   UNL     1     -35.733  21.877   4.741  0.00  0.00    +0.189 C 
ATOM     33  H   UNL     1     -35.375  21.679   6.754  0.00  0.00    +0.159 HD
ATOM     34  H   UNL     1     -35.016  20.290   5.831  0.00  0.00    +0.159 HD
ATOM     35  H   UNL     1     -35.861  21.433   2.740  0.00  0.00    +0.159 HD
ATOM     36  H   UNL     1     -35.273  20.161   3.712  0.00  0.00    +0.159 HD
ENDBRANCH  29  32
ENDBRANCH  28  29
ENDBRANCH  27  28
ENDBRANCH  26  27
ENDBRANCH   1  26
TORSDOF 13
ENDMDL
MODEL 4
REMARK VINA RESULT:      -5.6      3.331      5.077
REMARK  Name = 195043
REMARK  13 active torsions:
REMARK  status: ('A' for Active; 'I' for Inactive)
REMARK    1  A    between atoms: C_1  and  C_4
REMARK    2  A    between atoms: C_1  and  N_17
REMARK    3  A    between atoms: C_1  and  C_26
REMARK    4  A    between atoms: N_3  and  C_6
REMARK    5  A    between atoms: C_6  and  C_9
REMARK    6  A    between atoms: C_6  and  C_12
REMARK    7  A    between atoms: C_12  and  C_13
REMARK    8  A    between atoms: C_13  and  S_14
REMARK    9  A    between atoms: C_18  and  C_20
REMARK   10  A    between atoms: C_26  and  C_27
REMARK   11  A    between atoms: C_27  and  C_28
REMARK   12  A    between atoms: C_28  and  N_29
REMARK   13  A    between atoms: N_29  and  C_32
REMARK                            x       y       z     vdW  Elec       q    Type
REMARK                         _______ _______ _______ _____ _____    ______ ____
ROOT
ATOM      1  C   UNL     1     -34.815  24.198   0.764  0.00  0.00    +0.149 C 
ENDROOT
BRANCH   1   4
ATOM      2  O   UNL     1     -32.917  25.555   1.421  0.00  0.00    -0.273 OA
ATOM      3  N   UNL     1     -34.856  25.657   2.693  0.00  0.00    -0.297 N 
ATOM      4  C   UNL     1     -34.071  25.196   1.646  0.00  0.00    +0.241 C 
ATOM      5  H   UNL     1     -35.770  25.305   2.787  0.00  0.00    +0.150 HD
BRANCH   3   6
ATOM      6  C   UNL     1     -34.390  26.632   3.651  0.00  0.00    +0.149 C 
BRANCH   6   9
ATOM      7  O   UNL     1     -34.260  25.910   5.967  0.00  0.00    -0.274 OA
ATOM      8  N   UNL     1     -36.317  26.449   5.103  0.00  0.00    -0.327 N 
ATOM      9  C   UNL     1     -34.952  26.279   5.022  0.00  0.00    +0.237 C 
ATOM     10  H   UNL     1     -36.789  26.251   5.944  0.00  0.00    +0.145 HD
ATOM     11  H   UNL     1     -36.821  26.769   4.319  0.00  0.00    +0.145 HD
ENDBRANCH   6   9
BRANCH   6  12
ATOM     12  C   UNL     1     -34.724  28.067   3.222  0.00  0.00    +0.041 C 
BRANCH  12  13
ATOM     13  C   UNL     1     -33.510  29.000   3.199  0.00  0.00    +0.060 C 
BRANCH  13  14
ATOM     14  S   UNL     1     -32.027  28.132   3.792  0.00  0.00    -0.139 S 
ATOM     15  C   UNL     1     -31.906  28.907   5.419  0.00  0.00    +0.069 C 
ENDBRANCH  13  14
ENDBRANCH  12  13
ENDBRANCH   6  12
ENDBRANCH   3   6
ENDBRANCH   1   4
BRANCH   1  17
ATOM     16  O   UNL     1     -33.339  22.633  -1.138  0.00  0.00    -0.270 OA
ATOM     17  N   UNL     1     -34.261  22.885   0.975  0.00  0.00    -0.295 N 
ATOM     18  C   UNL     1     -33.559  22.202  -0.009  0.00  0.00    +0.246 C 
ATOM     19  H   UNL     1     -34.386  22.456   1.852  0.00  0.00    +0.150 HD
BRANCH  18  20
ATOM     20  C   UNL     1     -33.075  20.846   0.358  0.00  0.00    +0.053 C 
ATOM     21  C   UNL     1     -33.887  19.994   1.104  0.00  0.00    +0.005 C 
ATOM     22  C   UNL     1     -31.807  20.426  -0.044  0.00  0.00    +0.005 C 
ATOM     23  C   UNL     1     -33.433  18.721   1.448  0.00  0.00    +0.000 C 
ATOM     24  C   UNL     1     -31.352  19.153   0.300  0.00  0.00    +0.000 C 
ATOM     25  C   UNL     1     -32.166  18.301   1.047  0.00  0.00    +0.000 C 
ENDBRANCH  18  20
ENDBRANCH   1  17
BRANCH   1  26
ATOM     26  C   UNL     1     -36.333  24.221   0.983  0.00  0.00    +0.031 C 
BRANCH  26  27
ATOM     27  C   UNL     1     -36.909  22.898   1.507  0.00  0.00    +0.029 C 
BRANCH  27  28
ATOM     28  C   UNL     1     -37.369  23.001   2.959  0.00  0.00    +0.129 C 
BRANCH  28  29
ATOM     29  N   UNL     1     -36.223  23.273   3.827  0.00  0.00    -0.240 NA
BRANCH  29  32
ATOM     30  N   UNL     1     -36.003  22.383   6.048  0.00  0.00    -0.370 N 
ATOM     31  N   UNL     1     -35.384  21.151   4.234  0.00  0.00    -0.370 N 
ATOM     32  C   UNL     1     -35.900  22.346   4.675  0.00  0.00    +0.189 C 
ATOM     33  H   UNL     1     -36.359  23.186   6.493  0.00  0.00    +0.159 HD
ATOM     34  H   UNL     1     -35.721  21.607   6.584  0.00  0.00    +0.159 HD
ATOM     35  H   UNL     1     -35.258  20.994   3.270  0.00  0.00    +0.159 HD
ATOM     36  H   UNL     1     -35.140  20.450   4.881  0.00  0.00    +0.159 HD
ENDBRANCH  29  32
ENDBRANCH  28  29
ENDBRANCH  27  28
ENDBRANCH  26  27
ENDBRANCH   1  26
TORSDOF 13
ENDMDL
MODEL 5
REMARK VINA RESULT:      -5.5      3.677      5.665
REMARK  Name = 195043
REMARK  13 active torsions:
REMARK  status: ('A' for Active; 'I' for Inactive)
REMARK    1  A    between atoms: C_1  and  C_4
REMARK    2  A    between atoms: C_1  and  N_17
REMARK    3  A    between atoms: C_1  and  C_26
REMARK    4  A    between atoms: N_3  and  C_6
REMARK    5  A    between atoms: C_6  and  C_9
REMARK    6  A    between atoms: C_6  and  C_12
REMARK    7  A    between atoms: C_12  and  C_13
REMARK    8  A    between atoms: C_13  and  S_14
REMARK    9  A    between atoms: C_18  and  C_20
REMARK   10  A    between atoms: C_26  and  C_27
REMARK   11  A    between atoms: C_27  and  C_28
REMARK   12  A    between atoms: C_28  and  N_29
REMARK   13  A    between atoms: N_29  and  C_32
REMARK                            x       y       z     vdW  Elec       q    Type
REMARK                         _______ _______ _______ _____ _____    ______ ____
ROOT
ATOM      1  C   UNL     1     -35.827  26.135   4.132  0.00  0.00    +0.149 C 
ENDROOT
BRANCH   1   4
ATOM      2  O   UNL     1     -34.202  26.673   2.416  0.00  0.00    -0.273 OA
ATOM      3  N   UNL     1     -35.299  28.409   3.497  0.00  0.00    -0.297 N 
ATOM      4  C   UNL     1     -35.006  27.075   3.254  0.00  0.00    +0.241 C 
ATOM      5  H   UNL     1     -35.960  28.627   4.192  0.00  0.00    +0.150 HD
BRANCH   3   6
ATOM      6  C   UNL     1     -34.676  29.492   2.772  0.00  0.00    +0.149 C 
BRANCH   6   9
ATOM      7  O   UNL     1     -33.311  30.625   4.433  0.00  0.00    -0.274 OA
ATOM      8  N   UNL     1     -32.276  29.230   2.932  0.00  0.00    -0.327 N 
ATOM      9  C   UNL     1     -33.375  29.864   3.471  0.00  0.00    +0.237 C 
ATOM     10  H   UNL     1     -31.380  29.396   3.306  0.00  0.00    +0.145 HD
ATOM     11  H   UNL     1     -32.387  28.612   2.174  0.00  0.00    +0.145 HD
ENDBRANCH   6   9
BRANCH   6  12
ATOM     12  C   UNL     1     -35.622  30.688   2.599  0.00  0.00    +0.041 C 
BRANCH  12  13
ATOM     13  C   UNL     1     -36.365  30.695   1.260  0.00  0.00    +0.060 C 
BRANCH  13  14
ATOM     14  S   UNL     1     -35.627  29.492   0.115  0.00  0.00    -0.139 S 
ATOM     15  C   UNL     1     -36.960  28.273   0.124  0.00  0.00    +0.069 C 
ENDBRANCH  13  14
ENDBRANCH  12  13
ENDBRANCH   6  12
ENDBRANCH   3   6
ENDBRANCH   1   4
BRANCH   1  17
ATOM     16  O   UNL     1     -38.026  24.295   3.980  0.00  0.00    -0.270 OA
ATOM     17  N   UNL     1     -35.808  24.817   3.551  0.00  0.00    -0.295 N 
ATOM     18  C   UNL     1     -36.926  23.995   3.524  0.00  0.00    +0.246 C 
ATOM     19  H   UNL     1     -34.967  24.488   3.158  0.00  0.00    +0.150 HD
BRANCH  18  20
ATOM     20  C   UNL     1     -36.734  22.655   2.912  0.00  0.00    +0.053 C 
ATOM     21  C   UNL     1     -35.613  21.893   3.240  0.00  0.00    +0.005 C 
ATOM     22  C   UNL     1     -37.675  22.159   2.010  0.00  0.00    +0.005 C 
ATOM     23  C   UNL     1     -35.433  20.634   2.666  0.00  0.00    +0.000 C 
ATOM     24  C   UNL     1     -37.495  20.899   1.436  0.00  0.00    +0.000 C 
ATOM     25  C   UNL     1     -36.373  20.138   1.764  0.00  0.00    +0.000 C 
ENDBRANCH  18  20
ENDBRANCH   1  17
BRANCH   1  26
ATOM     26  C   UNL     1     -35.362  26.124   5.594  0.00  0.00    +0.031 C 
BRANCH  26  27
ATOM     27  C   UNL     1     -33.870  25.815   5.773  0.00  0.00    +0.029 C 
BRANCH  27  28
ATOM     28  C   UNL     1     -33.151  26.882   6.594  0.00  0.00    +0.129 C 
BRANCH  28  29
ATOM     29  N   UNL     1     -32.165  27.573   5.763  0.00  0.00    -0.240 NA
BRANCH  29  32
ATOM     30  N   UNL     1     -30.038  28.044   6.775  0.00  0.00    -0.370 N 
ATOM     31  N   UNL     1     -31.671  29.631   6.706  0.00  0.00    -0.370 N 
ATOM     32  C   UNL     1     -31.321  28.343   6.376  0.00  0.00    +0.189 C 
ATOM     33  H   UNL     1     -29.664  27.150   6.599  0.00  0.00    +0.159 HD
ATOM     34  H   UNL     1     -29.495  28.722   7.237  0.00  0.00    +0.159 HD
ATOM     35  H   UNL     1     -32.566  29.974   6.477  0.00  0.00    +0.159 HD
ATOM     36  H   UNL     1     -31.027  30.213   7.172  0.00  0.00    +0.159 HD
ENDBRANCH  29  32
ENDBRANCH  28  29
ENDBRANCH  27  28
ENDBRANCH  26  27
ENDBRANCH   1  26
TORSDOF 13
ENDMDL
MODEL 6
REMARK VINA RESULT:      -5.5      1.954      2.677
REMARK  Name = 195043
REMARK  13 active torsions:
REMARK  status: ('A' for Active; 'I' for Inactive)
REMARK    1  A    between atoms: C_1  and  C_4
REMARK    2  A    between atoms: C_1  and  N_17
REMARK    3  A    between atoms: C_1  and  C_26
REMARK    4  A    between atoms: N_3  and  C_6
REMARK    5  A    between atoms: C_6  and  C_9
REMARK    6  A    between atoms: C_6  and  C_12
REMARK    7  A    between atoms: C_12  and  C_13
REMARK    8  A    between atoms: C_13  and  S_14
REMARK    9  A    between atoms: C_18  and  C_20
REMARK   10  A    between atoms: C_26  and  C_27
REMARK   11  A    between atoms: C_27  and  C_28
REMARK   12  A    between atoms: C_28  and  N_29
REMARK   13  A    between atoms: N_29  and  C_32
REMARK                            x       y       z     vdW  Elec       q    Type
REMARK                         _______ _______ _______ _____ _____    ______ ____
ROOT
ATOM      1  C   UNL     1     -35.233  23.343   2.713  0.00  0.00    +0.149 C 
ENDROOT
BRANCH   1   4
ATOM      2  O   UNL     1     -36.962  23.511   4.404  0.00  0.00    -0.273 OA
ATOM      3  N   UNL     1     -37.592  23.322   2.178  0.00  0.00    -0.297 N 
ATOM      4  C   UNL     1     -36.673  23.394   3.215  0.00  0.00    +0.241 C 
ATOM      5  H   UNL     1     -37.257  23.228   1.258  0.00  0.00    +0.150 HD
BRANCH   3   6
ATOM      6  C   UNL     1     -39.020  23.380   2.391  0.00  0.00    +0.149 C 
BRANCH   6   9
ATOM      7  O   UNL     1     -40.632  22.143   1.060  0.00  0.00    -0.274 OA
ATOM      8  N   UNL     1     -38.994  20.971   2.162  0.00  0.00    -0.327 N 
ATOM      9  C   UNL     1     -39.654  22.126   1.802  0.00  0.00    +0.237 C 
ATOM     10  H   UNL     1     -39.317  20.099   1.838  0.00  0.00    +0.145 HD
ATOM     11  H   UNL     1     -38.200  21.018   2.743  0.00  0.00    +0.145 HD
ENDBRANCH   6   9
BRANCH   6  12
ATOM     12  C   UNL     1     -39.632  24.674   1.837  0.00  0.00    +0.041 C 
BRANCH  12  13
ATOM     13  C   UNL     1     -39.885  25.741   2.906  0.00  0.00    +0.060 C 
BRANCH  13  14
ATOM     14  S   UNL     1     -41.555  26.438   2.728  0.00  0.00    -0.139 S 
ATOM     15  C   UNL     1     -42.141  25.371   1.393  0.00  0.00    +0.069 C 
ENDBRANCH  13  14
ENDBRANCH  12  13
ENDBRANCH   6  12
ENDBRANCH   3   6
ENDBRANCH   1   4
BRANCH   1  17
ATOM     16  O   UNL     1     -35.211  20.635   3.668  0.00  0.00    -0.270 OA
ATOM     17  N   UNL     1     -35.057  22.153   1.921  0.00  0.00    -0.295 N 
ATOM     18  C   UNL     1     -35.060  20.879   2.474  0.00  0.00    +0.246 C 
ATOM     19  H   UNL     1     -34.928  22.247   0.949  0.00  0.00    +0.150 HD
BRANCH  18  20
ATOM     20  C   UNL     1     -34.839  19.757   1.526  0.00  0.00    +0.053 C 
ATOM     21  C   UNL     1     -33.622  19.076   1.523  0.00  0.00    +0.005 C 
ATOM     22  C   UNL     1     -35.848  19.385   0.637  0.00  0.00    +0.005 C 
ATOM     23  C   UNL     1     -33.414  18.022   0.633  0.00  0.00    +0.000 C 
ATOM     24  C   UNL     1     -35.640  18.330  -0.253  0.00  0.00    +0.000 C 
ATOM     25  C   UNL     1     -34.422  17.650  -0.254  0.00  0.00    +0.000 C 
ENDBRANCH  18  20
ENDBRANCH   1  17
BRANCH   1  26
ATOM     26  C   UNL     1     -34.821  24.607   1.948  0.00  0.00    +0.031 C 
BRANCH  26  27
ATOM     27  C   UNL     1     -33.563  25.291   2.503  0.00  0.00    +0.029 C 
BRANCH  27  28
ATOM     28  C   UNL     1     -33.840  26.714   2.978  0.00  0.00    +0.129 C 
BRANCH  28  29
ATOM     29  N   UNL     1     -35.169  26.790   3.585  0.00  0.00    -0.240 NA
BRANCH  29  32
ATOM     30  N   UNL     1     -34.210  26.458   5.762  0.00  0.00    -0.370 N 
ATOM     31  N   UNL     1     -36.466  26.360   5.457  0.00  0.00    -0.370 N 
ATOM     32  C   UNL     1     -35.244  26.553   4.857  0.00  0.00    +0.189 C 
ATOM     33  H   UNL     1     -33.280  26.575   5.460  0.00  0.00    +0.159 HD
ATOM     34  H   UNL     1     -34.401  26.272   6.710  0.00  0.00    +0.159 HD
ATOM     35  H   UNL     1     -37.291  26.402   4.920  0.00  0.00    +0.159 HD
ATOM     36  H   UNL     1     -36.518  26.181   6.424  0.00  0.00    +0.159 HD
ENDBRANCH  29  32
ENDBRANCH  28  29
ENDBRANCH  27  28
ENDBRANCH  26  27
ENDBRANCH   1  26
TORSDOF 13
ENDMDL
MODEL 7
REMARK VINA RESULT:      -5.5      3.972      6.211
REMARK  Name = 195043
REMARK  13 active torsions:
REMARK  status: ('A' for Active; 'I' for Inactive)
REMARK    1  A    between atoms: C_1  and  C_4
REMARK    2  A    between atoms: C_1  and  N_17
REMARK    3  A    between atoms: C_1  and  C_26
REMARK    4  A    between atoms: N_3  and  C_6
REMARK    5  A    between atoms: C_6  and  C_9
REMARK    6  A    between atoms: C_6  and  C_12
REMARK    7  A    between atoms: C_12  and  C_13
REMARK    8  A    between atoms: C_13  and  S_14
REMARK    9  A    between atoms: C_18  and  C_20
REMARK   10  A    between atoms: C_26  and  C_27
REMARK   11  A    between atoms: C_27  and  C_28
REMARK   12  A    between atoms: C_28  and  N_29
REMARK   13  A    between atoms: N_29  and  C_32
REMARK                            x       y       z     vdW  Elec       q    Type
REMARK                         _______ _______ _______ _____ _____    ______ ____
ROOT
ATOM      1  C   UNL     1     -37.224  20.457   0.881  0.00  0.00    +0.149 C 
ENDROOT
BRANCH   1   4
ATOM      2  O   UNL     1     -39.247  19.903  -0.333  0.00  0.00    -0.273 OA
ATOM      3  N   UNL     1     -37.598  18.285  -0.114  0.00  0.00    -0.297 N 
ATOM      4  C   UNL     1     -38.151  19.541   0.089  0.00  0.00    +0.241 C 
ATOM      5  H   UNL     1     -36.712  18.093   0.267  0.00  0.00    +0.150 HD
BRANCH   3   6
ATOM      6  C   UNL     1     -38.268  17.246  -0.862  0.00  0.00    +0.149 C 
BRANCH   6   9
ATOM      7  O   UNL     1     -38.906  15.009  -0.159  0.00  0.00    -0.274 OA
ATOM      8  N   UNL     1     -36.879  15.838   0.533  0.00  0.00    -0.327 N 
ATOM      9  C   UNL     1     -38.083  15.921  -0.133  0.00  0.00    +0.237 C 
ATOM     10  H   UNL     1     -36.653  15.025   1.039  0.00  0.00    +0.145 HD
ATOM     11  H   UNL     1     -36.246  16.592   0.502  0.00  0.00    +0.145 HD
ENDBRANCH   6   9
BRANCH   6  12
ATOM     12  C   UNL     1     -37.797  17.193  -2.322  0.00  0.00    +0.041 C 
BRANCH  12  13
ATOM     13  C   UNL     1     -36.459  17.897  -2.563  0.00  0.00    +0.060 C 
BRANCH  13  14
ATOM     14  S   UNL     1     -35.114  16.681  -2.696  0.00  0.00    -0.139 S 
ATOM     15  C   UNL     1     -33.750  17.745  -2.177  0.00  0.00    +0.069 C 
ENDBRANCH  13  14
ENDBRANCH  12  13
ENDBRANCH   6  12
ENDBRANCH   3   6
ENDBRANCH   1   4
BRANCH   1  17
ATOM     16  O   UNL     1     -35.097  20.126   2.782  0.00  0.00    -0.270 OA
ATOM     17  N   UNL     1     -35.858  20.102   0.592  0.00  0.00    -0.295 N 
ATOM     18  C   UNL     1     -34.895  19.965   1.582  0.00  0.00    +0.246 C 
ATOM     19  H   UNL     1     -35.598  19.951  -0.346  0.00  0.00    +0.150 HD
BRANCH  18  20
ATOM     20  C   UNL     1     -33.526  19.620   1.116  0.00  0.00    +0.053 C 
ATOM     21  C   UNL     1     -32.950  18.406   1.485  0.00  0.00    +0.005 C 
ATOM     22  C   UNL     1     -32.818  20.511   0.310  0.00  0.00    +0.005 C 
ATOM     23  C   UNL     1     -31.665  18.081   1.049  0.00  0.00    +0.000 C 
ATOM     24  C   UNL     1     -31.534  20.187  -0.128  0.00  0.00    +0.000 C 
ATOM     25  C   UNL     1     -30.957  18.972   0.243  0.00  0.00    +0.000 C 
ENDBRANCH  18  20
ENDBRANCH   1  17
BRANCH   1  26
ATOM     26  C   UNL     1     -37.494  21.946   0.629  0.00  0.00    +0.031 C 
BRANCH  26  27
ATOM     27  C   UNL     1     -36.226  22.809   0.561  0.00  0.00    +0.029 C 
BRANCH  27  28
ATOM     28  C   UNL     1     -36.281  23.996   1.518  0.00  0.00    +0.129 C 
BRANCH  28  29
ATOM     29  N   UNL     1     -35.547  23.683   2.745  0.00  0.00    -0.240 NA
BRANCH  29  32
ATOM     30  N   UNL     1     -36.354  22.220   4.471  0.00  0.00    -0.370 N 
ATOM     31  N   UNL     1     -37.034  24.393   4.375  0.00  0.00    -0.370 N 
ATOM     32  C   UNL     1     -36.256  23.417   3.797  0.00  0.00    +0.189 C 
ATOM     33  H   UNL     1     -35.846  21.437   4.158  0.00  0.00    +0.159 HD
ATOM     34  H   UNL     1     -36.933  22.147   5.263  0.00  0.00    +0.159 HD
ATOM     35  H   UNL     1     -37.056  25.299   3.990  0.00  0.00    +0.159 HD
ATOM     36  H   UNL     1     -37.571  24.186   5.175  0.00  0.00    +0.159 HD
ENDBRANCH  29  32
ENDBRANCH  28  29
ENDBRANCH  27  28
ENDBRANCH  26  27
ENDBRANCH   1  26
TORSDOF 13
ENDMDL
MODEL 8
REMARK VINA RESULT:      -5.5      2.245      2.994
REMARK  Name = 195043
REMARK  13 active torsions:
REMARK  status: ('A' for Active; 'I' for Inactive)
REMARK    1  A    between atoms: C_1  and  C_4
REMARK    2  A    between atoms: C_1  and  N_17
REMARK    3  A    between atoms: C_1  and  C_26
REMARK    4  A    between atoms: N_3  and  C_6
REMARK    5  A    between atoms: C_6  and  C_9
REMARK    6  A    between atoms: C_6  and  C_12
REMARK    7  A    between atoms: C_12  and  C_13
REMARK    8  A    between atoms: C_13  and  S_14
REMARK    9  A    between atoms: C_18  and  C_20
REMARK   10  A    between atoms: C_26  and  C_27
REMARK   11  A    between atoms: C_27  and  C_28
REMARK   12  A    between atoms: C_28  and  N_29
REMARK   13  A    between atoms: N_29  and  C_32
REMARK                            x       y       z     vdW  Elec       q    Type
REMARK                         _______ _______ _______ _____ _____    ______ ____
ROOT
ATOM      1  C   UNL     1     -36.236  22.499   3.989  0.00  0.00    +0.149 C 
ENDROOT
BRANCH   1   4
ATOM      2  O   UNL     1     -37.781  24.346   3.712  0.00  0.00    -0.273 OA
ATOM      3  N   UNL     1     -37.620  22.762   2.023  0.00  0.00    -0.297 N 
ATOM      4  C   UNL     1     -37.298  23.311   3.256  0.00  0.00    +0.241 C 
ATOM      5  H   UNL     1     -37.177  21.928   1.749  0.00  0.00    +0.150 HD
BRANCH   3   6
ATOM      6  C   UNL     1     -38.579  23.362   1.124  0.00  0.00    +0.149 C 
BRANCH   6   9
ATOM      7  O   UNL     1     -40.216  21.731   1.876  0.00  0.00    -0.274 OA
ATOM      8  N   UNL     1     -40.930  23.861   1.401  0.00  0.00    -0.327 N 
ATOM      9  C   UNL     1     -39.972  22.875   1.498  0.00  0.00    +0.237 C 
ATOM     10  H   UNL     1     -41.868  23.659   1.620  0.00  0.00    +0.145 HD
ATOM     11  H   UNL     1     -40.676  24.768   1.114  0.00  0.00    +0.145 HD
ENDBRANCH   6   9
BRANCH   6  12
ATOM     12  C   UNL     1     -38.230  23.100  -0.348  0.00  0.00    +0.041 C 
BRANCH  12  13
ATOM     13  C   UNL     1     -37.006  22.201  -0.539  0.00  0.00    +0.060 C 
BRANCH  13  14
ATOM     14  S   UNL     1     -37.422  20.768  -1.579  0.00  0.00    -0.139 S 
ATOM     15  C   UNL     1     -38.242  19.764  -0.321  0.00  0.00    +0.069 C 
ENDBRANCH  13  14
ENDBRANCH  12  13
ENDBRANCH   6  12
ENDBRANCH   3   6
ENDBRANCH   1   4
BRANCH   1  17
ATOM     16  O   UNL     1     -36.202  20.003   2.569  0.00  0.00    -0.270 OA
ATOM     17  N   UNL     1     -35.244  22.062   3.039  0.00  0.00    -0.295 N 
ATOM     18  C   UNL     1     -35.312  20.832   2.400  0.00  0.00    +0.246 C 
ATOM     19  H   UNL     1     -34.489  22.661   2.837  0.00  0.00    +0.150 HD
BRANCH  18  20
ATOM     20  C   UNL     1     -34.197  20.520   1.468  0.00  0.00    +0.053 C 
ATOM     21  C   UNL     1     -33.607  19.257   1.486  0.00  0.00    +0.005 C 
ATOM     22  C   UNL     1     -33.740  21.491   0.577  0.00  0.00    +0.005 C 
ATOM     23  C   UNL     1     -32.560  18.964   0.611  0.00  0.00    +0.000 C 
ATOM     24  C   UNL     1     -32.694  21.198  -0.298  0.00  0.00    +0.000 C 
ATOM     25  C   UNL     1     -32.104  19.934  -0.280  0.00  0.00    +0.000 C 
ENDBRANCH  18  20
ENDBRANCH   1  17
BRANCH   1  26
ATOM     26  C   UNL     1     -35.608  23.257   5.165  0.00  0.00    +0.031 C 
BRANCH  26  27
ATOM     27  C   UNL     1     -34.445  24.177   4.767  0.00  0.00    +0.029 C 
BRANCH  27  28
ATOM     28  C   UNL     1     -34.419  25.465   5.584  0.00  0.00    +0.129 C 
BRANCH  28  29
ATOM     29  N   UNL     1     -35.489  26.360   5.141  0.00  0.00    -0.240 NA
BRANCH  29  32
ATOM     30  N   UNL     1     -34.254  27.777   3.645  0.00  0.00    -0.370 N 
ATOM     31  N   UNL     1     -36.237  26.855   3.004  0.00  0.00    -0.370 N 
ATOM     32  C   UNL     1     -35.309  26.972   4.012  0.00  0.00    +0.189 C 
ATOM     33  H   UNL     1     -33.519  27.944   4.279  0.00  0.00    +0.159 HD
ATOM     34  H   UNL     1     -34.235  28.186   2.750  0.00  0.00    +0.159 HD
ATOM     35  H   UNL     1     -37.043  26.305   3.137  0.00  0.00    +0.159 HD
ATOM     36  H   UNL     1     -36.095  27.321   2.147  0.00  0.00    +0.159 HD
ENDBRANCH  29  32
ENDBRANCH  28  29
ENDBRANCH  27  28
ENDBRANCH  26  27
ENDBRANCH   1  26
TORSDOF 13
ENDMDL
MODEL 9
REMARK VINA RESULT:      -5.4      2.340      4.728
REMARK  Name = 195043
REMARK  13 active torsions:
REMARK  status: ('A' for Active; 'I' for Inactive)
REMARK    1  A    between atoms: C_1  and  C_4
REMARK    2  A    between atoms: C_1  and  N_17
REMARK    3  A    between atoms: C_1  and  C_26
REMARK    4  A    between atoms: N_3  and  C_6
REMARK    5  A    between atoms: C_6  and  C_9
REMARK    6  A    between atoms: C_6  and  C_12
REMARK    7  A    between atoms: C_12  and  C_13
REMARK    8  A    between atoms: C_13  and  S_14
REMARK    9  A    between atoms: C_18  and  C_20
REMARK   10  A    between atoms: C_26  and  C_27
REMARK   11  A    between atoms: C_27  and  C_28
REMARK   12  A    between atoms: C_28  and  N_29
REMARK   13  A    between atoms: N_29  and  C_32
REMARK                            x       y       z     vdW  Elec       q    Type
REMARK                         _______ _______ _______ _____ _____    ______ ____
ROOT
ATOM      1  C   UNL     1     -36.193  23.024   1.484  0.00  0.00    +0.149 C 
ENDROOT
BRANCH   1   4
ATOM      2  O   UNL     1     -37.314  23.031   3.633  0.00  0.00    -0.273 OA
ATOM      3  N   UNL     1     -35.000  23.198   3.581  0.00  0.00    -0.297 N 
ATOM      4  C   UNL     1     -36.258  23.091   3.006  0.00  0.00    +0.241 C 
ATOM      5  H   UNL     1     -34.214  23.240   2.990  0.00  0.00    +0.150 HD
BRANCH   3   6
ATOM      6  C   UNL     1     -34.792  23.248   5.010  0.00  0.00    +0.149 C 
BRANCH   6   9
ATOM      7  O   UNL     1     -34.851  20.834   5.276  0.00  0.00    -0.274 OA
ATOM      8  N   UNL     1     -36.193  22.117   6.626  0.00  0.00    -0.327 N 
ATOM      9  C   UNL     1     -35.268  21.937   5.621  0.00  0.00    +0.237 C 
ATOM     10  H   UNL     1     -36.570  21.337   7.093  0.00  0.00    +0.145 HD
ATOM     11  H   UNL     1     -36.477  23.027   6.877  0.00  0.00    +0.145 HD
ENDBRANCH   6   9
BRANCH   6  12
ATOM     12  C   UNL     1     -35.456  24.478   5.645  0.00  0.00    +0.041 C 
BRANCH  12  13
ATOM     13  C   UNL     1     -34.564  25.722   5.655  0.00  0.00    +0.060 C 
BRANCH  13  14
ATOM     14  S   UNL     1     -34.825  26.705   4.148  0.00  0.00    -0.139 S 
ATOM     15  C   UNL     1     -33.106  26.801   3.600  0.00  0.00    +0.069 C 
ENDBRANCH  13  14
ENDBRANCH  12  13
ENDBRANCH   6  12
ENDBRANCH   3   6
ENDBRANCH   1   4
BRANCH   1  17
ATOM     16  O   UNL     1     -35.742  20.282   2.210  0.00  0.00    -0.270 OA
ATOM     17  N   UNL     1     -35.071  22.205   1.101  0.00  0.00    -0.295 N 
ATOM     18  C   UNL     1     -34.938  20.883   1.503  0.00  0.00    +0.246 C 
ATOM     19  H   UNL     1     -34.371  22.600   0.532  0.00  0.00    +0.150 HD
BRANCH  18  20
ATOM     20  C   UNL     1     -33.710  20.183   1.045  0.00  0.00    +0.053 C 
ATOM     21  C   UNL     1     -33.436  18.891   1.491  0.00  0.00    +0.005 C 
ATOM     22  C   UNL     1     -32.830  20.819   0.170  0.00  0.00    +0.005 C 
ATOM     23  C   UNL     1     -32.283  18.233   1.062  0.00  0.00    +0.000 C 
ATOM     24  C   UNL     1     -31.677  20.161  -0.261  0.00  0.00    +0.000 C 
ATOM     25  C   UNL     1     -31.404  18.869   0.186  0.00  0.00    +0.000 C 
ENDBRANCH  18  20
ENDBRANCH   1  17
BRANCH   1  26
ATOM     26  C   UNL     1     -37.501  22.536   0.849  0.00  0.00    +0.031 C 
BRANCH  26  27
ATOM     27  C   UNL     1     -38.280  23.629   0.105  0.00  0.00    +0.029 C 
BRANCH  27  28
ATOM     28  C   UNL     1     -38.409  24.910   0.925  0.00  0.00    +0.129 C 
BRANCH  28  29
ATOM     29  N   UNL     1     -39.538  24.799   1.850  0.00  0.00    -0.240 NA
BRANCH  29  32
ATOM     30  N   UNL     1     -40.642  26.167   3.487  0.00  0.00    -0.370 N 
ATOM     31  N   UNL     1     -38.368  26.028   3.429  0.00  0.00    -0.370 N 
ATOM     32  C   UNL     1     -39.549  25.614   2.858  0.00  0.00    +0.189 C 
ATOM     33  H   UNL     1     -41.550  25.952   3.174  0.00  0.00    +0.159 HD
ATOM     34  H   UNL     1     -40.516  26.778   4.248  0.00  0.00    +0.159 HD
ATOM     35  H   UNL     1     -37.509  25.706   3.073  0.00  0.00    +0.159 HD
ATOM     36  H   UNL     1     -38.381  26.648   4.195  0.00  0.00    +0.159 HD
ENDBRANCH  29  32
ENDBRANCH  28  29
ENDBRANCH  27  28
ENDBRANCH  26  27
ENDBRANCH   1  26
TORSDOF 13
ENDMDL
