MODEL 1
REMARK VINA RESULT:      -5.6      0.000      0.000
REMARK  Name = 5487105
REMARK  14 active torsions:
REMARK  status: ('A' for Active; 'I' for Inactive)
REMARK    1  A    between atoms: C_1  and  C_2
REMARK    2  A    between atoms: C_1  and  C_18
REMARK    3  A    between atoms: C_2  and  C_3
REMARK    4  A    between atoms: C_3  and  O_4
REMARK    5  A    between atoms: O_4  and  C_5
REMARK    6  A    between atoms: C_8  and  C_13
REMARK    7  A    between atoms: N_12  and  C_13
REMARK    8  A    between atoms: N_12  and  O_16
REMARK    9  A    between atoms: C_18  and  C_19
REMARK   10  A    between atoms: C_19  and  O_20
REMARK   11  A    between atoms: O_20  and  C_21
REMARK   12  A    between atoms: C_24  and  C_29
REMARK   13  A    between atoms: N_28  and  C_29
REMARK   14  A    between atoms: N_28  and  O_32
REMARK                            x       y       z     vdW  Elec       q    Type
REMARK                         _______ _______ _______ _____ _____    ______ ____
ROOT
ATOM      1  C   UNL     1     -35.442  29.690   2.202  0.00  0.00    +0.008 C 
ENDROOT
BRANCH   1   2
ATOM      2  C   UNL     1     -36.482  29.335   1.136  0.00  0.00    +0.047 C 
BRANCH   2   3
ATOM      3  C   UNL     1     -36.628  27.830   0.952  0.00  0.00    +0.205 C 
BRANCH   3   4
ATOM      4  O   UNL     1     -37.496  27.301   1.944  0.00  0.00    -0.475 OA
BRANCH   4   5
ATOM      5  C   UNL     1     -37.769  25.959   1.876  0.00  0.00    +0.139 C 
ATOM      6  C   UNL     1     -38.581  25.364   2.840  0.00  0.00    +0.037 C 
ATOM      7  C   UNL     1     -37.236  25.191   0.841  0.00  0.00    +0.037 C 
ATOM      8  C   UNL     1     -38.328  23.230   1.735  0.00  0.00    +0.036 C 
ATOM      9  C   UNL     1     -38.861  23.998   2.770  0.00  0.00    +0.006 C 
ATOM     10  C   UNL     1     -37.516  23.826   0.770  0.00  0.00    +0.006 C 
BRANCH   8  12
ATOM     11  N   UNL     1     -39.849  21.326   2.132  0.00  0.00    -0.381 N 
ATOM     12  C   UNL     1     -38.621  21.808   1.660  0.00  0.00    +0.160 C 
ATOM     13  H   UNL     1     -40.051  20.364   2.084  0.00  0.00    +0.157 HD
ATOM     14  H   UNL     1     -40.509  21.950   2.511  0.00  0.00    +0.157 HD
BRANCH  12  15
ATOM     15  N   UNL     1     -37.707  21.002   1.139  0.00  0.00    -0.118 NA
BRANCH  15  16
ATOM     16  O   UNL     1     -37.334  19.984   2.023  0.00  0.00    -0.264 OA
ATOM     17  H   UNL     1     -37.974  19.593   2.584  0.00  0.00    +0.247 HD
ENDBRANCH  15  16
ENDBRANCH  12  15
ENDBRANCH   8  12
ENDBRANCH   4   5
ENDBRANCH   3   4
ENDBRANCH   2   3
ENDBRANCH   1   2
BRANCH   1  18
ATOM     18  C   UNL     1     -34.091  29.046   1.894  0.00  0.00    +0.047 C 
BRANCH  18  19
ATOM     19  C   UNL     1     -33.554  28.268   3.087  0.00  0.00    +0.205 C 
BRANCH  19  20
ATOM     20  O   UNL     1     -34.638  27.932   3.941  0.00  0.00    -0.475 OA
BRANCH  20  21
ATOM     21  C   UNL     1     -34.883  26.597   4.134  0.00  0.00    +0.139 C 
ATOM     22  C   UNL     1     -34.353  25.656   3.251  0.00  0.00    +0.037 C 
ATOM     23  C   UNL     1     -35.659  26.178   5.215  0.00  0.00    +0.037 C 
ATOM     24  C   UNL     1     -35.377  23.880   4.529  0.00  0.00    +0.036 C 
ATOM     25  C   UNL     1     -34.600  24.297   3.448  0.00  0.00    +0.006 C 
ATOM     26  C   UNL     1     -35.907  24.820   5.412  0.00  0.00    +0.006 C 
BRANCH  24  28
ATOM     27  N   UNL     1     -35.720  21.605   3.632  0.00  0.00    -0.381 N 
ATOM     28  C   UNL     1     -35.634  22.463   4.735  0.00  0.00    +0.160 C 
ATOM     29  H   UNL     1     -35.894  20.646   3.765  0.00  0.00    +0.157 HD
ATOM     30  H   UNL     1     -35.606  21.962   2.721  0.00  0.00    +0.157 HD
BRANCH  28  31
ATOM     31  N   UNL     1     -35.777  22.023   5.977  0.00  0.00    -0.118 NA
BRANCH  31  32
ATOM     32  O   UNL     1     -35.475  20.662   6.094  0.00  0.00    -0.264 OA
ATOM     33  H   UNL     1     -34.736  20.307   5.641  0.00  0.00    +0.247 HD
ENDBRANCH  31  32
ENDBRANCH  28  31
ENDBRANCH  24  28
ENDBRANCH  20  21
ENDBRANCH  19  20
ENDBRANCH  18  19
ENDBRANCH   1  18
TORSDOF 14
ENDMDL
MODEL 2
REMARK VINA RESULT:      -5.6      2.805      7.076
REMARK  Name = 5487105
REMARK  14 active torsions:
REMARK  status: ('A' for Active; 'I' for Inactive)
REMARK    1  A    between atoms: C_1  and  C_2
REMARK    2  A    between atoms: C_1  and  C_18
REMARK    3  A    between atoms: C_2  and  C_3
REMARK    4  A    between atoms: C_3  and  O_4
REMARK    5  A    between atoms: O_4  and  C_5
REMARK    6  A    between atoms: C_8  and  C_13
REMARK    7  A    between atoms: N_12  and  C_13
REMARK    8  A    between atoms: N_12  and  O_16
REMARK    9  A    between atoms: C_18  and  C_19
REMARK   10  A    between atoms: C_19  and  O_20
REMARK   11  A    between atoms: O_20  and  C_21
REMARK   12  A    between atoms: C_24  and  C_29
REMARK   13  A    between atoms: N_28  and  C_29
REMARK   14  A    between atoms: N_28  and  O_32
REMARK                            x       y       z     vdW  Elec       q    Type
REMARK                         _______ _______ _______ _____ _____    ______ ____
ROOT
ATOM      1  C   UNL     1     -35.647  19.480  -0.091  0.00  0.00    +0.008 C 
ENDROOT
BRANCH   1   2
ATOM      2  C   UNL     1     -35.047  19.735   1.295  0.00  0.00    +0.047 C 
BRANCH   2   3
ATOM      3  C   UNL     1     -36.058  20.350   2.256  0.00  0.00    +0.205 C 
BRANCH   3   4
ATOM      4  O   UNL     1     -35.450  20.574   3.520  0.00  0.00    -0.475 OA
BRANCH   4   5
ATOM      5  C   UNL     1     -35.345  21.878   3.933  0.00  0.00    +0.139 C 
ATOM      6  C   UNL     1     -35.361  22.181   5.293  0.00  0.00    +0.037 C 
ATOM      7  C   UNL     1     -35.217  22.899   2.991  0.00  0.00    +0.037 C 
ATOM      8  C   UNL     1     -35.124  24.529   4.773  0.00  0.00    +0.036 C 
ATOM      9  C   UNL     1     -35.251  23.507   5.714  0.00  0.00    +0.006 C 
ATOM     10  C   UNL     1     -35.107  24.225   3.411  0.00  0.00    +0.006 C 
BRANCH   8  12
ATOM     11  N   UNL     1     -33.983  26.275   6.092  0.00  0.00    -0.381 N 
ATOM     12  C   UNL     1     -35.008  25.910   5.210  0.00  0.00    +0.160 C 
ATOM     13  H   UNL     1     -33.900  27.209   6.392  0.00  0.00    +0.157 HD
ATOM     14  H   UNL     1     -33.345  25.597   6.412  0.00  0.00    +0.157 HD
BRANCH  12  15
ATOM     15  N   UNL     1     -35.884  26.793   4.753  0.00  0.00    -0.118 NA
BRANCH  15  16
ATOM     16  O   UNL     1     -35.290  27.745   3.918  0.00  0.00    -0.264 OA
ATOM     17  H   UNL     1     -34.376  27.687   3.718  0.00  0.00    +0.247 HD
ENDBRANCH  15  16
ENDBRANCH  12  15
ENDBRANCH   8  12
ENDBRANCH   4   5
ENDBRANCH   3   4
ENDBRANCH   2   3
ENDBRANCH   1   2
BRANCH   1  18
ATOM     18  C   UNL     1     -37.094  19.000   0.012  0.00  0.00    +0.047 C 
BRANCH  18  19
ATOM     19  C   UNL     1     -38.028  19.847  -0.840  0.00  0.00    +0.205 C 
BRANCH  19  20
ATOM     20  O   UNL     1     -39.136  20.249  -0.047  0.00  0.00    -0.475 OA
BRANCH  20  21
ATOM     21  C   UNL     1     -39.018  21.440   0.622  0.00  0.00    +0.139 C 
ATOM     22  C   UNL     1     -39.610  21.596   1.875  0.00  0.00    +0.037 C 
ATOM     23  C   UNL     1     -38.303  22.493   0.053  0.00  0.00    +0.037 C 
ATOM     24  C   UNL     1     -38.773  23.860   1.988  0.00  0.00    +0.036 C 
ATOM     25  C   UNL     1     -39.488  22.806   2.558  0.00  0.00    +0.006 C 
ATOM     26  C   UNL     1     -38.181  23.703   0.735  0.00  0.00    +0.006 C 
BRANCH  24  28
ATOM     27  N   UNL     1     -38.487  25.119   4.091  0.00  0.00    -0.381 N 
ATOM     28  C   UNL     1     -38.645  25.121   2.700  0.00  0.00    +0.160 C 
ATOM     29  H   UNL     1     -38.400  25.970   4.579  0.00  0.00    +0.157 HD
ATOM     30  H   UNL     1     -38.463  24.267   4.583  0.00  0.00    +0.157 HD
BRANCH  28  31
ATOM     31  N   UNL     1     -38.680  26.247   2.001  0.00  0.00    -0.118 NA
BRANCH  31  32
ATOM     32  O   UNL     1     -37.572  27.062   2.256  0.00  0.00    -0.264 OA
ATOM     33  H   UNL     1     -37.661  27.812   2.809  0.00  0.00    +0.247 HD
ENDBRANCH  31  32
ENDBRANCH  28  31
ENDBRANCH  24  28
ENDBRANCH  20  21
ENDBRANCH  19  20
ENDBRANCH  18  19
ENDBRANCH   1  18
TORSDOF 14
ENDMDL
MODEL 3
REMARK VINA RESULT:      -5.6      1.108      4.242
REMARK  Name = 5487105
REMARK  14 active torsions:
REMARK  status: ('A' for Active; 'I' for Inactive)
REMARK    1  A    between atoms: C_1  and  C_2
REMARK    2  A    between atoms: C_1  and  C_18
REMARK    3  A    between atoms: C_2  and  C_3
REMARK    4  A    between atoms: C_3  and  O_4
REMARK    5  A    between atoms: O_4  and  C_5
REMARK    6  A    between atoms: C_8  and  C_13
REMARK    7  A    between atoms: N_12  and  C_13
REMARK    8  A    between atoms: N_12  and  O_16
REMARK    9  A    between atoms: C_18  and  C_19
REMARK   10  A    between atoms: C_19  and  O_20
REMARK   11  A    between atoms: O_20  and  C_21
REMARK   12  A    between atoms: C_24  and  C_29
REMARK   13  A    between atoms: N_28  and  C_29
REMARK   14  A    between atoms: N_28  and  O_32
REMARK                            x       y       z     vdW  Elec       q    Type
REMARK                         _______ _______ _______ _____ _____    ______ ____
ROOT
ATOM      1  C   UNL     1     -33.891  28.693   1.225  0.00  0.00    +0.008 C 
ENDROOT
BRANCH   1   2
ATOM      2  C   UNL     1     -33.441  29.262   2.574  0.00  0.00    +0.047 C 
BRANCH   2   3
ATOM      3  C   UNL     1     -32.717  28.225   3.424  0.00  0.00    +0.205 C 
BRANCH   3   4
ATOM      4  O   UNL     1     -33.520  27.866   4.539  0.00  0.00    -0.475 OA
BRANCH   4   5
ATOM      5  C   UNL     1     -33.991  26.579   4.574  0.00  0.00    +0.139 C 
ATOM      6  C   UNL     1     -33.670  25.692   3.548  0.00  0.00    +0.037 C 
ATOM      7  C   UNL     1     -34.789  26.157   5.637  0.00  0.00    +0.037 C 
ATOM      8  C   UNL     1     -34.945  23.959   4.647  0.00  0.00    +0.036 C 
ATOM      9  C   UNL     1     -34.147  24.381   3.583  0.00  0.00    +0.006 C 
ATOM     10  C   UNL     1     -35.266  24.846   5.674  0.00  0.00    +0.006 C 
BRANCH   8  12
ATOM     11  N   UNL     1     -36.026  22.100   5.859  0.00  0.00    -0.381 N 
ATOM     12  C   UNL     1     -35.441  22.593   4.686  0.00  0.00    +0.160 C 
ATOM     13  H   UNL     1     -36.363  21.175   5.891  0.00  0.00    +0.157 HD
ATOM     14  H   UNL     1     -36.099  22.678   6.653  0.00  0.00    +0.157 HD
BRANCH  12  15
ATOM     15  N   UNL     1     -35.327  21.849   3.595  0.00  0.00    -0.118 NA
BRANCH  15  16
ATOM     16  O   UNL     1     -35.511  20.488   3.861  0.00  0.00    -0.264 OA
ATOM     17  H   UNL     1     -36.284  20.198   4.304  0.00  0.00    +0.247 HD
ENDBRANCH  15  16
ENDBRANCH  12  15
ENDBRANCH   8  12
ENDBRANCH   4   5
ENDBRANCH   3   4
ENDBRANCH   2   3
ENDBRANCH   1   2
BRANCH   1  18
ATOM     18  C   UNL     1     -35.273  29.215   0.836  0.00  0.00    +0.047 C 
BRANCH  18  19
ATOM     19  C   UNL     1     -36.299  28.093   0.770  0.00  0.00    +0.205 C 
BRANCH  19  20
ATOM     20  O   UNL     1     -36.327  27.422   2.021  0.00  0.00    -0.475 OA
BRANCH  20  21
ATOM     21  C   UNL     1     -36.895  26.174   2.042  0.00  0.00    +0.139 C 
ATOM     22  C   UNL     1     -37.750  25.814   3.083  0.00  0.00    +0.037 C 
ATOM     23  C   UNL     1     -36.622  25.267   1.018  0.00  0.00    +0.037 C 
ATOM     24  C   UNL     1     -38.055  23.638   2.080  0.00  0.00    +0.036 C 
ATOM     25  C   UNL     1     -38.330  24.546   3.103  0.00  0.00    +0.006 C 
ATOM     26  C   UNL     1     -37.202  23.998   1.038  0.00  0.00    +0.006 C 
BRANCH  24  28
ATOM     27  N   UNL     1     -37.866  21.192   2.353  0.00  0.00    -0.381 N 
ATOM     28  C   UNL     1     -38.661  22.316   2.099  0.00  0.00    +0.160 C 
ATOM     29  H   UNL     1     -38.270  20.294   2.367  0.00  0.00    +0.157 HD
ATOM     30  H   UNL     1     -36.901  21.298   2.518  0.00  0.00    +0.157 HD
BRANCH  28  31
ATOM     31  N   UNL     1     -39.964  22.216   1.875  0.00  0.00    -0.118 NA
BRANCH  31  32
ATOM     32  O   UNL     1     -40.477  20.981   2.286  0.00  0.00    -0.264 OA
ATOM     33  H   UNL     1     -41.399  20.820   2.244  0.00  0.00    +0.247 HD
ENDBRANCH  31  32
ENDBRANCH  28  31
ENDBRANCH  24  28
ENDBRANCH  20  21
ENDBRANCH  19  20
ENDBRANCH  18  19
ENDBRANCH   1  18
TORSDOF 14
ENDMDL
MODEL 4
REMARK VINA RESULT:      -5.4      3.468      6.044
REMARK  Name = 5487105
REMARK  14 active torsions:
REMARK  status: ('A' for Active; 'I' for Inactive)
REMARK    1  A    between atoms: C_1  and  C_2
REMARK    2  A    between atoms: C_1  and  C_18
REMARK    3  A    between atoms: C_2  and  C_3
REMARK    4  A    between atoms: C_3  and  O_4
REMARK    5  A    between atoms: O_4  and  C_5
REMARK    6  A    between atoms: C_8  and  C_13
REMARK    7  A    between atoms: N_12  and  C_13
REMARK    8  A    between atoms: N_12  and  O_16
REMARK    9  A    between atoms: C_18  and  C_19
REMARK   10  A    between atoms: C_19  and  O_20
REMARK   11  A    between atoms: O_20  and  C_21
REMARK   12  A    between atoms: C_24  and  C_29
REMARK   13  A    between atoms: N_28  and  C_29
REMARK   14  A    between atoms: N_28  and  O_32
REMARK                            x       y       z     vdW  Elec       q    Type
REMARK                         _______ _______ _______ _____ _____    ______ ____
ROOT
ATOM      1  C   UNL     1     -33.354  20.420   0.441  0.00  0.00    +0.008 C 
ENDROOT
BRANCH   1   2
ATOM      2  C   UNL     1     -33.612  21.929   0.457  0.00  0.00    +0.047 C 
BRANCH   2   3
ATOM      3  C   UNL     1     -32.807  22.663  -0.607  0.00  0.00    +0.205 C 
BRANCH   3   4
ATOM      4  O   UNL     1     -32.196  23.815  -0.045  0.00  0.00    -0.475 OA
BRANCH   4   5
ATOM      5  C   UNL     1     -33.034  24.766   0.480  0.00  0.00    +0.139 C 
ATOM      6  C   UNL     1     -32.637  25.507   1.592  0.00  0.00    +0.037 C 
ATOM      7  C   UNL     1     -34.282  24.993  -0.101  0.00  0.00    +0.037 C 
ATOM      8  C   UNL     1     -34.736  26.703   1.544  0.00  0.00    +0.036 C 
ATOM      9  C   UNL     1     -33.488  26.476   2.125  0.00  0.00    +0.006 C 
ATOM     10  C   UNL     1     -35.132  25.961   0.431  0.00  0.00    +0.006 C 
BRANCH   8  12
ATOM     11  N   UNL     1     -35.136  28.617   3.050  0.00  0.00    -0.381 N 
ATOM     12  C   UNL     1     -35.623  27.713   2.097  0.00  0.00    +0.160 C 
ATOM     13  H   UNL     1     -35.732  29.303   3.429  0.00  0.00    +0.157 HD
ATOM     14  H   UNL     1     -34.197  28.566   3.342  0.00  0.00    +0.157 HD
BRANCH  12  15
ATOM     15  N   UNL     1     -36.878  27.750   1.676  0.00  0.00    -0.118 NA
BRANCH  15  16
ATOM     16  O   UNL     1     -37.732  26.995   2.488  0.00  0.00    -0.264 OA
ATOM     17  H   UNL     1     -38.660  27.080   2.397  0.00  0.00    +0.247 HD
ENDBRANCH  15  16
ENDBRANCH  12  15
ENDBRANCH   8  12
ENDBRANCH   4   5
ENDBRANCH   3   4
ENDBRANCH   2   3
ENDBRANCH   1   2
BRANCH   1  18
ATOM     18  C   UNL     1     -34.043  19.726   1.615  0.00  0.00    +0.047 C 
BRANCH  18  19
ATOM     19  C   UNL     1     -35.380  20.376   1.945  0.00  0.00    +0.205 C 
BRANCH  19  20
ATOM     20  O   UNL     1     -35.498  20.493   3.355  0.00  0.00    -0.475 OA
BRANCH  20  21
ATOM     21  C   UNL     1     -35.504  21.763   3.872  0.00  0.00    +0.139 C 
ATOM     22  C   UNL     1     -35.133  21.977   5.200  0.00  0.00    +0.037 C 
ATOM     23  C   UNL     1     -35.876  22.841   3.070  0.00  0.00    +0.037 C 
ATOM     24  C   UNL     1     -35.509  24.347   4.922  0.00  0.00    +0.036 C 
ATOM     25  C   UNL     1     -35.136  23.269   5.725  0.00  0.00    +0.006 C 
ATOM     26  C   UNL     1     -35.879  24.134   3.595  0.00  0.00    +0.006 C 
BRANCH  24  28
ATOM     27  N   UNL     1     -36.656  26.491   5.349  0.00  0.00    -0.381 N 
ATOM     28  C   UNL     1     -35.511  25.695   5.470  0.00  0.00    +0.160 C 
ATOM     29  H   UNL     1     -36.663  27.404   5.717  0.00  0.00    +0.157 HD
ATOM     30  H   UNL     1     -37.456  26.139   4.895  0.00  0.00    +0.157 HD
BRANCH  28  31
ATOM     31  N   UNL     1     -34.415  26.131   6.075  0.00  0.00    -0.118 NA
BRANCH  31  32
ATOM     32  O   UNL     1     -33.818  27.193   5.388  0.00  0.00    -0.264 OA
ATOM     33  H   UNL     1     -32.953  27.099   5.044  0.00  0.00    +0.247 HD
ENDBRANCH  31  32
ENDBRANCH  28  31
ENDBRANCH  24  28
ENDBRANCH  20  21
ENDBRANCH  19  20
ENDBRANCH  18  19
ENDBRANCH   1  18
TORSDOF 14
ENDMDL
MODEL 5
REMARK VINA RESULT:      -5.3      2.810      5.742
REMARK  Name = 5487105
REMARK  14 active torsions:
REMARK  status: ('A' for Active; 'I' for Inactive)
REMARK    1  A    between atoms: C_1  and  C_2
REMARK    2  A    between atoms: C_1  and  C_18
REMARK    3  A    between atoms: C_2  and  C_3
REMARK    4  A    between atoms: C_3  and  O_4
REMARK    5  A    between atoms: O_4  and  C_5
REMARK    6  A    between atoms: C_8  and  C_13
REMARK    7  A    between atoms: N_12  and  C_13
REMARK    8  A    between atoms: N_12  and  O_16
REMARK    9  A    between atoms: C_18  and  C_19
REMARK   10  A    between atoms: C_19  and  O_20
REMARK   11  A    between atoms: O_20  and  C_21
REMARK   12  A    between atoms: C_24  and  C_29
REMARK   13  A    between atoms: N_28  and  C_29
REMARK   14  A    between atoms: N_28  and  O_32
REMARK                            x       y       z     vdW  Elec       q    Type
REMARK                         _______ _______ _______ _____ _____    ______ ____
ROOT
ATOM      1  C   UNL     1     -35.326  20.346  -0.309  0.00  0.00    +0.008 C 
ENDROOT
BRANCH   1   2
ATOM      2  C   UNL     1     -36.541  20.078  -1.201  0.00  0.00    +0.047 C 
BRANCH   2   3
ATOM      3  C   UNL     1     -37.781  19.718  -0.394  0.00  0.00    +0.205 C 
BRANCH   3   4
ATOM      4  O   UNL     1     -38.790  20.698  -0.591  0.00  0.00    -0.475 OA
BRANCH   4   5
ATOM      5  C   UNL     1     -38.746  21.804   0.219  0.00  0.00    +0.139 C 
ATOM      6  C   UNL     1     -38.530  23.065  -0.334  0.00  0.00    +0.037 C 
ATOM      7  C   UNL     1     -38.920  21.666   1.597  0.00  0.00    +0.037 C 
ATOM      8  C   UNL     1     -38.662  24.053   1.867  0.00  0.00    +0.036 C 
ATOM      9  C   UNL     1     -38.487  24.190   0.490  0.00  0.00    +0.006 C 
ATOM     10  C   UNL     1     -38.878  22.791   2.420  0.00  0.00    +0.006 C 
BRANCH   8  12
ATOM     11  N   UNL     1     -38.508  25.066   4.113  0.00  0.00    -0.381 N 
ATOM     12  C   UNL     1     -38.619  25.225   2.726  0.00  0.00    +0.160 C 
ATOM     13  H   UNL     1     -38.479  25.856   4.699  0.00  0.00    +0.157 HD
ATOM     14  H   UNL     1     -38.460  24.162   4.502  0.00  0.00    +0.157 HD
BRANCH  12  15
ATOM     15  N   UNL     1     -38.683  26.423   2.162  0.00  0.00    -0.118 NA
BRANCH  15  16
ATOM     16  O   UNL     1     -37.497  27.147   2.322  0.00  0.00    -0.264 OA
ATOM     17  H   UNL     1     -37.166  27.319   3.181  0.00  0.00    +0.247 HD
ENDBRANCH  15  16
ENDBRANCH  12  15
ENDBRANCH   8  12
ENDBRANCH   4   5
ENDBRANCH   3   4
ENDBRANCH   2   3
ENDBRANCH   1   2
BRANCH   1  18
ATOM     18  C   UNL     1     -35.322  19.427   0.912  0.00  0.00    +0.047 C 
BRANCH  18  19
ATOM     19  C   UNL     1     -34.631  20.077   2.102  0.00  0.00    +0.205 C 
BRANCH  19  20
ATOM     20  O   UNL     1     -35.618  20.525   3.019  0.00  0.00    -0.475 OA
BRANCH  20  21
ATOM     21  C   UNL     1     -35.455  21.784   3.537  0.00  0.00    +0.139 C 
ATOM     22  C   UNL     1     -35.469  21.978   4.918  0.00  0.00    +0.037 C 
ATOM     23  C   UNL     1     -35.273  22.872   2.683  0.00  0.00    +0.037 C 
ATOM     24  C   UNL     1     -35.120  24.345   4.591  0.00  0.00    +0.036 C 
ATOM     25  C   UNL     1     -35.301  23.257   5.446  0.00  0.00    +0.006 C 
ATOM     26  C   UNL     1     -35.105  24.153   3.210  0.00  0.00    +0.006 C 
BRANCH  24  28
ATOM     27  N   UNL     1     -33.834  25.957   5.949  0.00  0.00    -0.381 N 
ATOM     28  C   UNL     1     -34.943  25.680   5.141  0.00  0.00    +0.160 C 
ATOM     29  H   UNL     1     -33.709  26.859   6.324  0.00  0.00    +0.157 HD
ATOM     30  H   UNL     1     -33.176  25.250   6.142  0.00  0.00    +0.157 HD
BRANCH  28  31
ATOM     31  N   UNL     1     -35.849  26.605   4.854  0.00  0.00    -0.118 NA
BRANCH  31  32
ATOM     32  O   UNL     1     -35.317  27.644   4.084  0.00  0.00    -0.264 OA
ATOM     33  H   UNL     1     -35.809  28.431   3.956  0.00  0.00    +0.247 HD
ENDBRANCH  31  32
ENDBRANCH  28  31
ENDBRANCH  24  28
ENDBRANCH  20  21
ENDBRANCH  19  20
ENDBRANCH  18  19
ENDBRANCH   1  18
TORSDOF 14
ENDMDL
MODEL 6
REMARK VINA RESULT:      -5.2      2.952      5.468
REMARK  Name = 5487105
REMARK  14 active torsions:
REMARK  status: ('A' for Active; 'I' for Inactive)
REMARK    1  A    between atoms: C_1  and  C_2
REMARK    2  A    between atoms: C_1  and  C_18
REMARK    3  A    between atoms: C_2  and  C_3
REMARK    4  A    between atoms: C_3  and  O_4
REMARK    5  A    between atoms: O_4  and  C_5
REMARK    6  A    between atoms: C_8  and  C_13
REMARK    7  A    between atoms: N_12  and  C_13
REMARK    8  A    between atoms: N_12  and  O_16
REMARK    9  A    between atoms: C_18  and  C_19
REMARK   10  A    between atoms: C_19  and  O_20
REMARK   11  A    between atoms: O_20  and  C_21
REMARK   12  A    between atoms: C_24  and  C_29
REMARK   13  A    between atoms: N_28  and  C_29
REMARK   14  A    between atoms: N_28  and  O_32
REMARK                            x       y       z     vdW  Elec       q    Type
REMARK                         _______ _______ _______ _____ _____    ______ ____
ROOT
ATOM      1  C   UNL     1     -33.723  20.468   0.453  0.00  0.00    +0.008 C 
ENDROOT
BRANCH   1   2
ATOM      2  C   UNL     1     -34.689  20.182  -0.700  0.00  0.00    +0.047 C 
BRANCH   2   3
ATOM      3  C   UNL     1     -35.475  21.421  -1.114  0.00  0.00    +0.205 C 
BRANCH   3   4
ATOM      4  O   UNL     1     -36.868  21.179  -0.977  0.00  0.00    -0.475 OA
BRANCH   4   5
ATOM      5  C   UNL     1     -37.564  22.022  -0.151  0.00  0.00    +0.139 C 
ATOM      6  C   UNL     1     -38.542  21.512   0.702  0.00  0.00    +0.037 C 
ATOM      7  C   UNL     1     -37.292  23.390  -0.161  0.00  0.00    +0.037 C 
ATOM      8  C   UNL     1     -38.977  23.737   1.536  0.00  0.00    +0.036 C 
ATOM      9  C   UNL     1     -39.249  22.369   1.546  0.00  0.00    +0.006 C 
ATOM     10  C   UNL     1     -37.998  24.248   0.683  0.00  0.00    +0.006 C 
BRANCH   8  12
ATOM     11  N   UNL     1     -40.987  25.078   2.043  0.00  0.00    -0.381 N 
ATOM     12  C   UNL     1     -39.712  24.631   2.415  0.00  0.00    +0.160 C 
ATOM     13  H   UNL     1     -41.488  25.684   2.635  0.00  0.00    +0.157 HD
ATOM     14  H   UNL     1     -41.380  24.786   1.189  0.00  0.00    +0.157 HD
BRANCH  12  15
ATOM     15  N   UNL     1     -39.148  24.998   3.557  0.00  0.00    -0.118 NA
BRANCH  15  16
ATOM     16  O   UNL     1     -38.732  26.333   3.537  0.00  0.00    -0.264 OA
ATOM     17  H   UNL     1     -38.231  26.656   2.815  0.00  0.00    +0.247 HD
ENDBRANCH  15  16
ENDBRANCH  12  15
ENDBRANCH   8  12
ENDBRANCH   4   5
ENDBRANCH   3   4
ENDBRANCH   2   3
ENDBRANCH   1   2
BRANCH   1  18
ATOM     18  C   UNL     1     -34.126  19.708   1.715  0.00  0.00    +0.047 C 
BRANCH  18  19
ATOM     19  C   UNL     1     -35.468  20.182   2.252  0.00  0.00    +0.205 C 
BRANCH  19  20
ATOM     20  O   UNL     1     -35.357  20.386   3.653  0.00  0.00    -0.475 OA
BRANCH  20  21
ATOM     21  C   UNL     1     -35.368  21.685   4.092  0.00  0.00    +0.139 C 
ATOM     22  C   UNL     1     -35.130  21.968   5.437  0.00  0.00    +0.037 C 
ATOM     23  C   UNL     1     -35.613  22.723   3.194  0.00  0.00    +0.037 C 
ATOM     24  C   UNL     1     -35.385  24.327   4.984  0.00  0.00    +0.036 C 
ATOM     25  C   UNL     1     -35.138  23.289   5.884  0.00  0.00    +0.006 C 
ATOM     26  C   UNL     1     -35.622  24.045   3.640  0.00  0.00    +0.006 C 
BRANCH  24  28
ATOM     27  N   UNL     1     -36.538  26.490   5.276  0.00  0.00    -0.381 N 
ATOM     28  C   UNL     1     -35.392  25.705   5.450  0.00  0.00    +0.160 C 
ATOM     29  H   UNL     1     -36.549  27.424   5.588  0.00  0.00    +0.157 HD
ATOM     30  H   UNL     1     -37.335  26.109   4.841  0.00  0.00    +0.157 HD
BRANCH  28  31
ATOM     31  N   UNL     1     -34.300  26.180   6.033  0.00  0.00    -0.118 NA
BRANCH  31  32
ATOM     32  O   UNL     1     -33.768  27.276   5.346  0.00  0.00    -0.264 OA
ATOM     33  H   UNL     1     -33.935  28.145   5.651  0.00  0.00    +0.247 HD
ENDBRANCH  31  32
ENDBRANCH  28  31
ENDBRANCH  24  28
ENDBRANCH  20  21
ENDBRANCH  19  20
ENDBRANCH  18  19
ENDBRANCH   1  18
TORSDOF 14
ENDMDL
MODEL 7
REMARK VINA RESULT:      -5.1      2.776      3.579
REMARK  Name = 5487105
REMARK  14 active torsions:
REMARK  status: ('A' for Active; 'I' for Inactive)
REMARK    1  A    between atoms: C_1  and  C_2
REMARK    2  A    between atoms: C_1  and  C_18
REMARK    3  A    between atoms: C_2  and  C_3
REMARK    4  A    between atoms: C_3  and  O_4
REMARK    5  A    between atoms: O_4  and  C_5
REMARK    6  A    between atoms: C_8  and  C_13
REMARK    7  A    between atoms: N_12  and  C_13
REMARK    8  A    between atoms: N_12  and  O_16
REMARK    9  A    between atoms: C_18  and  C_19
REMARK   10  A    between atoms: C_19  and  O_20
REMARK   11  A    between atoms: O_20  and  C_21
REMARK   12  A    between atoms: C_24  and  C_29
REMARK   13  A    between atoms: N_28  and  C_29
REMARK   14  A    between atoms: N_28  and  O_32
REMARK                            x       y       z     vdW  Elec       q    Type
REMARK                         _______ _______ _______ _____ _____    ______ ____
ROOT
ATOM      1  C   UNL     1     -31.332  27.855   1.199  0.00  0.00    +0.008 C 
ENDROOT
BRANCH   1   2
ATOM      2  C   UNL     1     -31.704  27.097  -0.079  0.00  0.00    +0.047 C 
BRANCH   2   3
ATOM      3  C   UNL     1     -32.804  26.070   0.160  0.00  0.00    +0.205 C 
BRANCH   3   4
ATOM      4  O   UNL     1     -32.496  24.862  -0.522  0.00  0.00    -0.475 OA
BRANCH   4   5
ATOM      5  C   UNL     1     -33.062  23.713  -0.032  0.00  0.00    +0.139 C 
ATOM      6  C   UNL     1     -34.138  23.788   0.852  0.00  0.00    +0.037 C 
ATOM      7  C   UNL     1     -32.563  22.470  -0.421  0.00  0.00    +0.037 C 
ATOM      8  C   UNL     1     -34.217  21.376   0.960  0.00  0.00    +0.036 C 
ATOM      9  C   UNL     1     -34.715  22.619   1.349  0.00  0.00    +0.006 C 
ATOM     10  C   UNL     1     -33.141  21.301   0.075  0.00  0.00    +0.006 C 
BRANCH   8  12
ATOM     11  N   UNL     1     -34.845  19.005   0.680  0.00  0.00    -0.381 N 
ATOM     12  C   UNL     1     -34.819  20.157   1.476  0.00  0.00    +0.160 C 
ATOM     13  H   UNL     1     -35.253  18.178   1.025  0.00  0.00    +0.157 HD
ATOM     14  H   UNL     1     -34.457  19.023  -0.225  0.00  0.00    +0.157 HD
BRANCH  12  15
ATOM     15  N   UNL     1     -35.327  20.174   2.700  0.00  0.00    -0.118 NA
BRANCH  15  16
ATOM     16  O   UNL     1     -36.674  19.796   2.719  0.00  0.00    -0.264 OA
ATOM     17  H   UNL     1     -36.919  18.926   2.474  0.00  0.00    +0.247 HD
ENDBRANCH  15  16
ENDBRANCH  12  15
ENDBRANCH   8  12
ENDBRANCH   4   5
ENDBRANCH   3   4
ENDBRANCH   2   3
ENDBRANCH   1   2
BRANCH   1  18
ATOM     18  C   UNL     1     -32.577  28.373   1.918  0.00  0.00    +0.047 C 
BRANCH  18  19
ATOM     19  C   UNL     1     -32.493  28.142   3.420  0.00  0.00    +0.205 C 
BRANCH  19  20
ATOM     20  O   UNL     1     -33.809  28.123   3.956  0.00  0.00    -0.475 OA
BRANCH  20  21
ATOM     21  C   UNL     1     -34.386  26.893   4.134  0.00  0.00    +0.139 C 
ATOM     22  C   UNL     1     -33.875  26.014   5.088  0.00  0.00    +0.037 C 
ATOM     23  C   UNL     1     -35.488  26.521   3.363  0.00  0.00    +0.037 C 
ATOM     24  C   UNL     1     -35.565  24.391   4.500  0.00  0.00    +0.036 C 
ATOM     25  C   UNL     1     -34.463  24.763   5.272  0.00  0.00    +0.006 C 
ATOM     26  C   UNL     1     -36.077  25.269   3.546  0.00  0.00    +0.006 C 
BRANCH  24  28
ATOM     27  N   UNL     1     -37.115  22.617   3.762  0.00  0.00    -0.381 N 
ATOM     28  C   UNL     1     -36.180  23.087   4.692  0.00  0.00    +0.160 C 
ATOM     29  H   UNL     1     -37.535  21.735   3.887  0.00  0.00    +0.157 HD
ATOM     30  H   UNL     1     -37.353  23.168   2.982  0.00  0.00    +0.157 HD
BRANCH  28  31
ATOM     31  N   UNL     1     -35.829  22.374   5.754  0.00  0.00    -0.118 NA
BRANCH  31  32
ATOM     32  O   UNL     1     -35.466  21.067   5.416  0.00  0.00    -0.264 OA
ATOM     33  H   UNL     1     -35.850  20.653   4.669  0.00  0.00    +0.247 HD
ENDBRANCH  31  32
ENDBRANCH  28  31
ENDBRANCH  24  28
ENDBRANCH  20  21
ENDBRANCH  19  20
ENDBRANCH  18  19
ENDBRANCH   1  18
TORSDOF 14
ENDMDL
MODEL 8
REMARK VINA RESULT:      -5.1      3.601      6.614
REMARK  Name = 5487105
REMARK  14 active torsions:
REMARK  status: ('A' for Active; 'I' for Inactive)
REMARK    1  A    between atoms: C_1  and  C_2
REMARK    2  A    between atoms: C_1  and  C_18
REMARK    3  A    between atoms: C_2  and  C_3
REMARK    4  A    between atoms: C_3  and  O_4
REMARK    5  A    between atoms: O_4  and  C_5
REMARK    6  A    between atoms: C_8  and  C_13
REMARK    7  A    between atoms: N_12  and  C_13
REMARK    8  A    between atoms: N_12  and  O_16
REMARK    9  A    between atoms: C_18  and  C_19
REMARK   10  A    between atoms: C_19  and  O_20
REMARK   11  A    between atoms: O_20  and  C_21
REMARK   12  A    between atoms: C_24  and  C_29
REMARK   13  A    between atoms: N_28  and  C_29
REMARK   14  A    between atoms: N_28  and  O_32
REMARK                            x       y       z     vdW  Elec       q    Type
REMARK                         _______ _______ _______ _____ _____    ______ ____
ROOT
ATOM      1  C   UNL     1     -33.434  20.471   0.752  0.00  0.00    +0.008 C 
ENDROOT
BRANCH   1   2
ATOM      2  C   UNL     1     -34.403  19.568   1.522  0.00  0.00    +0.047 C 
BRANCH   2   3
ATOM      3  C   UNL     1     -35.575  20.347   2.106  0.00  0.00    +0.205 C 
BRANCH   3   4
ATOM      4  O   UNL     1     -35.385  20.533   3.502  0.00  0.00    -0.475 OA
BRANCH   4   5
ATOM      5  C   UNL     1     -35.365  21.827   3.956  0.00  0.00    +0.139 C 
ATOM      6  C   UNL     1     -35.253  22.084   5.322  0.00  0.00    +0.037 C 
ATOM      7  C   UNL     1     -35.453  22.885   3.051  0.00  0.00    +0.037 C 
ATOM      8  C   UNL     1     -35.318  24.459   4.879  0.00  0.00    +0.036 C 
ATOM      9  C   UNL     1     -35.230  23.401   5.784  0.00  0.00    +0.006 C 
ATOM     10  C   UNL     1     -35.429  24.201   3.513  0.00  0.00    +0.006 C 
BRANCH   8  12
ATOM     11  N   UNL     1     -36.429  26.637   5.219  0.00  0.00    -0.381 N 
ATOM     12  C   UNL     1     -35.292  25.831   5.360  0.00  0.00    +0.160 C 
ATOM     13  H   UNL     1     -36.416  27.566   5.543  0.00  0.00    +0.157 HD
ATOM     14  H   UNL     1     -37.240  26.273   4.796  0.00  0.00    +0.157 HD
BRANCH  12  15
ATOM     15  N   UNL     1     -34.182  26.280   5.927  0.00  0.00    -0.118 NA
BRANCH  15  16
ATOM     16  O   UNL     1     -33.171  26.522   4.991  0.00  0.00    -0.264 OA
ATOM     17  H   UNL     1     -32.340  26.849   5.274  0.00  0.00    +0.247 HD
ENDBRANCH  15  16
ENDBRANCH  12  15
ENDBRANCH   8  12
ENDBRANCH   4   5
ENDBRANCH   3   4
ENDBRANCH   2   3
ENDBRANCH   1   2
BRANCH   1  18
ATOM     18  C   UNL     1     -33.959  20.779  -0.649  0.00  0.00    +0.047 C 
BRANCH  18  19
ATOM     19  C   UNL     1     -34.365  22.239  -0.789  0.00  0.00    +0.205 C 
BRANCH  19  20
ATOM     20  O   UNL     1     -33.261  23.060  -0.434  0.00  0.00    -0.475 OA
BRANCH  20  21
ATOM     21  C   UNL     1     -33.550  24.301   0.071  0.00  0.00    +0.139 C 
ATOM     22  C   UNL     1     -34.807  24.866  -0.143  0.00  0.00    +0.037 C 
ATOM     23  C   UNL     1     -32.588  24.998   0.803  0.00  0.00    +0.037 C 
ATOM     24  C   UNL     1     -34.139  26.825   1.103  0.00  0.00    +0.036 C 
ATOM     25  C   UNL     1     -35.102  26.128   0.373  0.00  0.00    +0.006 C 
ATOM     26  C   UNL     1     -32.883  26.260   1.318  0.00  0.00    +0.006 C 
BRANCH  24  28
ATOM     27  N   UNL     1     -34.047  29.287   0.946  0.00  0.00    -0.381 N 
ATOM     28  C   UNL     1     -34.447  28.140   1.642  0.00  0.00    +0.160 C 
ATOM     29  H   UNL     1     -34.252  30.179   1.306  0.00  0.00    +0.157 HD
ATOM     30  H   UNL     1     -33.560  29.201   0.094  0.00  0.00    +0.157 HD
BRANCH  28  31
ATOM     31  N   UNL     1     -35.107  28.213   2.790  0.00  0.00    -0.118 NA
BRANCH  31  32
ATOM     32  O   UNL     1     -34.305  28.690   3.831  0.00  0.00    -0.264 OA
ATOM     33  H   UNL     1     -33.708  28.113   4.264  0.00  0.00    +0.247 HD
ENDBRANCH  31  32
ENDBRANCH  28  31
ENDBRANCH  24  28
ENDBRANCH  20  21
ENDBRANCH  19  20
ENDBRANCH  18  19
ENDBRANCH   1  18
TORSDOF 14
ENDMDL
MODEL 9
REMARK VINA RESULT:      -5.0      5.573      8.303
REMARK  Name = 5487105
REMARK  14 active torsions:
REMARK  status: ('A' for Active; 'I' for Inactive)
REMARK    1  A    between atoms: C_1  and  C_2
REMARK    2  A    between atoms: C_1  and  C_18
REMARK    3  A    between atoms: C_2  and  C_3
REMARK    4  A    between atoms: C_3  and  O_4
REMARK    5  A    between atoms: O_4  and  C_5
REMARK    6  A    between atoms: C_8  and  C_13
REMARK    7  A    between atoms: N_12  and  C_13
REMARK    8  A    between atoms: N_12  and  O_16
REMARK    9  A    between atoms: C_18  and  C_19
REMARK   10  A    between atoms: C_19  and  O_20
REMARK   11  A    between atoms: O_20  and  C_21
REMARK   12  A    between atoms: C_24  and  C_29
REMARK   13  A    between atoms: N_28  and  C_29
REMARK   14  A    between atoms: N_28  and  O_32
REMARK                            x       y       z     vdW  Elec       q    Type
REMARK                         _______ _______ _______ _____ _____    ______ ____
ROOT
ATOM      1  C   UNL     1     -34.931  30.985   2.878  0.00  0.00    +0.008 C 
ENDROOT
BRANCH   1   2
ATOM      2  C   UNL     1     -35.573  29.769   2.206  0.00  0.00    +0.047 C 
BRANCH   2   3
ATOM      3  C   UNL     1     -34.743  28.504   2.388  0.00  0.00    +0.205 C 
BRANCH   3   4
ATOM      4  O   UNL     1     -34.781  28.090   3.746  0.00  0.00    -0.475 OA
BRANCH   4   5
ATOM      5  C   UNL     1     -35.040  26.764   3.983  0.00  0.00    +0.139 C 
ATOM      6  C   UNL     1     -35.861  26.049   3.113  0.00  0.00    +0.037 C 
ATOM      7  C   UNL     1     -34.477  26.131   5.091  0.00  0.00    +0.037 C 
ATOM      8  C   UNL     1     -35.560  24.066   4.459  0.00  0.00    +0.036 C 
ATOM      9  C   UNL     1     -36.122  24.699   3.351  0.00  0.00    +0.006 C 
ATOM     10  C   UNL     1     -34.738  24.782   5.329  0.00  0.00    +0.006 C 
BRANCH   8  12
ATOM     11  N   UNL     1     -36.188  21.823   3.642  0.00  0.00    -0.381 N 
ATOM     12  C   UNL     1     -35.831  22.659   4.707  0.00  0.00    +0.160 C 
ATOM     13  H   UNL     1     -36.373  20.869   3.805  0.00  0.00    +0.157 HD
ATOM     14  H   UNL     1     -36.255  22.189   2.731  0.00  0.00    +0.157 HD
BRANCH  12  15
ATOM     15  N   UNL     1     -35.726  22.206   5.948  0.00  0.00    -0.118 NA
BRANCH  15  16
ATOM     16  O   UNL     1     -35.448  20.835   5.989  0.00  0.00    -0.264 OA
ATOM     17  H   UNL     1     -35.176  20.389   5.212  0.00  0.00    +0.247 HD
ENDBRANCH  15  16
ENDBRANCH  12  15
ENDBRANCH   8  12
ENDBRANCH   4   5
ENDBRANCH   3   4
ENDBRANCH   2   3
ENDBRANCH   1   2
BRANCH   1  18
ATOM     18  C   UNL     1     -34.162  31.835   1.868  0.00  0.00    +0.047 C 
BRANCH  18  19
ATOM     19  C   UNL     1     -34.590  33.294   1.921  0.00  0.00    +0.205 C 
BRANCH  19  20
ATOM     20  O   UNL     1     -35.477  33.552   0.842  0.00  0.00    -0.475 OA
BRANCH  20  21
ATOM     21  C   UNL     1     -36.709  34.063   1.162  0.00  0.00    +0.139 C 
ATOM     22  C   UNL     1     -36.906  35.443   1.190  0.00  0.00    +0.037 C 
ATOM     23  C   UNL     1     -37.766  33.202   1.457  0.00  0.00    +0.037 C 
ATOM     24  C   UNL     1     -39.216  35.101   1.809  0.00  0.00    +0.036 C 
ATOM     25  C   UNL     1     -38.159  35.963   1.513  0.00  0.00    +0.006 C 
ATOM     26  C   UNL     1     -39.019  33.721   1.781  0.00  0.00    +0.006 C 
BRANCH  24  28
ATOM     27  N   UNL     1     -41.516  35.718   1.161  0.00  0.00    -0.381 N 
ATOM     28  C   UNL     1     -40.523  35.643   2.145  0.00  0.00    +0.160 C 
ATOM     29  H   UNL     1     -42.403  36.084   1.382  0.00  0.00    +0.157 HD
ATOM     30  H   UNL     1     -41.329  35.405   0.247  0.00  0.00    +0.157 HD
BRANCH  28  31
ATOM     31  N   UNL     1     -40.736  36.051   3.388  0.00  0.00    -0.118 NA
BRANCH  31  32
ATOM     32  O   UNL     1     -41.842  35.420   3.969  0.00  0.00    -0.264 OA
ATOM     33  H   UNL     1     -41.746  34.576   4.361  0.00  0.00    +0.247 HD
ENDBRANCH  31  32
ENDBRANCH  28  31
ENDBRANCH  24  28
ENDBRANCH  20  21
ENDBRANCH  19  20
ENDBRANCH  18  19
ENDBRANCH   1  18
TORSDOF 14
ENDMDL
