MODEL 1
REMARK VINA RESULT:      -6.0      0.000      0.000
REMARK  Name = 57346825
REMARK  8 active torsions:
REMARK  status: ('A' for Active; 'I' for Inactive)
REMARK    1  A    between atoms: N_1  and  N_5
REMARK    2  A    between atoms: C_2  and  C_18
REMARK    3  A    between atoms: N_4  and  C_7
REMARK    4  A    between atoms: N_4  and  C_11
REMARK    5  A    between atoms: N_17  and  C_18
REMARK    6  A    between atoms: N_17  and  N_20
REMARK    7  A    between atoms: N_19  and  C_22
REMARK    8  A    between atoms: N_19  and  C_26
REMARK                            x       y       z     vdW  Elec       q    Type
REMARK                         _______ _______ _______ _____ _____    ______ ____
ROOT
ATOM      1  N   UNL     1     -38.635  24.672   3.577  0.00  0.00    -0.178 NA
ATOM      2  C   UNL     1     -38.599  24.172   2.382  0.00  0.00    +0.076 C 
ATOM      3  C   UNL     1     -37.743  24.615   1.230  0.00  0.00    +0.051 C 
ENDROOT
BRANCH   1   4
ATOM      4  N   UNL     1     -37.814  25.716   3.829  0.00  0.00    -0.247 N 
ATOM      5  N   UNL     1     -36.040  26.839   4.720  0.00  0.00    -0.369 N 
ATOM      6  C   UNL     1     -36.691  25.626   4.636  0.00  0.00    +0.212 C 
ATOM      7  H   UNL     1     -38.026  26.586   3.420  0.00  0.00    +0.192 HD
ATOM      8  H   UNL     1     -35.222  26.923   5.262  0.00  0.00    +0.159 HD
ATOM      9  H   UNL     1     -36.393  27.622   4.238  0.00  0.00    +0.159 HD
BRANCH   6  10
ATOM     10  N   UNL     1     -36.345  24.513   5.214  0.00  0.00    -0.241 NA
BRANCH  10  11
ATOM     11  C   UNL     1     -34.985  24.019   4.964  0.00  0.00    +0.106 C 
ATOM     12  C   UNL     1     -34.650  22.927   5.982  0.00  0.00    +0.024 C 
ATOM     13  C   UNL     1     -34.895  23.512   3.524  0.00  0.00    +0.024 C 
ATOM     14  C   UNL     1     -35.437  21.638   5.746  0.00  0.00    +0.002 C 
ATOM     15  C   UNL     1     -35.679  22.219   3.302  0.00  0.00    +0.002 C 
ATOM     16  C   UNL     1     -35.291  21.143   4.311  0.00  0.00    +0.000 C 
ENDBRANCH  10  11
ENDBRANCH   6  10
ENDBRANCH   1   4
BRANCH   2  17
ATOM     17  C   UNL     1     -39.502  23.009   2.121  0.00  0.00    +0.157 C 
BRANCH  17  18
ATOM     18  N   UNL     1     -39.023  21.820   2.225  0.00  0.00    -0.116 NA
BRANCH  18  19
ATOM     19  N   UNL     1     -39.320  21.025   1.171  0.00  0.00    -0.273 N 
ATOM     20  N   UNL     1     -38.958  19.754  -0.688  0.00  0.00    -0.369 N 
ATOM     21  C   UNL     1     -38.372  20.535   0.287  0.00  0.00    +0.207 C 
ATOM     22  H   UNL     1     -40.262  20.783   1.023  0.00  0.00    +0.185 HD
ATOM     23  H   UNL     1     -38.400  19.338  -1.386  0.00  0.00    +0.159 HD
ATOM     24  H   UNL     1     -39.931  19.613  -0.686  0.00  0.00    +0.159 HD
BRANCH  21  25
ATOM     25  N   UNL     1     -37.106  20.809   0.413  0.00  0.00    -0.241 NA
BRANCH  25  26
ATOM     26  C   UNL     1     -36.186  20.198  -0.556  0.00  0.00    +0.106 C 
ATOM     27  C   UNL     1     -35.478  19.015   0.107  0.00  0.00    +0.024 C 
ATOM     28  C   UNL     1     -35.200  21.256  -1.051  0.00  0.00    +0.024 C 
ATOM     29  C   UNL     1     -34.198  21.679   0.024  0.00  0.00    +0.002 C 
ATOM     30  C   UNL     1     -34.473  19.450   1.174  0.00  0.00    +0.002 C 
ATOM     31  C   UNL     1     -33.484  20.476   0.632  0.00  0.00    +0.000 C 
ENDBRANCH  25  26
ENDBRANCH  21  25
ENDBRANCH  18  19
ENDBRANCH  17  18
ENDBRANCH   2  17
TORSDOF 8
ENDMDL
MODEL 2
REMARK VINA RESULT:      -6.0      2.152      3.567
REMARK  Name = 57346825
REMARK  8 active torsions:
REMARK  status: ('A' for Active; 'I' for Inactive)
REMARK    1  A    between atoms: N_1  and  N_5
REMARK    2  A    between atoms: C_2  and  C_18
REMARK    3  A    between atoms: N_4  and  C_7
REMARK    4  A    between atoms: N_4  and  C_11
REMARK    5  A    between atoms: N_17  and  C_18
REMARK    6  A    between atoms: N_17  and  N_20
REMARK    7  A    between atoms: N_19  and  C_22
REMARK    8  A    between atoms: N_19  and  C_26
REMARK                            x       y       z     vdW  Elec       q    Type
REMARK                         _______ _______ _______ _____ _____    ______ ____
ROOT
ATOM      1  N   UNL     1     -35.699  21.922   2.794  0.00  0.00    -0.178 NA
ATOM      2  C   UNL     1     -36.686  22.350   2.071  0.00  0.00    +0.076 C 
ATOM      3  C   UNL     1     -38.103  22.589   2.507  0.00  0.00    +0.051 C 
ENDROOT
BRANCH   1   4
ATOM      4  N   UNL     1     -35.963  21.653   4.092  0.00  0.00    -0.247 N 
ATOM      5  N   UNL     1     -35.967  21.958   6.353  0.00  0.00    -0.369 N 
ATOM      6  C   UNL     1     -35.568  22.473   5.138  0.00  0.00    +0.212 C 
ATOM      7  H   UNL     1     -36.460  20.830   4.307  0.00  0.00    +0.192 HD
ATOM      8  H   UNL     1     -35.754  22.438   7.185  0.00  0.00    +0.159 HD
ATOM      9  H   UNL     1     -36.465  21.109   6.388  0.00  0.00    +0.159 HD
BRANCH   6  10
ATOM     10  N   UNL     1     -34.907  23.575   4.936  0.00  0.00    -0.241 NA
BRANCH  10  11
ATOM     11  C   UNL     1     -35.463  24.808   5.511  0.00  0.00    +0.106 C 
ATOM     12  C   UNL     1     -34.337  25.823   5.710  0.00  0.00    +0.024 C 
ATOM     13  C   UNL     1     -36.561  25.338   4.589  0.00  0.00    +0.024 C 
ATOM     14  C   UNL     1     -33.800  26.377   4.390  0.00  0.00    +0.002 C 
ATOM     15  C   UNL     1     -36.012  25.895   3.275  0.00  0.00    +0.002 C 
ATOM     16  C   UNL     1     -34.919  26.932   3.516  0.00  0.00    +0.000 C 
ENDBRANCH  10  11
ENDBRANCH   6  10
ENDBRANCH   1   4
BRANCH   2  17
ATOM     17  C   UNL     1     -36.378  22.657   0.640  0.00  0.00    +0.157 C 
BRANCH  17  18
ATOM     18  N   UNL     1     -36.100  21.684  -0.154  0.00  0.00    -0.116 NA
BRANCH  18  19
ATOM     19  N   UNL     1     -36.671  20.513   0.212  0.00  0.00    -0.273 N 
ATOM     20  N   UNL     1     -36.814  18.285   0.682  0.00  0.00    -0.369 N 
ATOM     21  C   UNL     1     -35.984  19.311   0.281  0.00  0.00    +0.207 C 
ATOM     22  H   UNL     1     -37.628  20.514   0.442  0.00  0.00    +0.185 HD
ATOM     23  H   UNL     1     -36.458  17.371   0.775  0.00  0.00    +0.159 HD
ATOM     24  H   UNL     1     -37.762  18.466   0.875  0.00  0.00    +0.159 HD
BRANCH  21  25
ATOM     25  N   UNL     1     -34.718  19.225  -0.006  0.00  0.00    -0.241 NA
BRANCH  25  26
ATOM     26  C   UNL     1     -33.763  19.601   1.046  0.00  0.00    +0.106 C 
ATOM     27  C   UNL     1     -32.843  20.701   0.514  0.00  0.00    +0.024 C 
ATOM     28  C   UNL     1     -32.983  18.361   1.486  0.00  0.00    +0.024 C 
ATOM     29  C   UNL     1     -32.007  17.867   0.418  0.00  0.00    +0.002 C 
ATOM     30  C   UNL     1     -31.867  20.194  -0.548  0.00  0.00    +0.002 C 
ATOM     31  C   UNL     1     -31.082  18.982  -0.058  0.00  0.00    +0.000 C 
ENDBRANCH  25  26
ENDBRANCH  21  25
ENDBRANCH  18  19
ENDBRANCH  17  18
ENDBRANCH   2  17
TORSDOF 8
ENDMDL
MODEL 3
REMARK VINA RESULT:      -5.9      1.607      2.523
REMARK  Name = 57346825
REMARK  8 active torsions:
REMARK  status: ('A' for Active; 'I' for Inactive)
REMARK    1  A    between atoms: N_1  and  N_5
REMARK    2  A    between atoms: C_2  and  C_18
REMARK    3  A    between atoms: N_4  and  C_7
REMARK    4  A    between atoms: N_4  and  C_11
REMARK    5  A    between atoms: N_17  and  C_18
REMARK    6  A    between atoms: N_17  and  N_20
REMARK    7  A    between atoms: N_19  and  C_22
REMARK    8  A    between atoms: N_19  and  C_26
REMARK                            x       y       z     vdW  Elec       q    Type
REMARK                         _______ _______ _______ _____ _____    ______ ____
ROOT
ATOM      1  N   UNL     1     -38.530  22.864   1.937  0.00  0.00    -0.178 NA
ATOM      2  C   UNL     1     -37.913  22.515   0.852  0.00  0.00    +0.076 C 
ATOM      3  C   UNL     1     -37.204  23.408  -0.125  0.00  0.00    +0.051 C 
ENDROOT
BRANCH   1   4
ATOM      4  N   UNL     1     -38.548  24.183   2.234  0.00  0.00    -0.247 N 
ATOM      5  N   UNL     1     -38.115  26.088   3.413  0.00  0.00    -0.369 N 
ATOM      6  C   UNL     1     -37.940  24.721   3.358  0.00  0.00    +0.212 C 
ATOM      7  H   UNL     1     -39.018  24.794   1.621  0.00  0.00    +0.192 HD
ATOM      8  H   UNL     1     -37.736  26.603   4.160  0.00  0.00    +0.159 HD
ATOM      9  H   UNL     1     -38.621  26.548   2.704  0.00  0.00    +0.159 HD
BRANCH   6  10
ATOM     10  N   UNL     1     -37.301  23.981   4.216  0.00  0.00    -0.241 NA
BRANCH  10  11
ATOM     11  C   UNL     1     -35.834  24.052   4.206  0.00  0.00    +0.106 C 
ATOM     12  C   UNL     1     -35.316  23.977   5.643  0.00  0.00    +0.024 C 
ATOM     13  C   UNL     1     -35.285  22.922   3.335  0.00  0.00    +0.024 C 
ATOM     14  C   UNL     1     -35.498  22.593   6.265  0.00  0.00    +0.002 C 
ATOM     15  C   UNL     1     -35.467  21.544   3.970  0.00  0.00    +0.002 C 
ATOM     16  C   UNL     1     -34.904  21.497   5.387  0.00  0.00    +0.000 C 
ENDBRANCH  10  11
ENDBRANCH   6  10
ENDBRANCH   1   4
BRANCH   2  17
ATOM     17  C   UNL     1     -37.888  21.052   0.542  0.00  0.00    +0.157 C 
BRANCH  17  18
ATOM     18  N   UNL     1     -37.105  20.291   1.222  0.00  0.00    -0.116 NA
BRANCH  18  19
ATOM     19  N   UNL     1     -37.108  19.004   0.802  0.00  0.00    -0.273 N 
ATOM     20  N   UNL     1     -36.323  17.091  -0.160  0.00  0.00    -0.369 N 
ATOM     21  C   UNL     1     -36.042  18.406   0.150  0.00  0.00    +0.207 C 
ATOM     22  H   UNL     1     -37.913  18.463   0.969  0.00  0.00    +0.185 HD
ATOM     23  H   UNL     1     -35.651  16.542  -0.627  0.00  0.00    +0.159 HD
ATOM     24  H   UNL     1     -37.192  16.703   0.085  0.00  0.00    +0.159 HD
BRANCH  21  25
ATOM     25  N   UNL     1     -34.942  19.052  -0.107  0.00  0.00    -0.241 NA
BRANCH  25  26
ATOM     26  C   UNL     1     -34.186  19.575   1.038  0.00  0.00    +0.106 C 
ATOM     27  C   UNL     1     -33.570  20.922   0.655  0.00  0.00    +0.024 C 
ATOM     28  C   UNL     1     -33.126  18.554   1.451  0.00  0.00    +0.024 C 
ATOM     29  C   UNL     1     -31.994  18.431   0.431  0.00  0.00    +0.002 C 
ATOM     30  C   UNL     1     -32.434  20.786  -0.360  0.00  0.00    +0.002 C 
ATOM     31  C   UNL     1     -31.379  19.788   0.105  0.00  0.00    +0.000 C 
ENDBRANCH  25  26
ENDBRANCH  21  25
ENDBRANCH  18  19
ENDBRANCH  17  18
ENDBRANCH   2  17
TORSDOF 8
ENDMDL
MODEL 4
REMARK VINA RESULT:      -5.9      3.386      7.662
REMARK  Name = 57346825
REMARK  8 active torsions:
REMARK  status: ('A' for Active; 'I' for Inactive)
REMARK    1  A    between atoms: N_1  and  N_5
REMARK    2  A    between atoms: C_2  and  C_18
REMARK    3  A    between atoms: N_4  and  C_7
REMARK    4  A    between atoms: N_4  and  C_11
REMARK    5  A    between atoms: N_17  and  C_18
REMARK    6  A    between atoms: N_17  and  N_20
REMARK    7  A    between atoms: N_19  and  C_22
REMARK    8  A    between atoms: N_19  and  C_26
REMARK                            x       y       z     vdW  Elec       q    Type
REMARK                         _______ _______ _______ _____ _____    ______ ____
ROOT
ATOM      1  N   UNL     1     -35.659  22.931   3.794  0.00  0.00    -0.178 NA
ATOM      2  C   UNL     1     -35.142  22.969   4.982  0.00  0.00    +0.076 C 
ATOM      3  C   UNL     1     -35.257  21.933   6.063  0.00  0.00    +0.051 C 
ENDROOT
BRANCH   1   4
ATOM      4  N   UNL     1     -36.391  21.839   3.479  0.00  0.00    -0.247 N 
ATOM      5  N   UNL     1     -36.936  19.898   2.411  0.00  0.00    -0.369 N 
ATOM      6  C   UNL     1     -36.002  20.906   2.530  0.00  0.00    +0.212 C 
ATOM      7  H   UNL     1     -37.247  21.699   3.947  0.00  0.00    +0.192 HD
ATOM      8  H   UNL     1     -36.789  19.164   1.772  0.00  0.00    +0.159 HD
ATOM      9  H   UNL     1     -37.750  19.912   2.965  0.00  0.00    +0.159 HD
BRANCH   6  10
ATOM     10  N   UNL     1     -34.888  21.020   1.869  0.00  0.00    -0.241 NA
BRANCH  10  11
ATOM     11  C   UNL     1     -34.792  20.313   0.585  0.00  0.00    +0.106 C 
ATOM     12  C   UNL     1     -34.066  21.201  -0.427  0.00  0.00    +0.024 C 
ATOM     13  C   UNL     1     -34.075  18.980   0.802  0.00  0.00    +0.024 C 
ATOM     14  C   UNL     1     -32.578  21.360  -0.112  0.00  0.00    +0.002 C 
ATOM     15  C   UNL     1     -32.587  19.152   1.109  0.00  0.00    +0.002 C 
ATOM     16  C   UNL     1     -31.890  20.010   0.058  0.00  0.00    +0.000 C 
ENDBRANCH  10  11
ENDBRANCH   6  10
ENDBRANCH   1   4
BRANCH   2  17
ATOM     17  C   UNL     1     -34.323  24.176   5.312  0.00  0.00    +0.157 C 
BRANCH  17  18
ATOM     18  N   UNL     1     -33.763  24.823   4.352  0.00  0.00    -0.116 NA
BRANCH  18  19
ATOM     19  N   UNL     1     -34.558  25.772   3.807  0.00  0.00    -0.273 N 
ATOM     20  N   UNL     1     -35.404  27.854   3.417  0.00  0.00    -0.369 N 
ATOM     21  C   UNL     1     -34.473  27.119   4.122  0.00  0.00    +0.207 C 
ATOM     22  H   UNL     1     -35.234  25.491   3.151  0.00  0.00    +0.185 HD
ATOM     23  H   UNL     1     -35.457  28.830   3.542  0.00  0.00    +0.159 HD
ATOM     24  H   UNL     1     -36.013  27.404   2.790  0.00  0.00    +0.159 HD
BRANCH  21  25
ATOM     25  N   UNL     1     -33.606  27.572   4.979  0.00  0.00    -0.241 NA
BRANCH  25  26
ATOM     26  C   UNL     1     -32.297  27.987   4.456  0.00  0.00    +0.106 C 
ATOM     27  C   UNL     1     -31.326  28.164   5.625  0.00  0.00    +0.024 C 
ATOM     28  C   UNL     1     -32.462  29.273   3.645  0.00  0.00    +0.024 C 
ATOM     29  C   UNL     1     -32.785  30.485   4.519  0.00  0.00    +0.002 C 
ATOM     30  C   UNL     1     -31.654  29.383   6.487  0.00  0.00    +0.002 C 
ATOM     31  C   UNL     1     -31.773  30.651   5.648  0.00  0.00    +0.000 C 
ENDBRANCH  25  26
ENDBRANCH  21  25
ENDBRANCH  18  19
ENDBRANCH  17  18
ENDBRANCH   2  17
TORSDOF 8
ENDMDL
MODEL 5
REMARK VINA RESULT:      -5.9      1.815      4.096
REMARK  Name = 57346825
REMARK  8 active torsions:
REMARK  status: ('A' for Active; 'I' for Inactive)
REMARK    1  A    between atoms: N_1  and  N_5
REMARK    2  A    between atoms: C_2  and  C_18
REMARK    3  A    between atoms: N_4  and  C_7
REMARK    4  A    between atoms: N_4  and  C_11
REMARK    5  A    between atoms: N_17  and  C_18
REMARK    6  A    between atoms: N_17  and  N_20
REMARK    7  A    between atoms: N_19  and  C_22
REMARK    8  A    between atoms: N_19  and  C_26
REMARK                            x       y       z     vdW  Elec       q    Type
REMARK                         _______ _______ _______ _____ _____    ______ ____
ROOT
ATOM      1  N   UNL     1     -37.531  24.052   4.068  0.00  0.00    -0.178 NA
ATOM      2  C   UNL     1     -36.423  24.307   4.690  0.00  0.00    +0.076 C 
ATOM      3  C   UNL     1     -36.030  25.586   5.372  0.00  0.00    +0.051 C 
ENDROOT
BRANCH   1   4
ATOM      4  N   UNL     1     -38.448  25.045   4.018  0.00  0.00    -0.247 N 
ATOM      5  N   UNL     1     -40.345  26.135   3.376  0.00  0.00    -0.369 N 
ATOM      6  C   UNL     1     -39.591  24.989   3.236  0.00  0.00    +0.212 C 
ATOM      7  H   UNL     1     -38.295  25.850   4.564  0.00  0.00    +0.192 HD
ATOM      8  H   UNL     1     -41.188  26.234   2.877  0.00  0.00    +0.159 HD
ATOM      9  H   UNL     1     -40.041  26.855   3.975  0.00  0.00    +0.159 HD
BRANCH   6  10
ATOM     10  N   UNL     1     -39.863  23.962   2.486  0.00  0.00    -0.241 NA
BRANCH  10  11
ATOM     11  C   UNL     1     -39.949  24.190   1.037  0.00  0.00    +0.106 C 
ATOM     12  C   UNL     1     -38.567  24.569   0.504  0.00  0.00    +0.024 C 
ATOM     13  C   UNL     1     -40.502  22.933   0.366  0.00  0.00    +0.024 C 
ATOM     14  C   UNL     1     -37.586  23.396   0.519  0.00  0.00    +0.002 C 
ATOM     15  C   UNL     1     -39.511  21.769   0.381  0.00  0.00    +0.002 C 
ATOM     16  C   UNL     1     -38.157  22.175  -0.194  0.00  0.00    +0.000 C 
ENDBRANCH  10  11
ENDBRANCH   6  10
ENDBRANCH   1   4
BRANCH   2  17
ATOM     17  C   UNL     1     -35.423  23.196   4.751  0.00  0.00    +0.157 C 
BRANCH  17  18
ATOM     18  N   UNL     1     -35.138  22.563   3.668  0.00  0.00    -0.116 NA
BRANCH  18  19
ATOM     19  N   UNL     1     -36.077  21.655   3.313  0.00  0.00    -0.273 N 
ATOM     20  N   UNL     1     -36.956  19.800   2.319  0.00  0.00    -0.369 N 
ATOM     21  C   UNL     1     -35.816  20.551   2.518  0.00  0.00    +0.207 C 
ATOM     22  H   UNL     1     -36.996  21.786   3.638  0.00  0.00    +0.185 HD
ATOM     23  H   UNL     1     -36.917  18.982   1.771  0.00  0.00    +0.159 HD
ATOM     24  H   UNL     1     -37.807  20.080   2.726  0.00  0.00    +0.159 HD
BRANCH  21  25
ATOM     25  N   UNL     1     -34.627  20.305   2.050  0.00  0.00    -0.241 NA
BRANCH  25  26
ATOM     26  C   UNL     1     -34.543  19.662   0.731  0.00  0.00    +0.106 C 
ATOM     27  C   UNL     1     -33.765  18.352   0.864  0.00  0.00    +0.024 C 
ATOM     28  C   UNL     1     -33.885  20.625  -0.258  0.00  0.00    +0.024 C 
ATOM     29  C   UNL     1     -32.397  20.833   0.021  0.00  0.00    +0.002 C 
ATOM     30  C   UNL     1     -32.277  18.573   1.135  0.00  0.00    +0.002 C 
ATOM     31  C   UNL     1     -31.649  19.507   0.107  0.00  0.00    +0.000 C 
ENDBRANCH  25  26
ENDBRANCH  21  25
ENDBRANCH  18  19
ENDBRANCH  17  18
ENDBRANCH   2  17
TORSDOF 8
ENDMDL
MODEL 6
REMARK VINA RESULT:      -5.9      2.019      6.194
REMARK  Name = 57346825
REMARK  8 active torsions:
REMARK  status: ('A' for Active; 'I' for Inactive)
REMARK    1  A    between atoms: N_1  and  N_5
REMARK    2  A    between atoms: C_2  and  C_18
REMARK    3  A    between atoms: N_4  and  C_7
REMARK    4  A    between atoms: N_4  and  C_11
REMARK    5  A    between atoms: N_17  and  C_18
REMARK    6  A    between atoms: N_17  and  N_20
REMARK    7  A    between atoms: N_19  and  C_22
REMARK    8  A    between atoms: N_19  and  C_26
REMARK                            x       y       z     vdW  Elec       q    Type
REMARK                         _______ _______ _______ _____ _____    ______ ____
ROOT
ATOM      1  N   UNL     1     -37.706  20.957   1.795  0.00  0.00    -0.178 NA
ATOM      2  C   UNL     1     -36.689  20.234   1.446  0.00  0.00    +0.076 C 
ATOM      3  C   UNL     1     -36.624  19.221   0.339  0.00  0.00    +0.051 C 
ENDROOT
BRANCH   1   4
ATOM      4  N   UNL     1     -38.848  20.789   1.091  0.00  0.00    -0.247 N 
ATOM      5  N   UNL     1     -40.954  21.246   0.344  0.00  0.00    -0.369 N 
ATOM      6  C   UNL     1     -39.925  21.659   1.163  0.00  0.00    +0.212 C 
ATOM      7  H   UNL     1     -38.920  20.006   0.498  0.00  0.00    +0.192 HD
ATOM      8  H   UNL     1     -41.786  21.771   0.294  0.00  0.00    +0.159 HD
ATOM      9  H   UNL     1     -40.858  20.425  -0.192  0.00  0.00    +0.159 HD
BRANCH   6  10
ATOM     10  N   UNL     1     -39.908  22.713   1.924  0.00  0.00    -0.241 NA
BRANCH  10  11
ATOM     11  C   UNL     1     -40.313  23.988   1.317  0.00  0.00    +0.106 C 
ATOM     12  C   UNL     1     -40.561  25.017   2.422  0.00  0.00    +0.024 C 
ATOM     13  C   UNL     1     -39.230  24.442   0.339  0.00  0.00    +0.024 C 
ATOM     14  C   UNL     1     -39.272  25.462   3.114  0.00  0.00    +0.002 C 
ATOM     15  C   UNL     1     -37.949  24.892   1.042  0.00  0.00    +0.002 C 
ATOM     16  C   UNL     1     -38.231  25.944   2.110  0.00  0.00    +0.000 C 
ENDBRANCH  10  11
ENDBRANCH   6  10
ENDBRANCH   1   4
BRANCH   2  17
ATOM     17  C   UNL     1     -35.428  20.440   2.223  0.00  0.00    +0.157 C 
BRANCH  17  18
ATOM     18  N   UNL     1     -35.298  21.518   2.913  0.00  0.00    -0.116 NA
BRANCH  18  19
ATOM     19  N   UNL     1     -35.734  21.395   4.188  0.00  0.00    -0.273 N 
ATOM     20  N   UNL     1     -36.038  21.943   6.381  0.00  0.00    -0.369 N 
ATOM     21  C   UNL     1     -35.471  22.323   5.183  0.00  0.00    +0.207 C 
ATOM     22  H   UNL     1     -36.268  20.602   4.423  0.00  0.00    +0.185 HD
ATOM     23  H   UNL     1     -35.931  22.511   7.179  0.00  0.00    +0.159 HD
ATOM     24  H   UNL     1     -36.550  21.104   6.439  0.00  0.00    +0.159 HD
BRANCH  21  25
ATOM     25  N   UNL     1     -34.774  23.398   4.955  0.00  0.00    -0.241 NA
BRANCH  25  26
ATOM     26  C   UNL     1     -35.508  24.596   4.522  0.00  0.00    +0.106 C 
ATOM     27  C   UNL     1     -34.882  25.123   3.229  0.00  0.00    +0.024 C 
ATOM     28  C   UNL     1     -35.479  25.637   5.642  0.00  0.00    +0.024 C 
ATOM     29  C   UNL     1     -34.091  26.245   5.847  0.00  0.00    +0.002 C 
ATOM     30  C   UNL     1     -33.499  25.736   3.449  0.00  0.00    +0.002 C 
ATOM     31  C   UNL     1     -33.519  26.795   4.545  0.00  0.00    +0.000 C 
ENDBRANCH  25  26
ENDBRANCH  21  25
ENDBRANCH  18  19
ENDBRANCH  17  18
ENDBRANCH   2  17
TORSDOF 8
ENDMDL
MODEL 7
REMARK VINA RESULT:      -5.8      2.278      3.705
REMARK  Name = 57346825
REMARK  8 active torsions:
REMARK  status: ('A' for Active; 'I' for Inactive)
REMARK    1  A    between atoms: N_1  and  N_5
REMARK    2  A    between atoms: C_2  and  C_18
REMARK    3  A    between atoms: N_4  and  C_7
REMARK    4  A    between atoms: N_4  and  C_11
REMARK    5  A    between atoms: N_17  and  C_18
REMARK    6  A    between atoms: N_17  and  N_20
REMARK    7  A    between atoms: N_19  and  C_22
REMARK    8  A    between atoms: N_19  and  C_26
REMARK                            x       y       z     vdW  Elec       q    Type
REMARK                         _______ _______ _______ _____ _____    ______ ____
ROOT
ATOM      1  N   UNL     1     -38.610  25.543   2.444  0.00  0.00    -0.178 NA
ATOM      2  C   UNL     1     -39.905  25.562   2.397  0.00  0.00    +0.076 C 
ATOM      3  C   UNL     1     -40.846  26.235   3.354  0.00  0.00    +0.051 C 
ENDROOT
BRANCH   1   4
ATOM      4  N   UNL     1     -38.025  26.200   3.470  0.00  0.00    -0.247 N 
ATOM      5  N   UNL     1     -36.691  26.504   5.295  0.00  0.00    -0.369 N 
ATOM      6  C   UNL     1     -37.132  25.604   4.347  0.00  0.00    +0.212 C 
ATOM      7  H   UNL     1     -38.245  27.151   3.602  0.00  0.00    +0.192 HD
ATOM      8  H   UNL     1     -36.050  26.218   5.986  0.00  0.00    +0.159 HD
ATOM      9  H   UNL     1     -37.018  27.433   5.282  0.00  0.00    +0.159 HD
BRANCH   6  10
ATOM     10  N   UNL     1     -36.792  24.354   4.241  0.00  0.00    -0.241 NA
BRANCH  10  11
ATOM     11  C   UNL     1     -35.356  24.050   4.166  0.00  0.00    +0.106 C 
ATOM     12  C   UNL     1     -34.827  23.765   5.572  0.00  0.00    +0.024 C 
ATOM     13  C   UNL     1     -35.144  22.868   3.219  0.00  0.00    +0.024 C 
ATOM     14  C   UNL     1     -35.338  22.440   6.138  0.00  0.00    +0.002 C 
ATOM     15  C   UNL     1     -35.653  21.548   3.798  0.00  0.00    +0.002 C 
ATOM     16  C   UNL     1     -35.074  21.280   5.184  0.00  0.00    +0.000 C 
ENDBRANCH  10  11
ENDBRANCH   6  10
ENDBRANCH   1   4
BRANCH   2  17
ATOM     17  C   UNL     1     -40.540  24.843   1.249  0.00  0.00    +0.157 C 
BRANCH  17  18
ATOM     18  N   UNL     1     -40.959  23.640   1.430  0.00  0.00    -0.116 NA
BRANCH  18  19
ATOM     19  N   UNL     1     -40.021  22.817   1.952  0.00  0.00    -0.273 N 
ATOM     20  N   UNL     1     -38.782  20.920   2.216  0.00  0.00    -0.369 N 
ATOM     21  C   UNL     1     -39.796  21.525   1.503  0.00  0.00    +0.207 C 
ATOM     22  H   UNL     1     -39.467  23.154   2.692  0.00  0.00    +0.185 HD
ATOM     23  H   UNL     1     -38.515  19.996   2.003  0.00  0.00    +0.159 HD
ATOM     24  H   UNL     1     -38.326  21.411   2.936  0.00  0.00    +0.159 HD
BRANCH  21  25
ATOM     25  N   UNL     1     -40.485  21.005   0.529  0.00  0.00    -0.241 NA
BRANCH  25  26
ATOM     26  C   UNL     1     -39.757  20.658  -0.699  0.00  0.00    +0.106 C 
ATOM     27  C   UNL     1     -39.376  21.944  -1.433  0.00  0.00    +0.024 C 
ATOM     28  C   UNL     1     -40.627  19.739  -1.558  0.00  0.00    +0.024 C 
ATOM     29  C   UNL     1     -41.827  20.464  -2.168  0.00  0.00    +0.002 C 
ATOM     30  C   UNL     1     -40.583  22.655  -2.045  0.00  0.00    +0.002 C 
ATOM     31  C   UNL     1     -41.403  21.718  -2.925  0.00  0.00    +0.000 C 
ENDBRANCH  25  26
ENDBRANCH  21  25
ENDBRANCH  18  19
ENDBRANCH  17  18
ENDBRANCH   2  17
TORSDOF 8
ENDMDL
MODEL 8
REMARK VINA RESULT:      -5.8      2.377      7.003
REMARK  Name = 57346825
REMARK  8 active torsions:
REMARK  status: ('A' for Active; 'I' for Inactive)
REMARK    1  A    between atoms: N_1  and  N_5
REMARK    2  A    between atoms: C_2  and  C_18
REMARK    3  A    between atoms: N_4  and  C_7
REMARK    4  A    between atoms: N_4  and  C_11
REMARK    5  A    between atoms: N_17  and  C_18
REMARK    6  A    between atoms: N_17  and  N_20
REMARK    7  A    between atoms: N_19  and  C_22
REMARK    8  A    between atoms: N_19  and  C_26
REMARK                            x       y       z     vdW  Elec       q    Type
REMARK                         _______ _______ _______ _____ _____    ______ ____
ROOT
ATOM      1  N   UNL     1     -36.324  20.038   1.438  0.00  0.00    -0.178 NA
ATOM      2  C   UNL     1     -37.148  21.039   1.441  0.00  0.00    +0.076 C 
ATOM      3  C   UNL     1     -38.571  21.053   0.962  0.00  0.00    +0.051 C 
ENDROOT
BRANCH   1   4
ATOM      4  N   UNL     1     -36.785  18.866   0.948  0.00  0.00    -0.247 N 
ATOM      5  N   UNL     1     -36.758  16.913  -0.230  0.00  0.00    -0.369 N 
ATOM      6  C   UNL     1     -36.043  18.040   0.118  0.00  0.00    +0.212 C 
ATOM      7  H   UNL     1     -37.697  18.584   1.193  0.00  0.00    +0.192 HD
ATOM      8  H   UNL     1     -36.353  16.236  -0.819  0.00  0.00    +0.159 HD
ATOM      9  H   UNL     1     -37.674  16.786   0.109  0.00  0.00    +0.159 HD
BRANCH   6  10
ATOM     10  N   UNL     1     -34.834  18.342  -0.251  0.00  0.00    -0.241 NA
BRANCH  10  11
ATOM     11  C   UNL     1     -33.731  17.628   0.407  0.00  0.00    +0.106 C 
ATOM     12  C   UNL     1     -32.796  17.054  -0.659  0.00  0.00    +0.024 C 
ATOM     13  C   UNL     1     -33.007  18.588   1.352  0.00  0.00    +0.024 C 
ATOM     14  C   UNL     1     -31.999  18.134  -1.390  0.00  0.00    +0.002 C 
ATOM     15  C   UNL     1     -32.209  19.659   0.609  0.00  0.00    +0.002 C 
ATOM     16  C   UNL     1     -31.261  19.046  -0.417  0.00  0.00    +0.000 C 
ENDBRANCH  10  11
ENDBRANCH   6  10
ENDBRANCH   1   4
BRANCH   2  17
ATOM     17  C   UNL     1     -36.629  22.326   1.999  0.00  0.00    +0.157 C 
BRANCH  17  18
ATOM     18  N   UNL     1     -35.611  22.292   2.784  0.00  0.00    -0.116 NA
BRANCH  18  19
ATOM     19  N   UNL     1     -35.916  21.907   4.044  0.00  0.00    -0.273 N 
ATOM     20  N   UNL     1     -35.973  21.979   6.323  0.00  0.00    -0.369 N 
ATOM     21  C   UNL     1     -35.521  22.600   5.177  0.00  0.00    +0.207 C 
ATOM     22  H   UNL     1     -36.449  21.088   4.164  0.00  0.00    +0.185 HD
ATOM     23  H   UNL     1     -35.766  22.365   7.206  0.00  0.00    +0.159 HD
ATOM     24  H   UNL     1     -36.503  21.153   6.259  0.00  0.00    +0.159 HD
BRANCH  21  25
ATOM     25  N   UNL     1     -34.816  23.691   5.106  0.00  0.00    -0.241 NA
BRANCH  25  26
ATOM     26  C   UNL     1     -35.415  24.916   5.654  0.00  0.00    +0.106 C 
ATOM     27  C   UNL     1     -36.516  25.399   4.707  0.00  0.00    +0.024 C 
ATOM     28  C   UNL     1     -34.322  25.967   5.850  0.00  0.00    +0.024 C 
ATOM     29  C   UNL     1     -33.784  26.514   4.528  0.00  0.00    +0.002 C 
ATOM     30  C   UNL     1     -35.965  25.950   3.392  0.00  0.00    +0.002 C 
ATOM     31  C   UNL     1     -34.907  27.022   3.629  0.00  0.00    +0.000 C 
ENDBRANCH  25  26
ENDBRANCH  21  25
ENDBRANCH  18  19
ENDBRANCH  17  18
ENDBRANCH   2  17
TORSDOF 8
ENDMDL
MODEL 9
REMARK VINA RESULT:      -5.8      4.517      8.195
REMARK  Name = 57346825
REMARK  8 active torsions:
REMARK  status: ('A' for Active; 'I' for Inactive)
REMARK    1  A    between atoms: N_1  and  N_5
REMARK    2  A    between atoms: C_2  and  C_18
REMARK    3  A    between atoms: N_4  and  C_7
REMARK    4  A    between atoms: N_4  and  C_11
REMARK    5  A    between atoms: N_17  and  C_18
REMARK    6  A    between atoms: N_17  and  N_20
REMARK    7  A    between atoms: N_19  and  C_22
REMARK    8  A    between atoms: N_19  and  C_26
REMARK                            x       y       z     vdW  Elec       q    Type
REMARK                         _______ _______ _______ _____ _____    ______ ____
ROOT
ATOM      1  N   UNL     1     -35.900  26.194   4.091  0.00  0.00    -0.178 NA
ATOM      2  C   UNL     1     -35.358  26.888   3.141  0.00  0.00    +0.076 C 
ATOM      3  C   UNL     1     -36.047  27.538   1.975  0.00  0.00    +0.051 C 
ENDROOT
BRANCH   1   4
ATOM      4  N   UNL     1     -37.240  26.024   4.039  0.00  0.00    -0.247 N 
ATOM      5  N   UNL     1     -39.220  24.914   3.819  0.00  0.00    -0.369 N 
ATOM      6  C   UNL     1     -37.846  24.795   3.826  0.00  0.00    +0.212 C 
ATOM      7  H   UNL     1     -37.816  26.814   4.157  0.00  0.00    +0.192 HD
ATOM      8  H   UNL     1     -39.782  24.118   3.678  0.00  0.00    +0.159 HD
ATOM      9  H   UNL     1     -39.640  25.794   3.955  0.00  0.00    +0.159 HD
BRANCH   6  10
ATOM     10  N   UNL     1     -37.156  23.706   3.660  0.00  0.00    -0.241 NA
BRANCH  10  11
ATOM     11  C   UNL     1     -36.573  23.475   2.331  0.00  0.00    +0.106 C 
ATOM     12  C   UNL     1     -35.287  22.661   2.480  0.00  0.00    +0.024 C 
ATOM     13  C   UNL     1     -37.604  22.768   1.450  0.00  0.00    +0.024 C 
ATOM     14  C   UNL     1     -35.547  21.215   2.899  0.00  0.00    +0.002 C 
ATOM     15  C   UNL     1     -37.851  21.321   1.875  0.00  0.00    +0.002 C 
ATOM     16  C   UNL     1     -36.549  20.532   1.974  0.00  0.00    +0.000 C 
ENDBRANCH  10  11
ENDBRANCH   6  10
ENDBRANCH   1   4
BRANCH   2  17
ATOM     17  C   UNL     1     -33.877  27.081   3.219  0.00  0.00    +0.157 C 
BRANCH  17  18
ATOM     18  N   UNL     1     -33.407  27.910   4.083  0.00  0.00    -0.116 NA
BRANCH  18  19
ATOM     19  N   UNL     1     -33.421  27.433   5.349  0.00  0.00    -0.273 N 
ATOM     20  N   UNL     1     -32.664  27.008   7.458  0.00  0.00    -0.369 N 
ATOM     21  C   UNL     1     -32.376  27.594   6.244  0.00  0.00    +0.207 C 
ATOM     22  H   UNL     1     -34.220  26.943   5.652  0.00  0.00    +0.185 HD
ATOM     23  H   UNL     1     -32.008  27.046   8.192  0.00  0.00    +0.159 HD
ATOM     24  H   UNL     1     -33.526  26.552   7.592  0.00  0.00    +0.159 HD
BRANCH  21  25
ATOM     25  N   UNL     1     -31.287  28.230   5.922  0.00  0.00    -0.241 NA
BRANCH  25  26
ATOM     26  C   UNL     1     -30.947  29.424   6.709  0.00  0.00    +0.106 C 
ATOM     27  C   UNL     1     -31.836  30.585   6.260  0.00  0.00    +0.024 C 
ATOM     28  C   UNL     1     -29.460  29.735   6.535  0.00  0.00    +0.024 C 
ATOM     29  C   UNL     1     -29.123  30.246   5.135  0.00  0.00    +0.002 C 
ATOM     30  C   UNL     1     -31.484  31.093   4.861  0.00  0.00    +0.002 C 
ATOM     31  C   UNL     1     -30.002  31.429   4.739  0.00  0.00    +0.000 C 
ENDBRANCH  25  26
ENDBRANCH  21  25
ENDBRANCH  18  19
ENDBRANCH  17  18
ENDBRANCH   2  17
TORSDOF 8
ENDMDL
