MODEL 1
REMARK VINA RESULT:      -6.5      0.000      0.000
REMARK  Name = 5482042
REMARK  4 active torsions:
REMARK  status: ('A' for Active; 'I' for Inactive)
REMARK    1  A    between atoms: C_10  and  O_16
REMARK    2  A    between atoms: C_12  and  O_18
REMARK    3  A    between atoms: C_13  and  O_20
REMARK    4  A    between atoms: C_14  and  O_22
REMARK                            x       y       z     vdW  Elec       q    Type
REMARK                         _______ _______ _______ _____ _____    ______ ____
ROOT
ATOM      1  O   UNL     1     -38.071  25.057   3.880  0.00  0.00    -0.418 OA
ATOM      2  O   UNL     1     -39.999  24.568   2.766  0.00  0.00    -0.244 OA
ATOM      3  C   UNL     1     -36.922  22.643   2.956  0.00  0.00    +0.012 A 
ATOM      4  C   UNL     1     -36.151  23.547   3.819  0.00  0.00    +0.038 A 
ATOM      5  C   UNL     1     -38.236  22.989   2.594  0.00  0.00    +0.079 A 
ATOM      6  C   UNL     1     -36.750  24.731   4.256  0.00  0.00    +0.185 A 
ATOM      7  C   UNL     1     -36.414  21.428   2.460  0.00  0.00    +0.040 C 
ATOM      8  C   UNL     1     -34.834  23.314   4.248  0.00  0.00    +0.006 C 
ATOM      9  C   UNL     1     -39.007  22.152   1.771  0.00  0.00    +0.046 C 
ATOM     10  C   UNL     1     -36.099  25.653   5.078  0.00  0.00    +0.203 C 
ATOM     11  C   UNL     1     -38.856  24.249   3.068  0.00  0.00    +0.346 A 
ATOM     12  C   UNL     1     -37.181  20.594   1.640  0.00  0.00    +0.167 C 
ATOM     13  C   UNL     1     -38.476  20.956   1.296  0.00  0.00    +0.168 C 
ATOM     14  C   UNL     1     -34.797  25.397   5.488  0.00  0.00    +0.171 C 
ATOM     15  C   UNL     1     -34.164  24.228   5.073  0.00  0.00    +0.040 C 
ENDROOT
BRANCH  10  16
ATOM     16  O   UNL     1     -36.730  26.794   5.476  0.00  0.00    -0.501 OA
ATOM     17  H   UNL     1     -37.559  27.023   5.106  0.00  0.00    +0.292 HD
ENDBRANCH  10  16
BRANCH  12  18
ATOM     18  O   UNL     1     -36.645  19.427   1.186  0.00  0.00    -0.503 OA
ATOM     19  H   UNL     1     -36.401  18.756   1.793  0.00  0.00    +0.292 HD
ENDBRANCH  12  18
BRANCH  13  20
ATOM     20  O   UNL     1     -39.234  20.155   0.498  0.00  0.00    -0.503 OA
ATOM     21  H   UNL     1     -39.451  19.286   0.776  0.00  0.00    +0.292 HD
ENDBRANCH  13  20
BRANCH  14  22
ATOM     22  O   UNL     1     -34.130  26.273   6.288  0.00  0.00    -0.503 OA
ATOM     23  H   UNL     1     -34.478  27.132   6.434  0.00  0.00    +0.292 HD
ENDBRANCH  14  22
TORSDOF 4
ENDMDL
MODEL 2
REMARK VINA RESULT:      -6.4      2.538      6.222
REMARK  Name = 5482042
REMARK  4 active torsions:
REMARK  status: ('A' for Active; 'I' for Inactive)
REMARK    1  A    between atoms: C_10  and  O_16
REMARK    2  A    between atoms: C_12  and  O_18
REMARK    3  A    between atoms: C_13  and  O_20
REMARK    4  A    between atoms: C_14  and  O_22
REMARK                            x       y       z     vdW  Elec       q    Type
REMARK                         _______ _______ _______ _____ _____    ______ ____
ROOT
ATOM      1  O   UNL     1     -35.929  21.674   4.251  0.00  0.00    -0.418 OA
ATOM      2  O   UNL     1     -35.814  22.449   6.392  0.00  0.00    -0.244 OA
ATOM      3  C   UNL     1     -34.667  24.031   3.329  0.00  0.00    +0.012 A 
ATOM      4  C   UNL     1     -35.062  22.983   2.379  0.00  0.00    +0.038 A 
ATOM      5  C   UNL     1     -34.922  23.852   4.700  0.00  0.00    +0.079 A 
ATOM      6  C   UNL     1     -35.683  21.832   2.870  0.00  0.00    +0.185 A 
ATOM      7  C   UNL     1     -34.036  25.228   2.939  0.00  0.00    +0.040 C 
ATOM      8  C   UNL     1     -34.862  23.044   0.990  0.00  0.00    +0.006 C 
ATOM      9  C   UNL     1     -34.560  24.830   5.640  0.00  0.00    +0.046 C 
ATOM     10  C   UNL     1     -36.095  20.781   2.048  0.00  0.00    +0.203 C 
ATOM     11  C   UNL     1     -35.582  22.624   5.203  0.00  0.00    +0.346 A 
ATOM     12  C   UNL     1     -33.675  26.202   3.876  0.00  0.00    +0.167 C 
ATOM     13  C   UNL     1     -33.937  26.003   5.224  0.00  0.00    +0.168 C 
ATOM     14  C   UNL     1     -35.886  20.869   0.678  0.00  0.00    +0.171 C 
ATOM     15  C   UNL     1     -35.269  22.000   0.149  0.00  0.00    +0.040 C 
ENDROOT
BRANCH  10  16
ATOM     16  O   UNL     1     -36.696  19.680   2.579  0.00  0.00    -0.501 OA
ATOM     17  H   UNL     1     -37.137  19.071   2.019  0.00  0.00    +0.292 HD
ENDBRANCH  10  16
BRANCH  12  18
ATOM     18  O   UNL     1     -33.067  27.345   3.450  0.00  0.00    -0.503 OA
ATOM     19  H   UNL     1     -33.548  27.972   2.948  0.00  0.00    +0.292 HD
ENDBRANCH  12  18
BRANCH  13  20
ATOM     20  O   UNL     1     -33.590  26.943   6.147  0.00  0.00    -0.503 OA
ATOM     21  H   UNL     1     -33.710  27.853   5.957  0.00  0.00    +0.292 HD
ENDBRANCH  13  20
BRANCH  14  22
ATOM     22  O   UNL     1     -36.272  19.864  -0.155  0.00  0.00    -0.503 OA
ATOM     23  H   UNL     1     -35.740  19.097  -0.241  0.00  0.00    +0.292 HD
ENDBRANCH  14  22
TORSDOF 4
ENDMDL
MODEL 3
REMARK VINA RESULT:      -6.3      2.899      4.495
REMARK  Name = 5482042
REMARK  4 active torsions:
REMARK  status: ('A' for Active; 'I' for Inactive)
REMARK    1  A    between atoms: C_10  and  O_16
REMARK    2  A    between atoms: C_12  and  O_18
REMARK    3  A    between atoms: C_13  and  O_20
REMARK    4  A    between atoms: C_14  and  O_22
REMARK                            x       y       z     vdW  Elec       q    Type
REMARK                         _______ _______ _______ _____ _____    ______ ____
ROOT
ATOM      1  O   UNL     1     -34.951  26.838   4.502  0.00  0.00    -0.418 OA
ATOM      2  O   UNL     1     -34.330  25.840   6.455  0.00  0.00    -0.244 OA
ATOM      3  C   UNL     1     -35.642  24.315   3.428  0.00  0.00    +0.012 A 
ATOM      4  C   UNL     1     -35.806  25.532   2.622  0.00  0.00    +0.038 A 
ATOM      5  C   UNL     1     -35.139  24.416   4.737  0.00  0.00    +0.079 A 
ATOM      6  C   UNL     1     -35.454  26.761   3.185  0.00  0.00    +0.185 A 
ATOM      7  C   UNL     1     -35.966  23.028   2.958  0.00  0.00    +0.040 C 
ATOM      8  C   UNL     1     -36.296  25.561   1.306  0.00  0.00    +0.006 C 
ATOM      9  C   UNL     1     -34.968  23.277   5.540  0.00  0.00    +0.046 C 
ATOM     10  C   UNL     1     -35.573  27.972   2.499  0.00  0.00    +0.203 C 
ATOM     11  C   UNL     1     -34.771  25.730   5.317  0.00  0.00    +0.346 A 
ATOM     12  C   UNL     1     -35.795  21.893   3.757  0.00  0.00    +0.167 C 
ATOM     13  C   UNL     1     -35.297  22.018   5.047  0.00  0.00    +0.168 C 
ATOM     14  C   UNL     1     -36.060  27.971   1.199  0.00  0.00    +0.171 C 
ATOM     15  C   UNL     1     -36.423  26.766   0.603  0.00  0.00    +0.040 C 
ENDROOT
BRANCH  10  16
ATOM     16  O   UNL     1     -35.216  29.144   3.096  0.00  0.00    -0.501 OA
ATOM     17  H   UNL     1     -34.492  29.637   2.764  0.00  0.00    +0.292 HD
ENDBRANCH  10  16
BRANCH  12  18
ATOM     18  O   UNL     1     -36.122  20.668   3.257  0.00  0.00    -0.503 OA
ATOM     19  H   UNL     1     -35.474  20.156   2.815  0.00  0.00    +0.292 HD
ENDBRANCH  12  18
BRANCH  13  20
ATOM     20  O   UNL     1     -35.126  20.922   5.836  0.00  0.00    -0.503 OA
ATOM     21  H   UNL     1     -34.328  20.808   6.314  0.00  0.00    +0.292 HD
ENDBRANCH  13  20
BRANCH  14  22
ATOM     22  O   UNL     1     -36.192  29.131   0.501  0.00  0.00    -0.503 OA
ATOM     23  H   UNL     1     -36.477  29.111  -0.393  0.00  0.00    +0.292 HD
ENDBRANCH  14  22
TORSDOF 4
ENDMDL
MODEL 4
REMARK VINA RESULT:      -6.3      3.014      4.495
REMARK  Name = 5482042
REMARK  4 active torsions:
REMARK  status: ('A' for Active; 'I' for Inactive)
REMARK    1  A    between atoms: C_10  and  O_16
REMARK    2  A    between atoms: C_12  and  O_18
REMARK    3  A    between atoms: C_13  and  O_20
REMARK    4  A    between atoms: C_14  and  O_22
REMARK                            x       y       z     vdW  Elec       q    Type
REMARK                         _______ _______ _______ _____ _____    ______ ____
ROOT
ATOM      1  O   UNL     1     -33.610  26.861   2.823  0.00  0.00    -0.418 OA
ATOM      2  O   UNL     1     -34.631  25.638   1.194  0.00  0.00    -0.244 OA
ATOM      3  C   UNL     1     -34.479  25.002   4.769  0.00  0.00    +0.012 A 
ATOM      4  C   UNL     1     -33.683  26.171   5.166  0.00  0.00    +0.038 A 
ATOM      5  C   UNL     1     -34.804  24.816   3.413  0.00  0.00    +0.079 A 
ATOM      6  C   UNL     1     -33.271  27.068   4.178  0.00  0.00    +0.185 A 
ATOM      7  C   UNL     1     -34.945  24.038   5.682  0.00  0.00    +0.040 C 
ATOM      8  C   UNL     1     -33.296  26.465   6.484  0.00  0.00    +0.006 C 
ATOM      9  C   UNL     1     -35.563  23.713   2.992  0.00  0.00    +0.046 C 
ATOM     10  C   UNL     1     -32.512  28.207   4.456  0.00  0.00    +0.203 C 
ATOM     11  C   UNL     1     -34.358  25.780   2.379  0.00  0.00    +0.346 A 
ATOM     12  C   UNL     1     -35.700  22.938   5.263  0.00  0.00    +0.167 C 
ATOM     13  C   UNL     1     -36.009  22.776   3.920  0.00  0.00    +0.168 C 
ATOM     14  C   UNL     1     -32.144  28.474   5.768  0.00  0.00    +0.171 C 
ATOM     15  C   UNL     1     -32.534  27.603   6.781  0.00  0.00    +0.040 C 
ENDROOT
BRANCH  10  16
ATOM     16  O   UNL     1     -32.135  29.051   3.454  0.00  0.00    -0.501 OA
ATOM     17  H   UNL     1     -32.228  29.976   3.562  0.00  0.00    +0.292 HD
ENDBRANCH  10  16
BRANCH  12  18
ATOM     18  O   UNL     1     -36.129  22.031   6.187  0.00  0.00    -0.503 OA
ATOM     19  H   UNL     1     -35.616  21.269   6.367  0.00  0.00    +0.292 HD
ENDBRANCH  12  18
BRANCH  13  20
ATOM     20  O   UNL     1     -36.743  21.709   3.498  0.00  0.00    -0.503 OA
ATOM     21  H   UNL     1     -37.562  21.847   3.064  0.00  0.00    +0.292 HD
ENDBRANCH  13  20
BRANCH  14  22
ATOM     22  O   UNL     1     -31.403  29.573   6.077  0.00  0.00    -0.503 OA
ATOM     23  H   UNL     1     -31.237  30.224   5.423  0.00  0.00    +0.292 HD
ENDBRANCH  14  22
TORSDOF 4
ENDMDL
MODEL 5
REMARK VINA RESULT:      -6.2      2.639      3.173
REMARK  Name = 5482042
REMARK  4 active torsions:
REMARK  status: ('A' for Active; 'I' for Inactive)
REMARK    1  A    between atoms: C_10  and  O_16
REMARK    2  A    between atoms: C_12  and  O_18
REMARK    3  A    between atoms: C_13  and  O_20
REMARK    4  A    between atoms: C_14  and  O_22
REMARK                            x       y       z     vdW  Elec       q    Type
REMARK                         _______ _______ _______ _____ _____    ______ ____
ROOT
ATOM      1  O   UNL     1     -34.882  24.205   5.708  0.00  0.00    -0.418 OA
ATOM      2  O   UNL     1     -35.837  22.234   6.341  0.00  0.00    -0.244 OA
ATOM      3  C   UNL     1     -34.951  23.374   3.006  0.00  0.00    +0.012 A 
ATOM      4  C   UNL     1     -34.401  24.688   3.362  0.00  0.00    +0.038 A 
ATOM      5  C   UNL     1     -35.443  22.534   4.020  0.00  0.00    +0.079 A 
ATOM      6  C   UNL     1     -34.382  25.066   4.707  0.00  0.00    +0.185 A 
ATOM      7  C   UNL     1     -35.017  22.897   1.683  0.00  0.00    +0.040 C 
ATOM      8  C   UNL     1     -33.881  25.615   2.442  0.00  0.00    +0.006 C 
ATOM      9  C   UNL     1     -35.977  21.270   3.722  0.00  0.00    +0.046 C 
ATOM     10  C   UNL     1     -33.880  26.293   5.144  0.00  0.00    +0.203 C 
ATOM     11  C   UNL     1     -35.415  22.951   5.443  0.00  0.00    +0.346 A 
ATOM     12  C   UNL     1     -35.549  21.638   1.386  0.00  0.00    +0.167 C 
ATOM     13  C   UNL     1     -36.028  20.826   2.404  0.00  0.00    +0.168 C 
ATOM     14  C   UNL     1     -33.372  27.190   4.213  0.00  0.00    +0.171 C 
ATOM     15  C   UNL     1     -33.373  26.851   2.863  0.00  0.00    +0.040 C 
ENDROOT
BRANCH  10  16
ATOM     16  O   UNL     1     -33.887  26.613   6.469  0.00  0.00    -0.501 OA
ATOM     17  H   UNL     1     -34.638  27.025   6.847  0.00  0.00    +0.292 HD
ENDBRANCH  10  16
BRANCH  12  18
ATOM     18  O   UNL     1     -35.590  21.220   0.089  0.00  0.00    -0.503 OA
ATOM     19  H   UNL     1     -36.400  21.229  -0.380  0.00  0.00    +0.292 HD
ENDBRANCH  12  18
BRANCH  13  20
ATOM     20  O   UNL     1     -36.549  19.599   2.128  0.00  0.00    -0.503 OA
ATOM     21  H   UNL     1     -35.987  18.902   1.850  0.00  0.00    +0.292 HD
ENDBRANCH  13  20
BRANCH  14  22
ATOM     22  O   UNL     1     -32.876  28.396   4.602  0.00  0.00    -0.503 OA
ATOM     23  H   UNL     1     -32.076  28.715   4.231  0.00  0.00    +0.292 HD
ENDBRANCH  14  22
TORSDOF 4
ENDMDL
MODEL 6
REMARK VINA RESULT:      -6.2      3.143      5.447
REMARK  Name = 5482042
REMARK  4 active torsions:
REMARK  status: ('A' for Active; 'I' for Inactive)
REMARK    1  A    between atoms: C_10  and  O_16
REMARK    2  A    between atoms: C_12  and  O_18
REMARK    3  A    between atoms: C_13  and  O_20
REMARK    4  A    between atoms: C_14  and  O_22
REMARK                            x       y       z     vdW  Elec       q    Type
REMARK                         _______ _______ _______ _____ _____    ______ ____
ROOT
ATOM      1  O   UNL     1     -35.749  22.880   1.847  0.00  0.00    -0.418 OA
ATOM      2  O   UNL     1     -35.956  23.913  -0.174  0.00  0.00    -0.244 OA
ATOM      3  C   UNL     1     -35.365  25.390   3.093  0.00  0.00    +0.012 A 
ATOM      4  C   UNL     1     -35.350  24.157   3.892  0.00  0.00    +0.038 A 
ATOM      5  C   UNL     1     -35.572  25.310   1.705  0.00  0.00    +0.079 A 
ATOM      6  C   UNL     1     -35.543  22.935   3.243  0.00  0.00    +0.185 A 
ATOM      7  C   UNL     1     -35.181  26.671   3.647  0.00  0.00    +0.040 C 
ATOM      8  C   UNL     1     -35.153  24.106   5.282  0.00  0.00    +0.006 C 
ATOM      9  C   UNL     1     -35.594  26.465   0.906  0.00  0.00    +0.046 C 
ATOM     10  C   UNL     1     -35.546  21.711   3.914  0.00  0.00    +0.203 C 
ATOM     11  C   UNL     1     -35.775  24.004   1.033  0.00  0.00    +0.346 A 
ATOM     12  C   UNL     1     -35.202  27.821   2.851  0.00  0.00    +0.167 C 
ATOM     13  C   UNL     1     -35.408  27.718   1.483  0.00  0.00    +0.168 C 
ATOM     14  C   UNL     1     -35.348  21.690   5.289  0.00  0.00    +0.171 C 
ATOM     15  C   UNL     1     -35.153  22.887   5.972  0.00  0.00    +0.040 C 
ENDROOT
BRANCH  10  16
ATOM     16  O   UNL     1     -35.740  20.547   3.233  0.00  0.00    -0.501 OA
ATOM     17  H   UNL     1     -35.645  20.528   2.302  0.00  0.00    +0.292 HD
ENDBRANCH  10  16
BRANCH  12  18
ATOM     18  O   UNL     1     -35.018  29.039   3.434  0.00  0.00    -0.503 OA
ATOM     19  H   UNL     1     -34.234  29.524   3.267  0.00  0.00    +0.292 HD
ENDBRANCH  12  18
BRANCH  13  20
ATOM     20  O   UNL     1     -35.433  28.829   0.696  0.00  0.00    -0.503 OA
ATOM     21  H   UNL     1     -36.171  29.406   0.723  0.00  0.00    +0.292 HD
ENDBRANCH  13  20
BRANCH  14  22
ATOM     22  O   UNL     1     -35.346  20.516   5.977  0.00  0.00    -0.503 OA
ATOM     23  H   UNL     1     -34.641  20.318   6.563  0.00  0.00    +0.292 HD
ENDBRANCH  14  22
TORSDOF 4
ENDMDL
MODEL 7
REMARK VINA RESULT:      -6.1      1.377      2.217
REMARK  Name = 5482042
REMARK  4 active torsions:
REMARK  status: ('A' for Active; 'I' for Inactive)
REMARK    1  A    between atoms: C_10  and  O_16
REMARK    2  A    between atoms: C_12  and  O_18
REMARK    3  A    between atoms: C_13  and  O_20
REMARK    4  A    between atoms: C_14  and  O_22
REMARK                            x       y       z     vdW  Elec       q    Type
REMARK                         _______ _______ _______ _____ _____    ______ ____
ROOT
ATOM      1  O   UNL     1     -38.361  23.563   2.382  0.00  0.00    -0.418 OA
ATOM      2  O   UNL     1     -39.361  22.114   0.935  0.00  0.00    -0.244 OA
ATOM      3  C   UNL     1     -36.086  21.887   2.493  0.00  0.00    +0.012 A 
ATOM      4  C   UNL     1     -36.125  23.132   3.270  0.00  0.00    +0.038 A 
ATOM      5  C   UNL     1     -37.188  21.536   1.694  0.00  0.00    +0.079 A 
ATOM      6  C   UNL     1     -37.265  23.936   3.191  0.00  0.00    +0.185 A 
ATOM      7  C   UNL     1     -34.987  21.006   2.501  0.00  0.00    +0.040 C 
ATOM      8  C   UNL     1     -35.090  23.590   4.102  0.00  0.00    +0.006 C 
ATOM      9  C   UNL     1     -37.190  20.354   0.936  0.00  0.00    +0.046 C 
ATOM     10  C   UNL     1     -37.398  25.137   3.892  0.00  0.00    +0.203 C 
ATOM     11  C   UNL     1     -38.390  22.402   1.623  0.00  0.00    +0.346 A 
ATOM     12  C   UNL     1     -34.989  19.829   1.746  0.00  0.00    +0.167 C 
ATOM     13  C   UNL     1     -36.089  19.504   0.965  0.00  0.00    +0.168 C 
ATOM     14  C   UNL     1     -36.359  25.565   4.708  0.00  0.00    +0.171 C 
ATOM     15  C   UNL     1     -35.205  24.792   4.813  0.00  0.00    +0.040 C 
ENDROOT
BRANCH  10  16
ATOM     16  O   UNL     1     -38.532  25.884   3.779  0.00  0.00    -0.501 OA
ATOM     17  H   UNL     1     -38.680  26.600   4.364  0.00  0.00    +0.292 HD
ENDBRANCH  10  16
BRANCH  12  18
ATOM     18  O   UNL     1     -33.902  19.008   1.787  0.00  0.00    -0.503 OA
ATOM     19  H   UNL     1     -33.170  19.227   2.329  0.00  0.00    +0.292 HD
ENDBRANCH  12  18
BRANCH  13  20
ATOM     20  O   UNL     1     -36.103  18.361   0.224  0.00  0.00    -0.503 OA
ATOM     21  H   UNL     1     -35.483  18.244  -0.469  0.00  0.00    +0.292 HD
ENDBRANCH  13  20
BRANCH  14  22
ATOM     22  O   UNL     1     -36.451  26.730   5.404  0.00  0.00    -0.503 OA
ATOM     23  H   UNL     1     -35.851  27.429   5.229  0.00  0.00    +0.292 HD
ENDBRANCH  14  22
TORSDOF 4
ENDMDL
MODEL 8
REMARK VINA RESULT:      -6.0      1.787      4.346
REMARK  Name = 5482042
REMARK  4 active torsions:
REMARK  status: ('A' for Active; 'I' for Inactive)
REMARK    1  A    between atoms: C_10  and  O_16
REMARK    2  A    between atoms: C_12  and  O_18
REMARK    3  A    between atoms: C_13  and  O_20
REMARK    4  A    between atoms: C_14  and  O_22
REMARK                            x       y       z     vdW  Elec       q    Type
REMARK                         _______ _______ _______ _____ _____    ______ ____
ROOT
ATOM      1  O   UNL     1     -37.793  24.815   3.811  0.00  0.00    -0.418 OA
ATOM      2  O   UNL     1     -35.814  24.197   4.758  0.00  0.00    -0.244 OA
ATOM      3  C   UNL     1     -37.826  22.420   2.308  0.00  0.00    +0.012 A 
ATOM      4  C   UNL     1     -38.919  23.392   2.175  0.00  0.00    +0.038 A 
ATOM      5  C   UNL     1     -36.764  22.691   3.189  0.00  0.00    +0.079 A 
ATOM      6  C   UNL     1     -38.870  24.564   2.933  0.00  0.00    +0.185 A 
ATOM      7  C   UNL     1     -37.778  21.209   1.592  0.00  0.00    +0.040 C 
ATOM      8  C   UNL     1     -40.031  23.236   1.331  0.00  0.00    +0.006 C 
ATOM      9  C   UNL     1     -35.701  21.788   3.345  0.00  0.00    +0.046 C 
ATOM     10  C   UNL     1     -39.860  25.548   2.875  0.00  0.00    +0.203 C 
ATOM     11  C   UNL     1     -36.729  23.941   3.986  0.00  0.00    +0.346 A 
ATOM     12  C   UNL     1     -36.718  20.309   1.747  0.00  0.00    +0.167 C 
ATOM     13  C   UNL     1     -35.681  20.599   2.623  0.00  0.00    +0.168 C 
ATOM     14  C   UNL     1     -40.948  25.367   2.031  0.00  0.00    +0.171 C 
ATOM     15  C   UNL     1     -41.034  24.212   1.260  0.00  0.00    +0.040 C 
ENDROOT
BRANCH  10  16
ATOM     16  O   UNL     1     -39.764  26.674   3.637  0.00  0.00    -0.501 OA
ATOM     17  H   UNL     1     -40.416  27.342   3.568  0.00  0.00    +0.292 HD
ENDBRANCH  10  16
BRANCH  12  18
ATOM     18  O   UNL     1     -36.716  19.150   1.030  0.00  0.00    -0.503 OA
ATOM     19  H   UNL     1     -36.889  19.169   0.110  0.00  0.00    +0.292 HD
ENDBRANCH  12  18
BRANCH  13  20
ATOM     20  O   UNL     1     -34.644  19.732   2.785  0.00  0.00    -0.503 OA
ATOM     21  H   UNL     1     -34.519  19.299   3.607  0.00  0.00    +0.292 HD
ENDBRANCH  13  20
BRANCH  14  22
ATOM     22  O   UNL     1     -41.933  26.303   1.951  0.00  0.00    -0.503 OA
ATOM     23  H   UNL     1     -41.740  27.202   2.133  0.00  0.00    +0.292 HD
ENDBRANCH  14  22
TORSDOF 4
ENDMDL
MODEL 9
REMARK VINA RESULT:      -6.0      1.255      5.566
REMARK  Name = 5482042
REMARK  4 active torsions:
REMARK  status: ('A' for Active; 'I' for Inactive)
REMARK    1  A    between atoms: C_10  and  O_16
REMARK    2  A    between atoms: C_12  and  O_18
REMARK    3  A    between atoms: C_13  and  O_20
REMARK    4  A    between atoms: C_14  and  O_22
REMARK                            x       y       z     vdW  Elec       q    Type
REMARK                         _______ _______ _______ _____ _____    ______ ____
ROOT
ATOM      1  O   UNL     1     -38.317  22.137   1.880  0.00  0.00    -0.418 OA
ATOM      2  O   UNL     1     -39.547  23.923   2.585  0.00  0.00    -0.244 OA
ATOM      3  C   UNL     1     -36.066  23.135   3.271  0.00  0.00    +0.012 A 
ATOM      4  C   UNL     1     -35.972  21.880   2.513  0.00  0.00    +0.038 A 
ATOM      5  C   UNL     1     -37.285  23.834   3.298  0.00  0.00    +0.079 A 
ATOM      6  C   UNL     1     -37.103  21.418   1.838  0.00  0.00    +0.185 A 
ATOM      7  C   UNL     1     -34.987  23.688   3.986  0.00  0.00    +0.040 C 
ATOM      8  C   UNL     1     -34.813  21.092   2.411  0.00  0.00    +0.006 C 
ATOM      9  C   UNL     1     -37.417  25.037   4.011  0.00  0.00    +0.046 C 
ATOM     10  C   UNL     1     -37.113  20.237   1.092  0.00  0.00    +0.203 C 
ATOM     11  C   UNL     1     -38.476  23.328   2.575  0.00  0.00    +0.346 A 
ATOM     12  C   UNL     1     -35.119  24.886   4.696  0.00  0.00    +0.167 C 
ATOM     13  C   UNL     1     -36.332  25.559   4.708  0.00  0.00    +0.168 C 
ATOM     14  C   UNL     1     -35.953  19.478   1.006  0.00  0.00    +0.171 C 
ATOM     15  C   UNL     1     -34.804  19.905   1.666  0.00  0.00    +0.040 C 
ENDROOT
BRANCH  10  16
ATOM     16  O   UNL     1     -38.246  19.830   0.452  0.00  0.00    -0.501 OA
ATOM     17  H   UNL     1     -38.667  19.034   0.708  0.00  0.00    +0.292 HD
ENDBRANCH  10  16
BRANCH  12  18
ATOM     18  O   UNL     1     -34.044  25.383   5.372  0.00  0.00    -0.503 OA
ATOM     19  H   UNL     1     -33.399  25.888   4.918  0.00  0.00    +0.292 HD
ENDBRANCH  12  18
BRANCH  13  20
ATOM     20  O   UNL     1     -36.474  26.726   5.396  0.00  0.00    -0.503 OA
ATOM     21  H   UNL     1     -36.001  26.860   6.194  0.00  0.00    +0.292 HD
ENDBRANCH  13  20
BRANCH  14  22
ATOM     22  O   UNL     1     -35.925  18.322   0.290  0.00  0.00    -0.503 OA
ATOM     23  H   UNL     1     -36.425  17.582   0.576  0.00  0.00    +0.292 HD
ENDBRANCH  14  22
TORSDOF 4
ENDMDL
