MODEL 1
REMARK VINA RESULT:      -6.0      0.000      0.000
REMARK  Name = 21579676
REMARK  12 active torsions:
REMARK  status: ('A' for Active; 'I' for Inactive)
REMARK    1  A    between atoms: C_1  and  C_15
REMARK    2  A    between atoms: C_2  and  C_5
REMARK    3  A    between atoms: C_8  and  C_12
REMARK    4  A    between atoms: C_15  and  C_16
REMARK    5  A    between atoms: C_16  and  C_17
REMARK    6  A    between atoms: C_17  and  C_18
REMARK    7  A    between atoms: C_18  and  C_19
REMARK    8  A    between atoms: C_19  and  C_20
REMARK    9  A    between atoms: C_20  and  C_21
REMARK   10  A    between atoms: C_21  and  C_22
REMARK   11  A    between atoms: C_22  and  C_24
REMARK   12  A    between atoms: C_24  and  O_25
REMARK                            x       y       z     vdW  Elec       q    Type
REMARK                         _______ _______ _______ _____ _____    ______ ____
ROOT
ATOM      1  C   UNL     1     -35.216  28.445   2.504  0.00  0.00    -0.023 C 
ATOM      2  C   UNL     1     -34.537  27.688   3.376  0.00  0.00    +0.033 C 
ENDROOT
BRANCH   2   5
ATOM      3  O   UNL     1     -33.957  25.594   4.304  0.00  0.00    -0.450 OA
ATOM      4  O   UNL     1     -37.767  24.228   4.134  0.00  0.00    -0.286 OA
ATOM      5  C   UNL     1     -34.973  26.389   3.804  0.00  0.00    +0.148 C 
ATOM      6  C   UNL     1     -36.251  25.992   3.724  0.00  0.00    +0.080 C 
ATOM      7  C   UNL     1     -36.611  24.633   4.190  0.00  0.00    +0.206 C 
ATOM      8  C   UNL     1     -35.506  23.801   4.720  0.00  0.00    +0.130 C 
ATOM      9  C   UNL     1     -34.278  24.328   4.741  0.00  0.00    +0.187 C 
BRANCH   8  12
ATOM     10  O   UNL     1     -35.888  22.207   6.412  0.00  0.00    -0.270 OA
ATOM     11  N   UNL     1     -35.592  21.477   4.241  0.00  0.00    -0.325 N 
ATOM     12  C   UNL     1     -35.681  22.439   5.221  0.00  0.00    +0.249 C 
ATOM     13  H   UNL     1     -35.696  20.526   4.476  0.00  0.00    +0.145 HD
ATOM     14  H   UNL     1     -35.425  21.738   3.307  0.00  0.00    +0.145 HD
ENDBRANCH   8  12
ENDBRANCH   2   5
BRANCH   1  15
ATOM     15  C   UNL     1     -34.763  29.804   2.052  0.00  0.00    +0.026 C 
BRANCH  15  16
ATOM     16  C   UNL     1     -35.678  30.930   2.545  0.00  0.00    +0.005 C 
BRANCH  16  17
ATOM     17  C   UNL     1     -36.639  31.433   1.463  0.00  0.00    +0.000 C 
BRANCH  17  18
ATOM     18  C   UNL     1     -37.620  32.495   1.968  0.00  0.00    +0.000 C 
BRANCH  18  19
ATOM     19  C   UNL     1     -37.947  33.623   0.983  0.00  0.00    +0.000 C 
BRANCH  19  20
ATOM     20  C   UNL     1     -37.347  34.974   1.380  0.00  0.00    +0.001 C 
BRANCH  20  21
ATOM     21  C   UNL     1     -38.445  35.997   1.690  0.00  0.00    +0.012 C 
BRANCH  21  22
ATOM     22  C   UNL     1     -39.289  35.598   2.900  0.00  0.00    +0.109 C 
BRANCH  22  24
ATOM     23  O   UNL     1     -41.312  35.679   1.537  0.00  0.00    -0.250 OA
ATOM     24  C   UNL     1     -40.775  35.669   2.635  0.00  0.00    +0.314 C 
BRANCH  24  25
ATOM     25  O   UNL     1     -41.454  35.754   3.807  0.00  0.00    -0.480 OA
ATOM     26  H   UNL     1     -41.074  36.200   4.538  0.00  0.00    +0.295 HD
ENDBRANCH  24  25
ENDBRANCH  22  24
ENDBRANCH  21  22
ENDBRANCH  20  21
ENDBRANCH  19  20
ENDBRANCH  18  19
ENDBRANCH  17  18
ENDBRANCH  16  17
ENDBRANCH  15  16
ENDBRANCH   1  15
TORSDOF 12
ENDMDL
MODEL 2
REMARK VINA RESULT:      -5.9      5.593      7.844
REMARK  Name = 21579676
REMARK  12 active torsions:
REMARK  status: ('A' for Active; 'I' for Inactive)
REMARK    1  A    between atoms: C_1  and  C_15
REMARK    2  A    between atoms: C_2  and  C_5
REMARK    3  A    between atoms: C_8  and  C_12
REMARK    4  A    between atoms: C_15  and  C_16
REMARK    5  A    between atoms: C_16  and  C_17
REMARK    6  A    between atoms: C_17  and  C_18
REMARK    7  A    between atoms: C_18  and  C_19
REMARK    8  A    between atoms: C_19  and  C_20
REMARK    9  A    between atoms: C_20  and  C_21
REMARK   10  A    between atoms: C_21  and  C_22
REMARK   11  A    between atoms: C_22  and  C_24
REMARK   12  A    between atoms: C_24  and  O_25
REMARK                            x       y       z     vdW  Elec       q    Type
REMARK                         _______ _______ _______ _____ _____    ______ ____
ROOT
ATOM      1  C   UNL     1     -32.105  28.085   2.992  0.00  0.00    -0.023 C 
ATOM      2  C   UNL     1     -32.959  27.834   3.994  0.00  0.00    +0.033 C 
ENDROOT
BRANCH   2   5
ATOM      3  O   UNL     1     -34.271  26.432   5.371  0.00  0.00    -0.450 OA
ATOM      4  O   UNL     1     -34.631  23.597   2.500  0.00  0.00    -0.286 OA
ATOM      5  C   UNL     1     -33.678  26.600   4.131  0.00  0.00    +0.148 C 
ATOM      6  C   UNL     1     -33.764  25.697   3.143  0.00  0.00    +0.080 C 
ATOM      7  C   UNL     1     -34.528  24.450   3.375  0.00  0.00    +0.206 C 
ATOM      8  C   UNL     1     -35.151  24.294   4.709  0.00  0.00    +0.130 C 
ATOM      9  C   UNL     1     -34.984  25.277   5.599  0.00  0.00    +0.187 C 
BRANCH   8  12
ATOM     10  O   UNL     1     -35.870  22.654   6.240  0.00  0.00    -0.270 OA
ATOM     11  N   UNL     1     -36.741  22.638   4.102  0.00  0.00    -0.325 N 
ATOM     12  C   UNL     1     -35.939  23.128   5.107  0.00  0.00    +0.249 C 
ATOM     13  H   UNL     1     -37.312  21.852   4.268  0.00  0.00    +0.145 HD
ATOM     14  H   UNL     1     -36.744  23.071   3.219  0.00  0.00    +0.145 HD
ENDBRANCH   8  12
ENDBRANCH   2   5
BRANCH   1  15
ATOM     15  C   UNL     1     -31.350  29.374   2.844  0.00  0.00    +0.026 C 
BRANCH  15  16
ATOM     16  C   UNL     1     -32.273  30.591   2.707  0.00  0.00    +0.005 C 
BRANCH  16  17
ATOM     17  C   UNL     1     -31.946  31.702   3.710  0.00  0.00    +0.000 C 
BRANCH  17  18
ATOM     18  C   UNL     1     -31.142  31.211   4.918  0.00  0.00    +0.000 C 
BRANCH  18  19
ATOM     19  C   UNL     1     -31.966  30.687   6.099  0.00  0.00    +0.000 C 
BRANCH  19  20
ATOM     20  C   UNL     1     -31.339  29.475   6.792  0.00  0.00    +0.001 C 
BRANCH  20  21
ATOM     21  C   UNL     1     -29.810  29.506   6.687  0.00  0.00    +0.012 C 
BRANCH  21  22
ATOM     22  C   UNL     1     -29.240  28.209   6.113  0.00  0.00    +0.109 C 
BRANCH  22  24
ATOM     23  O   UNL     1     -28.044  26.283   7.014  0.00  0.00    -0.250 OA
ATOM     24  C   UNL     1     -28.374  27.456   7.095  0.00  0.00    +0.314 C 
BRANCH  24  25
ATOM     25  O   UNL     1     -28.026  28.267   8.127  0.00  0.00    -0.480 OA
ATOM     26  H   UNL     1     -27.130  28.510   8.252  0.00  0.00    +0.295 HD
ENDBRANCH  24  25
ENDBRANCH  22  24
ENDBRANCH  21  22
ENDBRANCH  20  21
ENDBRANCH  19  20
ENDBRANCH  18  19
ENDBRANCH  17  18
ENDBRANCH  16  17
ENDBRANCH  15  16
ENDBRANCH   1  15
TORSDOF 12
ENDMDL
MODEL 3
REMARK VINA RESULT:      -5.9      3.732      5.432
REMARK  Name = 21579676
REMARK  12 active torsions:
REMARK  status: ('A' for Active; 'I' for Inactive)
REMARK    1  A    between atoms: C_1  and  C_15
REMARK    2  A    between atoms: C_2  and  C_5
REMARK    3  A    between atoms: C_8  and  C_12
REMARK    4  A    between atoms: C_15  and  C_16
REMARK    5  A    between atoms: C_16  and  C_17
REMARK    6  A    between atoms: C_17  and  C_18
REMARK    7  A    between atoms: C_18  and  C_19
REMARK    8  A    between atoms: C_19  and  C_20
REMARK    9  A    between atoms: C_20  and  C_21
REMARK   10  A    between atoms: C_21  and  C_22
REMARK   11  A    between atoms: C_22  and  C_24
REMARK   12  A    between atoms: C_24  and  O_25
REMARK                            x       y       z     vdW  Elec       q    Type
REMARK                         _______ _______ _______ _____ _____    ______ ____
ROOT
ATOM      1  C   UNL     1     -32.560  27.667   5.400  0.00  0.00    -0.023 C 
ATOM      2  C   UNL     1     -33.259  26.730   6.056  0.00  0.00    +0.033 C 
ENDROOT
BRANCH   2   5
ATOM      3  O   UNL     1     -35.125  26.822   4.610  0.00  0.00    -0.450 OA
ATOM      4  O   UNL     1     -36.216  23.008   5.435  0.00  0.00    -0.286 OA
ATOM      5  C   UNL     1     -34.392  26.050   5.496  0.00  0.00    +0.148 C 
ATOM      6  C   UNL     1     -34.704  24.784   5.806  0.00  0.00    +0.080 C 
ATOM      7  C   UNL     1     -35.893  24.163   5.178  0.00  0.00    +0.206 C 
ATOM      8  C   UNL     1     -36.661  25.009   4.236  0.00  0.00    +0.130 C 
ATOM      9  C   UNL     1     -36.233  26.256   4.020  0.00  0.00    +0.187 C 
BRANCH   8  12
ATOM     10  O   UNL     1     -38.811  25.307   3.320  0.00  0.00    -0.270 OA
ATOM     11  N   UNL     1     -37.800  23.240   3.136  0.00  0.00    -0.325 N 
ATOM     12  C   UNL     1     -37.858  24.557   3.529  0.00  0.00    +0.249 C 
ATOM     13  H   UNL     1     -38.558  22.837   2.652  0.00  0.00    +0.145 HD
ATOM     14  H   UNL     1     -37.003  22.699   3.339  0.00  0.00    +0.145 HD
ENDBRANCH   8  12
ENDBRANCH   2   5
BRANCH   1  15
ATOM     15  C   UNL     1     -31.373  28.380   5.982  0.00  0.00    +0.026 C 
BRANCH  15  16
ATOM     16  C   UNL     1     -31.769  29.571   6.863  0.00  0.00    +0.005 C 
BRANCH  16  17
ATOM     17  C   UNL     1     -32.028  30.847   6.055  0.00  0.00    +0.000 C 
BRANCH  17  18
ATOM     18  C   UNL     1     -30.874  31.219   5.120  0.00  0.00    +0.000 C 
BRANCH  18  19
ATOM     19  C   UNL     1     -31.276  31.670   3.712  0.00  0.00    +0.000 C 
BRANCH  19  20
ATOM     20  C   UNL     1     -31.363  30.523   2.703  0.00  0.00    +0.001 C 
BRANCH  20  21
ATOM     21  C   UNL     1     -32.814  30.080   2.491  0.00  0.00    +0.012 C 
BRANCH  21  22
ATOM     22  C   UNL     1     -33.802  31.239   2.620  0.00  0.00    +0.109 C 
BRANCH  22  24
ATOM     23  O   UNL     1     -36.236  31.394   2.552  0.00  0.00    -0.250 OA
ATOM     24  C   UNL     1     -35.222  30.783   2.857  0.00  0.00    +0.314 C 
BRANCH  24  25
ATOM     25  O   UNL     1     -35.227  29.586   3.498  0.00  0.00    -0.480 OA
ATOM     26  H   UNL     1     -34.549  29.379   4.110  0.00  0.00    +0.295 HD
ENDBRANCH  24  25
ENDBRANCH  22  24
ENDBRANCH  21  22
ENDBRANCH  20  21
ENDBRANCH  19  20
ENDBRANCH  18  19
ENDBRANCH  17  18
ENDBRANCH  16  17
ENDBRANCH  15  16
ENDBRANCH   1  15
TORSDOF 12
ENDMDL
MODEL 4
REMARK VINA RESULT:      -5.9      6.205      8.294
REMARK  Name = 21579676
REMARK  12 active torsions:
REMARK  status: ('A' for Active; 'I' for Inactive)
REMARK    1  A    between atoms: C_1  and  C_15
REMARK    2  A    between atoms: C_2  and  C_5
REMARK    3  A    between atoms: C_8  and  C_12
REMARK    4  A    between atoms: C_15  and  C_16
REMARK    5  A    between atoms: C_16  and  C_17
REMARK    6  A    between atoms: C_17  and  C_18
REMARK    7  A    between atoms: C_18  and  C_19
REMARK    8  A    between atoms: C_19  and  C_20
REMARK    9  A    between atoms: C_20  and  C_21
REMARK   10  A    between atoms: C_21  and  C_22
REMARK   11  A    between atoms: C_22  and  C_24
REMARK   12  A    between atoms: C_24  and  O_25
REMARK                            x       y       z     vdW  Elec       q    Type
REMARK                         _______ _______ _______ _____ _____    ______ ____
ROOT
ATOM      1  C   UNL     1     -34.629  24.249   5.353  0.00  0.00    -0.023 C 
ATOM      2  C   UNL     1     -34.693  25.513   5.793  0.00  0.00    +0.033 C 
ENDROOT
BRANCH   2   5
ATOM      3  O   UNL     1     -33.095  27.054   6.604  0.00  0.00    -0.450 OA
ATOM      4  O   UNL     1     -32.068  28.269   2.878  0.00  0.00    -0.286 OA
ATOM      5  C   UNL     1     -33.705  26.509   5.487  0.00  0.00    +0.148 C 
ATOM      6  C   UNL     1     -33.406  26.871   4.231  0.00  0.00    +0.080 C 
ATOM      7  C   UNL     1     -32.372  27.907   4.009  0.00  0.00    +0.206 C 
ATOM      8  C   UNL     1     -31.735  28.476   5.220  0.00  0.00    +0.130 C 
ATOM      9  C   UNL     1     -32.133  28.019   6.412  0.00  0.00    +0.187 C 
BRANCH   8  12
ATOM     10  O   UNL     1     -30.883  30.629   5.653  0.00  0.00    -0.270 OA
ATOM     11  N   UNL     1     -29.530  29.089   4.590  0.00  0.00    -0.325 N 
ATOM     12  C   UNL     1     -30.698  29.506   5.186  0.00  0.00    +0.249 C 
ATOM     13  H   UNL     1     -28.768  29.709   4.516  0.00  0.00    +0.145 HD
ATOM     14  H   UNL     1     -29.455  28.173   4.238  0.00  0.00    +0.145 HD
ENDBRANCH   8  12
ENDBRANCH   2   5
BRANCH   1  15
ATOM     15  C   UNL     1     -35.661  23.205   5.670  0.00  0.00    +0.026 C 
BRANCH  15  16
ATOM     16  C   UNL     1     -35.239  21.799   5.225  0.00  0.00    +0.005 C 
BRANCH  16  17
ATOM     17  C   UNL     1     -35.398  21.581   3.717  0.00  0.00    +0.000 C 
BRANCH  17  18
ATOM     18  C   UNL     1     -36.600  22.319   3.119  0.00  0.00    +0.000 C 
BRANCH  18  19
ATOM     19  C   UNL     1     -36.367  22.978   1.756  0.00  0.00    +0.000 C 
BRANCH  19  20
ATOM     20  C   UNL     1     -35.476  24.221   1.822  0.00  0.00    +0.001 C 
BRANCH  20  21
ATOM     21  C   UNL     1     -36.294  25.501   1.620  0.00  0.00    +0.012 C 
BRANCH  21  22
ATOM     22  C   UNL     1     -36.874  26.033   2.930  0.00  0.00    +0.109 C 
BRANCH  22  24
ATOM     23  O   UNL     1     -39.206  26.456   2.346  0.00  0.00    -0.250 OA
ATOM     24  C   UNL     1     -38.373  25.871   3.023  0.00  0.00    +0.314 C 
BRANCH  24  25
ATOM     25  O   UNL     1     -38.687  24.989   4.006  0.00  0.00    -0.480 OA
ATOM     26  H   UNL     1     -39.584  24.827   4.223  0.00  0.00    +0.295 HD
ENDBRANCH  24  25
ENDBRANCH  22  24
ENDBRANCH  21  22
ENDBRANCH  20  21
ENDBRANCH  19  20
ENDBRANCH  18  19
ENDBRANCH  17  18
ENDBRANCH  16  17
ENDBRANCH  15  16
ENDBRANCH   1  15
TORSDOF 12
ENDMDL
MODEL 5
REMARK VINA RESULT:      -5.8      6.312      9.738
REMARK  Name = 21579676
REMARK  12 active torsions:
REMARK  status: ('A' for Active; 'I' for Inactive)
REMARK    1  A    between atoms: C_1  and  C_15
REMARK    2  A    between atoms: C_2  and  C_5
REMARK    3  A    between atoms: C_8  and  C_12
REMARK    4  A    between atoms: C_15  and  C_16
REMARK    5  A    between atoms: C_16  and  C_17
REMARK    6  A    between atoms: C_17  and  C_18
REMARK    7  A    between atoms: C_18  and  C_19
REMARK    8  A    between atoms: C_19  and  C_20
REMARK    9  A    between atoms: C_20  and  C_21
REMARK   10  A    between atoms: C_21  and  C_22
REMARK   11  A    between atoms: C_22  and  C_24
REMARK   12  A    between atoms: C_24  and  O_25
REMARK                            x       y       z     vdW  Elec       q    Type
REMARK                         _______ _______ _______ _____ _____    ______ ____
ROOT
ATOM      1  C   UNL     1     -35.020  20.250   2.185  0.00  0.00    -0.023 C 
ATOM      2  C   UNL     1     -35.028  19.587   1.021  0.00  0.00    +0.033 C 
ENDROOT
BRANCH   2   5
ATOM      3  O   UNL     1     -34.574  17.619  -0.206  0.00  0.00    -0.450 OA
ATOM      4  O   UNL     1     -30.814  17.314   1.270  0.00  0.00    -0.286 OA
ATOM      5  C   UNL     1     -34.088  18.553   0.693  0.00  0.00    +0.148 C 
ATOM      6  C   UNL     1     -32.854  18.503   1.213  0.00  0.00    +0.080 C 
ATOM      7  C   UNL     1     -31.950  17.398   0.817  0.00  0.00    +0.206 C 
ATOM      8  C   UNL     1     -32.495  16.412  -0.144  0.00  0.00    +0.130 C 
ATOM      9  C   UNL     1     -33.745  16.586  -0.582  0.00  0.00    +0.187 C 
BRANCH   8  12
ATOM     10  O   UNL     1     -31.489  15.119  -1.837  0.00  0.00    -0.270 OA
ATOM     11  N   UNL     1     -31.364  14.383   0.348  0.00  0.00    -0.325 N 
ATOM     12  C   UNL     1     -31.743  15.261  -0.641  0.00  0.00    +0.249 C 
ATOM     13  H   UNL     1     -30.853  13.573   0.117  0.00  0.00    +0.145 HD
ATOM     14  H   UNL     1     -31.604  14.563   1.285  0.00  0.00    +0.145 HD
ENDBRANCH   8  12
ENDBRANCH   2   5
BRANCH   1  15
ATOM     15  C   UNL     1     -36.002  21.332   2.533  0.00  0.00    +0.026 C 
BRANCH  15  16
ATOM     16  C   UNL     1     -35.422  22.373   3.498  0.00  0.00    +0.005 C 
BRANCH  16  17
ATOM     17  C   UNL     1     -35.425  21.900   4.955  0.00  0.00    +0.000 C 
BRANCH  17  18
ATOM     18  C   UNL     1     -35.167  23.028   5.959  0.00  0.00    +0.000 C 
BRANCH  18  19
ATOM     19  C   UNL     1     -34.755  24.375   5.358  0.00  0.00    +0.000 C 
BRANCH  19  20
ATOM     20  C   UNL     1     -35.746  25.504   5.650  0.00  0.00    +0.001 C 
BRANCH  20  21
ATOM     21  C   UNL     1     -35.949  26.396   4.422  0.00  0.00    +0.012 C 
BRANCH  21  22
ATOM     22  C   UNL     1     -36.550  25.634   3.241  0.00  0.00    +0.109 C 
BRANCH  22  24
ATOM     23  O   UNL     1     -38.662  26.564   2.448  0.00  0.00    -0.250 OA
ATOM     24  C   UNL     1     -38.052  25.771   3.150  0.00  0.00    +0.314 C 
BRANCH  24  25
ATOM     25  O   UNL     1     -38.652  24.896   3.996  0.00  0.00    -0.480 OA
ATOM     26  H   UNL     1     -38.217  24.101   4.235  0.00  0.00    +0.295 HD
ENDBRANCH  24  25
ENDBRANCH  22  24
ENDBRANCH  21  22
ENDBRANCH  20  21
ENDBRANCH  19  20
ENDBRANCH  18  19
ENDBRANCH  17  18
ENDBRANCH  16  17
ENDBRANCH  15  16
ENDBRANCH   1  15
TORSDOF 12
ENDMDL
MODEL 6
REMARK VINA RESULT:      -5.8      6.541      8.332
REMARK  Name = 21579676
REMARK  12 active torsions:
REMARK  status: ('A' for Active; 'I' for Inactive)
REMARK    1  A    between atoms: C_1  and  C_15
REMARK    2  A    between atoms: C_2  and  C_5
REMARK    3  A    between atoms: C_8  and  C_12
REMARK    4  A    between atoms: C_15  and  C_16
REMARK    5  A    between atoms: C_16  and  C_17
REMARK    6  A    between atoms: C_17  and  C_18
REMARK    7  A    between atoms: C_18  and  C_19
REMARK    8  A    between atoms: C_19  and  C_20
REMARK    9  A    between atoms: C_20  and  C_21
REMARK   10  A    between atoms: C_21  and  C_22
REMARK   11  A    between atoms: C_22  and  C_24
REMARK   12  A    between atoms: C_24  and  O_25
REMARK                            x       y       z     vdW  Elec       q    Type
REMARK                         _______ _______ _______ _____ _____    ______ ____
ROOT
ATOM      1  C   UNL     1     -33.287  26.425   4.387  0.00  0.00    -0.023 C 
ATOM      2  C   UNL     1     -34.130  25.625   5.054  0.00  0.00    +0.033 C 
ENDROOT
BRANCH   2   5
ATOM      3  O   UNL     1     -34.704  24.282   3.196  0.00  0.00    -0.450 OA
ATOM      4  O   UNL     1     -35.417  21.029   5.503  0.00  0.00    -0.286 OA
ATOM      5  C   UNL     1     -34.550  24.340   4.571  0.00  0.00    +0.148 C 
ATOM      6  C   UNL     1     -34.771  23.297   5.384  0.00  0.00    +0.080 C 
ATOM      7  C   UNL     1     -35.203  22.008   4.797  0.00  0.00    +0.206 C 
ATOM      8  C   UNL     1     -35.361  21.972   3.325  0.00  0.00    +0.130 C 
ATOM      9  C   UNL     1     -35.105  23.089   2.638  0.00  0.00    +0.187 C 
BRANCH   8  12
ATOM     10  O   UNL     1     -34.965  20.038   2.039  0.00  0.00    -0.270 OA
ATOM     11  N   UNL     1     -37.143  20.603   2.556  0.00  0.00    -0.325 N 
ATOM     12  C   UNL     1     -35.779  20.784   2.581  0.00  0.00    +0.249 C 
ATOM     13  H   UNL     1     -37.528  19.831   2.080  0.00  0.00    +0.145 HD
ATOM     14  H   UNL     1     -37.734  21.243   3.014  0.00  0.00    +0.145 HD
ENDBRANCH   8  12
ENDBRANCH   2   5
BRANCH   1  15
ATOM     15  C   UNL     1     -32.843  27.769   4.888  0.00  0.00    +0.026 C 
BRANCH  15  16
ATOM     16  C   UNL     1     -32.408  27.742   6.358  0.00  0.00    +0.005 C 
BRANCH  16  17
ATOM     17  C   UNL     1     -31.776  29.060   6.816  0.00  0.00    +0.000 C 
BRANCH  17  18
ATOM     18  C   UNL     1     -31.932  30.194   5.797  0.00  0.00    +0.000 C 
BRANCH  18  19
ATOM     19  C   UNL     1     -30.636  30.684   5.142  0.00  0.00    +0.000 C 
BRANCH  19  20
ATOM     20  C   UNL     1     -29.370  30.179   5.839  0.00  0.00    +0.001 C 
BRANCH  20  21
ATOM     21  C   UNL     1     -28.723  29.035   5.052  0.00  0.00    +0.012 C 
BRANCH  21  22
ATOM     22  C   UNL     1     -27.584  28.369   5.824  0.00  0.00    +0.109 C 
BRANCH  22  24
ATOM     23  O   UNL     1     -27.525  28.328   8.263  0.00  0.00    -0.250 OA
ATOM     24  C   UNL     1     -27.989  27.921   7.208  0.00  0.00    +0.314 C 
BRANCH  24  25
ATOM     25  O   UNL     1     -28.941  26.956   7.126  0.00  0.00    -0.480 OA
ATOM     26  H   UNL     1     -28.818  26.137   7.564  0.00  0.00    +0.295 HD
ENDBRANCH  24  25
ENDBRANCH  22  24
ENDBRANCH  21  22
ENDBRANCH  20  21
ENDBRANCH  19  20
ENDBRANCH  18  19
ENDBRANCH  17  18
ENDBRANCH  16  17
ENDBRANCH  15  16
ENDBRANCH   1  15
TORSDOF 12
ENDMDL
MODEL 7
REMARK VINA RESULT:      -5.8      6.679      9.952
REMARK  Name = 21579676
REMARK  12 active torsions:
REMARK  status: ('A' for Active; 'I' for Inactive)
REMARK    1  A    between atoms: C_1  and  C_15
REMARK    2  A    between atoms: C_2  and  C_5
REMARK    3  A    between atoms: C_8  and  C_12
REMARK    4  A    between atoms: C_15  and  C_16
REMARK    5  A    between atoms: C_16  and  C_17
REMARK    6  A    between atoms: C_17  and  C_18
REMARK    7  A    between atoms: C_18  and  C_19
REMARK    8  A    between atoms: C_19  and  C_20
REMARK    9  A    between atoms: C_20  and  C_21
REMARK   10  A    between atoms: C_21  and  C_22
REMARK   11  A    between atoms: C_22  and  C_24
REMARK   12  A    between atoms: C_24  and  O_25
REMARK                            x       y       z     vdW  Elec       q    Type
REMARK                         _______ _______ _______ _____ _____    ______ ____
ROOT
ATOM      1  C   UNL     1     -34.537  20.176   1.719  0.00  0.00    -0.023 C 
ATOM      2  C   UNL     1     -33.909  19.045   1.371  0.00  0.00    +0.033 C 
ENDROOT
BRANCH   2   5
ATOM      3  O   UNL     1     -31.866  17.859   1.327  0.00  0.00    -0.450 OA
ATOM      4  O   UNL     1     -30.009  20.724  -0.855  0.00  0.00    -0.286 OA
ATOM      5  C   UNL     1     -32.542  19.002   0.934  0.00  0.00    +0.148 C 
ATOM      6  C   UNL     1     -31.981  19.981   0.212  0.00  0.00    +0.080 C 
ATOM      7  C   UNL     1     -30.563  19.851  -0.195  0.00  0.00    +0.206 C 
ATOM      8  C   UNL     1     -29.861  18.621   0.238  0.00  0.00    +0.130 C 
ATOM      9  C   UNL     1     -30.547  17.726   0.955  0.00  0.00    +0.187 C 
BRANCH   8  12
ATOM     10  O   UNL     1     -28.126  17.287  -0.634  0.00  0.00    -0.270 OA
ATOM     11  N   UNL     1     -27.593  19.323   0.316  0.00  0.00    -0.325 N 
ATOM     12  C   UNL     1     -28.462  18.330  -0.075  0.00  0.00    +0.249 C 
ATOM     13  H   UNL     1     -26.627  19.224   0.151  0.00  0.00    +0.145 HD
ATOM     14  H   UNL     1     -27.937  20.132   0.759  0.00  0.00    +0.145 HD
ENDBRANCH   8  12
ENDBRANCH   2   5
BRANCH   1  15
ATOM     15  C   UNL     1     -35.967  20.227   2.178  0.00  0.00    +0.026 C 
BRANCH  15  16
ATOM     16  C   UNL     1     -36.453  21.655   2.452  0.00  0.00    +0.005 C 
BRANCH  16  17
ATOM     17  C   UNL     1     -35.470  22.464   3.304  0.00  0.00    +0.000 C 
BRANCH  17  18
ATOM     18  C   UNL     1     -35.529  22.115   4.794  0.00  0.00    +0.000 C 
BRANCH  18  19
ATOM     19  C   UNL     1     -34.908  23.144   5.745  0.00  0.00    +0.000 C 
BRANCH  19  20
ATOM     20  C   UNL     1     -34.140  24.255   5.026  0.00  0.00    +0.001 C 
BRANCH  20  21
ATOM     21  C   UNL     1     -34.582  25.639   5.513  0.00  0.00    +0.012 C 
BRANCH  21  22
ATOM     22  C   UNL     1     -36.103  25.778   5.573  0.00  0.00    +0.109 C 
BRANCH  22  24
ATOM     23  O   UNL     1     -36.372  26.264   3.197  0.00  0.00    -0.250 OA
ATOM     24  C   UNL     1     -36.759  25.708   4.214  0.00  0.00    +0.314 C 
BRANCH  24  25
ATOM     25  O   UNL     1     -37.884  24.951   4.278  0.00  0.00    -0.480 OA
ATOM     26  H   UNL     1     -38.619  25.157   3.734  0.00  0.00    +0.295 HD
ENDBRANCH  24  25
ENDBRANCH  22  24
ENDBRANCH  21  22
ENDBRANCH  20  21
ENDBRANCH  19  20
ENDBRANCH  18  19
ENDBRANCH  17  18
ENDBRANCH  16  17
ENDBRANCH  15  16
ENDBRANCH   1  15
TORSDOF 12
ENDMDL
MODEL 8
REMARK VINA RESULT:      -5.8      5.989      8.414
REMARK  Name = 21579676
REMARK  12 active torsions:
REMARK  status: ('A' for Active; 'I' for Inactive)
REMARK    1  A    between atoms: C_1  and  C_15
REMARK    2  A    between atoms: C_2  and  C_5
REMARK    3  A    between atoms: C_8  and  C_12
REMARK    4  A    between atoms: C_15  and  C_16
REMARK    5  A    between atoms: C_16  and  C_17
REMARK    6  A    between atoms: C_17  and  C_18
REMARK    7  A    between atoms: C_18  and  C_19
REMARK    8  A    between atoms: C_19  and  C_20
REMARK    9  A    between atoms: C_20  and  C_21
REMARK   10  A    between atoms: C_21  and  C_22
REMARK   11  A    between atoms: C_22  and  C_24
REMARK   12  A    between atoms: C_24  and  O_25
REMARK                            x       y       z     vdW  Elec       q    Type
REMARK                         _______ _______ _______ _____ _____    ______ ____
ROOT
ATOM      1  C   UNL     1     -35.381  20.635   1.396  0.00  0.00    -0.023 C 
ATOM      2  C   UNL     1     -35.553  20.875   2.703  0.00  0.00    +0.033 C 
ENDROOT
BRANCH   2   5
ATOM      3  O   UNL     1     -35.403  22.184   4.665  0.00  0.00    -0.450 OA
ATOM      4  O   UNL     1     -35.422  25.666   2.594  0.00  0.00    -0.286 OA
ATOM      5  C   UNL     1     -35.482  22.186   3.282  0.00  0.00    +0.148 C 
ATOM      6  C   UNL     1     -35.492  23.306   2.545  0.00  0.00    +0.080 C 
ATOM      7  C   UNL     1     -35.415  24.617   3.229  0.00  0.00    +0.206 C 
ATOM      8  C   UNL     1     -35.332  24.588   4.707  0.00  0.00    +0.130 C 
ATOM      9  C   UNL     1     -35.331  23.397   5.313  0.00  0.00    +0.187 C 
BRANCH   8  12
ATOM     10  O   UNL     1     -34.259  26.032   6.228  0.00  0.00    -0.270 OA
ATOM     11  N   UNL     1     -36.370  26.582   5.472  0.00  0.00    -0.325 N 
ATOM     12  C   UNL     1     -35.249  25.786   5.541  0.00  0.00    +0.249 C 
ATOM     13  H   UNL     1     -36.416  27.414   5.998  0.00  0.00    +0.145 HD
ATOM     14  H   UNL     1     -37.126  26.320   4.899  0.00  0.00    +0.145 HD
ENDBRANCH   8  12
ENDBRANCH   2   5
BRANCH   1  15
ATOM     15  C   UNL     1     -35.455  19.264   0.785  0.00  0.00    +0.026 C 
BRANCH  15  16
ATOM     16  C   UNL     1     -36.795  18.996   0.089  0.00  0.00    +0.005 C 
BRANCH  16  17
ATOM     17  C   UNL     1     -37.435  20.266  -0.480  0.00  0.00    +0.000 C 
BRANCH  17  18
ATOM     18  C   UNL     1     -38.825  20.555   0.095  0.00  0.00    +0.000 C 
BRANCH  18  19
ATOM     19  C   UNL     1     -39.074  21.998   0.545  0.00  0.00    +0.000 C 
BRANCH  19  20
ATOM     20  C   UNL     1     -39.358  22.130   2.043  0.00  0.00    +0.001 C 
BRANCH  20  21
ATOM     21  C   UNL     1     -38.882  23.484   2.581  0.00  0.00    +0.012 C 
BRANCH  21  22
ATOM     22  C   UNL     1     -39.785  24.635   2.140  0.00  0.00    +0.109 C 
BRANCH  22  24
ATOM     23  O   UNL     1     -39.207  26.940   1.584  0.00  0.00    -0.250 OA
ATOM     24  C   UNL     1     -39.162  25.994   2.356  0.00  0.00    +0.314 C 
BRANCH  24  25
ATOM     25  O   UNL     1     -38.498  26.019   3.540  0.00  0.00    -0.480 OA
ATOM     26  H   UNL     1     -37.561  26.015   3.553  0.00  0.00    +0.295 HD
ENDBRANCH  24  25
ENDBRANCH  22  24
ENDBRANCH  21  22
ENDBRANCH  20  21
ENDBRANCH  19  20
ENDBRANCH  18  19
ENDBRANCH  17  18
ENDBRANCH  16  17
ENDBRANCH  15  16
ENDBRANCH   1  15
TORSDOF 12
ENDMDL
MODEL 9
REMARK VINA RESULT:      -5.7      6.053      8.180
REMARK  Name = 21579676
REMARK  12 active torsions:
REMARK  status: ('A' for Active; 'I' for Inactive)
REMARK    1  A    between atoms: C_1  and  C_15
REMARK    2  A    between atoms: C_2  and  C_5
REMARK    3  A    between atoms: C_8  and  C_12
REMARK    4  A    between atoms: C_15  and  C_16
REMARK    5  A    between atoms: C_16  and  C_17
REMARK    6  A    between atoms: C_17  and  C_18
REMARK    7  A    between atoms: C_18  and  C_19
REMARK    8  A    between atoms: C_19  and  C_20
REMARK    9  A    between atoms: C_20  and  C_21
REMARK   10  A    between atoms: C_21  and  C_22
REMARK   11  A    between atoms: C_22  and  C_24
REMARK   12  A    between atoms: C_24  and  O_25
REMARK                            x       y       z     vdW  Elec       q    Type
REMARK                         _______ _______ _______ _____ _____    ______ ____
ROOT
ATOM      1  C   UNL     1     -32.624  27.717   5.866  0.00  0.00    -0.023 C 
ATOM      2  C   UNL     1     -33.390  26.726   6.344  0.00  0.00    +0.033 C 
ENDROOT
BRANCH   2   5
ATOM      3  O   UNL     1     -33.491  25.052   4.680  0.00  0.00    -0.450 OA
ATOM      4  O   UNL     1     -37.542  25.024   4.658  0.00  0.00    -0.286 OA
ATOM      5  C   UNL     1     -34.210  25.891   5.515  0.00  0.00    +0.148 C 
ATOM      6  C   UNL     1     -35.550  25.924   5.551  0.00  0.00    +0.080 C 
ATOM      7  C   UNL     1     -36.316  25.025   4.658  0.00  0.00    +0.206 C 
ATOM      8  C   UNL     1     -35.524  24.138   3.775  0.00  0.00    +0.130 C 
ATOM      9  C   UNL     1     -34.191  24.211   3.845  0.00  0.00    +0.187 C 
BRANCH   8  12
ATOM     10  O   UNL     1     -35.732  23.108   1.667  0.00  0.00    -0.270 OA
ATOM     11  N   UNL     1     -37.118  22.423   3.382  0.00  0.00    -0.325 N 
ATOM     12  C   UNL     1     -36.115  23.190   2.833  0.00  0.00    +0.249 C 
ATOM     13  H   UNL     1     -37.583  21.753   2.829  0.00  0.00    +0.145 HD
ATOM     14  H   UNL     1     -37.371  22.545   4.325  0.00  0.00    +0.145 HD
ENDBRANCH   8  12
ENDBRANCH   2   5
BRANCH   1  15
ATOM     15  C   UNL     1     -31.763  28.593   6.730  0.00  0.00    +0.026 C 
BRANCH  15  16
ATOM     16  C   UNL     1     -31.837  30.073   6.335  0.00  0.00    +0.005 C 
BRANCH  16  17
ATOM     17  C   UNL     1     -31.992  30.278   4.825  0.00  0.00    +0.000 C 
BRANCH  17  18
ATOM     18  C   UNL     1     -30.729  30.831   4.155  0.00  0.00    +0.000 C 
BRANCH  18  19
ATOM     19  C   UNL     1     -29.584  31.209   5.101  0.00  0.00    +0.000 C 
BRANCH  19  20
ATOM     20  C   UNL     1     -28.323  30.367   4.900  0.00  0.00    +0.001 C 
BRANCH  20  21
ATOM     21  C   UNL     1     -28.372  29.086   5.740  0.00  0.00    +0.012 C 
BRANCH  21  22
ATOM     22  C   UNL     1     -27.289  29.055   6.818  0.00  0.00    +0.109 C 
BRANCH  22  24
ATOM     23  O   UNL     1     -27.140  31.052   8.213  0.00  0.00    -0.250 OA
ATOM     24  C   UNL     1     -27.604  29.942   8.000  0.00  0.00    +0.314 C 
BRANCH  24  25
ATOM     25  O   UNL     1     -28.472  29.315   8.835  0.00  0.00    -0.480 OA
ATOM     26  H   UNL     1     -28.204  29.085   9.703  0.00  0.00    +0.295 HD
ENDBRANCH  24  25
ENDBRANCH  22  24
ENDBRANCH  21  22
ENDBRANCH  20  21
ENDBRANCH  19  20
ENDBRANCH  18  19
ENDBRANCH  17  18
ENDBRANCH  16  17
ENDBRANCH  15  16
ENDBRANCH   1  15
TORSDOF 12
ENDMDL
