MODEL 1
REMARK VINA RESULT:      -4.6      0.000      0.000
REMARK  Name = 5353831
REMARK  10 active torsions:
REMARK  status: ('A' for Active; 'I' for Inactive)
REMARK    1  A    between atoms: S_1  and  C_2
REMARK    2  A    between atoms: S_1  and  C_14
REMARK    3  A    between atoms: C_2  and  C_3
REMARK    4  A    between atoms: C_3  and  N_4
REMARK    5  A    between atoms: N_4  and  C_6
REMARK    6  A    between atoms: C_6  and  N_11
REMARK    7  A    between atoms: C_7  and  N_10
REMARK    8  A    between atoms: C_14  and  C_18
REMARK    9  A    between atoms: C_17  and  C_20
REMARK   10  A    between atoms: C_20  and  N_21
REMARK                            x       y       z     vdW  Elec       q    Type
REMARK                         _______ _______ _______ _____ _____    ______ ____
ROOT
ATOM      1  S   UNL     1     -37.336  24.849   0.975  0.00  0.00    -0.131 S 
ENDROOT
BRANCH   1   2
ATOM      2  C   UNL     1     -37.079  25.800   2.504  0.00  0.00    +0.079 C 
BRANCH   2   3
ATOM      3  C   UNL     1     -37.824  25.202   3.691  0.00  0.00    +0.100 C 
BRANCH   3   4
ATOM      4  N   UNL     1     -36.985  25.144   4.865  0.00  0.00    -0.319 N 
ATOM      5  H   UNL     1     -37.197  25.775   5.591  0.00  0.00    +0.148 HD
BRANCH   4   6
ATOM      6  C   UNL     1     -35.906  24.284   5.076  0.00  0.00    +0.118 C 
ATOM      7  C   UNL     1     -34.668  24.737   5.368  0.00  0.00    +0.194 C 
BRANCH   7  10
ATOM      8  O   UNL     1     -33.845  26.535   6.492  0.00  0.00    -0.126 OA
ATOM      9  O   UNL     1     -34.786  26.847   4.526  0.00  0.00    -0.126 OA
ATOM     10  N   UNL     1     -34.417  26.132   5.468  0.00  0.00    +0.062 N 
ENDBRANCH   7  10
BRANCH   6  11
ATOM     11  N   UNL     1     -36.100  22.901   4.986  0.00  0.00    -0.319 N 
ATOM     12  C   UNL     1     -35.283  21.842   5.531  0.00  0.00    +0.109 C 
ATOM     13  H   UNL     1     -36.896  22.612   4.485  0.00  0.00    +0.148 HD
ENDBRANCH   6  11
ENDBRANCH   4   6
ENDBRANCH   3   4
ENDBRANCH   2   3
ENDBRANCH   1   2
BRANCH   1  14
ATOM     14  C   UNL     1     -38.257  23.465   1.682  0.00  0.00    +0.113 C 
BRANCH  14  18
ATOM     15  S   UNL     1     -36.972  19.854   0.542  0.00  0.00    -0.082 S 
ATOM     16  N   UNL     1     -36.380  21.894   2.016  0.00  0.00    -0.409 NA
ATOM     17  C   UNL     1     -35.963  20.707   1.638  0.00  0.00    +0.113 C 
ATOM     18  C   UNL     1     -37.588  22.160   1.399  0.00  0.00    +0.109 C 
ATOM     19  C   UNL     1     -38.068  21.173   0.564  0.00  0.00    +0.119 C 
BRANCH  17  20
ATOM     20  C   UNL     1     -34.702  20.079   2.092  0.00  0.00    -0.010 C 
BRANCH  20  21
ATOM     21  N   UNL     1     -33.905  19.569   0.969  0.00  0.00    +0.389 N 
ATOM     22  C   UNL     1     -33.015  18.505   1.424  0.00  0.00    -0.100 C 
ATOM     23  C   UNL     1     -33.144  20.655   0.357  0.00  0.00    -0.100 C 
ATOM     24  H   UNL     1     -34.535  19.182   0.265  0.00  0.00    -0.079 HD
ENDBRANCH  20  21
ENDBRANCH  17  20
ENDBRANCH  14  18
ENDBRANCH   1  14
TORSDOF 10
ENDMDL
MODEL 2
REMARK VINA RESULT:      -4.4      1.944      2.336
REMARK  Name = 5353831
REMARK  10 active torsions:
REMARK  status: ('A' for Active; 'I' for Inactive)
REMARK    1  A    between atoms: S_1  and  C_2
REMARK    2  A    between atoms: S_1  and  C_14
REMARK    3  A    between atoms: C_2  and  C_3
REMARK    4  A    between atoms: C_3  and  N_4
REMARK    5  A    between atoms: N_4  and  C_6
REMARK    6  A    between atoms: C_6  and  N_11
REMARK    7  A    between atoms: C_7  and  N_10
REMARK    8  A    between atoms: C_14  and  C_18
REMARK    9  A    between atoms: C_17  and  C_20
REMARK   10  A    between atoms: C_20  and  N_21
REMARK                            x       y       z     vdW  Elec       q    Type
REMARK                         _______ _______ _______ _____ _____    ______ ____
ROOT
ATOM      1  S   UNL     1     -37.993  23.105   1.226  0.00  0.00    -0.131 S 
ENDROOT
BRANCH   1   2
ATOM      2  C   UNL     1     -38.602  23.786   2.800  0.00  0.00    +0.079 C 
BRANCH   2   3
ATOM      3  C   UNL     1     -37.656  24.827   3.386  0.00  0.00    +0.100 C 
BRANCH   3   4
ATOM      4  N   UNL     1     -36.331  24.286   3.577  0.00  0.00    -0.319 N 
ATOM      5  H   UNL     1     -35.767  24.204   2.774  0.00  0.00    +0.148 HD
BRANCH   4   6
ATOM      6  C   UNL     1     -35.769  23.867   4.785  0.00  0.00    +0.118 C 
ATOM      7  C   UNL     1     -34.832  24.590   5.435  0.00  0.00    +0.194 C 
BRANCH   7  10
ATOM      8  O   UNL     1     -33.230  25.848   4.424  0.00  0.00    -0.126 OA
ATOM      9  O   UNL     1     -35.152  26.787   4.944  0.00  0.00    -0.126 OA
ATOM     10  N   UNL     1     -34.375  25.823   4.899  0.00  0.00    +0.062 N 
ENDBRANCH   7  10
BRANCH   6  11
ATOM     11  N   UNL     1     -36.184  22.657   5.354  0.00  0.00    -0.319 N 
ATOM     12  C   UNL     1     -35.429  21.749   6.184  0.00  0.00    +0.109 C 
ATOM     13  H   UNL     1     -37.112  22.390   5.162  0.00  0.00    +0.148 HD
ENDBRANCH   6  11
ENDBRANCH   4   6
ENDBRANCH   3   4
ENDBRANCH   2   3
ENDBRANCH   1   2
BRANCH   1  14
ATOM     14  C   UNL     1     -38.112  21.351   1.640  0.00  0.00    +0.113 C 
BRANCH  14  18
ATOM     15  S   UNL     1     -34.415  19.833   1.488  0.00  0.00    -0.082 S 
ATOM     16  N   UNL     1     -36.768  19.670   0.428  0.00  0.00    -0.409 NA
ATOM     17  C   UNL     1     -35.551  19.175   0.382  0.00  0.00    +0.113 C 
ATOM     18  C   UNL     1     -36.817  20.644   1.407  0.00  0.00    +0.109 C 
ATOM     19  C   UNL     1     -35.641  20.872   2.088  0.00  0.00    +0.119 C 
BRANCH  17  20
ATOM     20  C   UNL     1     -35.116  18.108  -0.545  0.00  0.00    -0.010 C 
BRANCH  20  21
ATOM     21  N   UNL     1     -35.004  16.806   0.126  0.00  0.00    +0.389 N 
ATOM     22  C   UNL     1     -33.666  16.253  -0.066  0.00  0.00    -0.100 C 
ATOM     23  C   UNL     1     -36.021  15.889  -0.381  0.00  0.00    -0.100 C 
ATOM     24  H   UNL     1     -35.158  16.935   1.126  0.00  0.00    -0.079 HD
ENDBRANCH  20  21
ENDBRANCH  17  20
ENDBRANCH  14  18
ENDBRANCH   1  14
TORSDOF 10
ENDMDL
MODEL 3
REMARK VINA RESULT:      -4.4      4.760      7.853
REMARK  Name = 5353831
REMARK  10 active torsions:
REMARK  status: ('A' for Active; 'I' for Inactive)
REMARK    1  A    between atoms: S_1  and  C_2
REMARK    2  A    between atoms: S_1  and  C_14
REMARK    3  A    between atoms: C_2  and  C_3
REMARK    4  A    between atoms: C_3  and  N_4
REMARK    5  A    between atoms: N_4  and  C_6
REMARK    6  A    between atoms: C_6  and  N_11
REMARK    7  A    between atoms: C_7  and  N_10
REMARK    8  A    between atoms: C_14  and  C_18
REMARK    9  A    between atoms: C_17  and  C_20
REMARK   10  A    between atoms: C_20  and  N_21
REMARK                            x       y       z     vdW  Elec       q    Type
REMARK                         _______ _______ _______ _____ _____    ______ ____
ROOT
ATOM      1  S   UNL     1     -34.415  25.852   5.482  0.00  0.00    -0.131 S 
ENDROOT
BRANCH   1   2
ATOM      2  C   UNL     1     -34.436  24.115   4.942  0.00  0.00    +0.079 C 
BRANCH   2   3
ATOM      3  C   UNL     1     -35.520  23.304   5.642  0.00  0.00    +0.100 C 
BRANCH   3   4
ATOM      4  N   UNL     1     -36.242  22.473   4.708  0.00  0.00    -0.319 N 
ATOM      5  H   UNL     1     -36.329  21.520   4.939  0.00  0.00    +0.148 HD
BRANCH   4   6
ATOM      6  C   UNL     1     -36.830  22.884   3.510  0.00  0.00    +0.118 C 
ATOM      7  C   UNL     1     -36.471  22.368   2.315  0.00  0.00    +0.194 C 
BRANCH   7  10
ATOM      8  O   UNL     1     -34.527  21.571   1.443  0.00  0.00    -0.126 OA
ATOM      9  O   UNL     1     -35.584  20.376   2.961  0.00  0.00    -0.126 OA
ATOM     10  N   UNL     1     -35.461  21.372   2.234  0.00  0.00    +0.062 N 
ENDBRANCH   7  10
BRANCH   6  11
ATOM     11  N   UNL     1     -37.828  23.864   3.534  0.00  0.00    -0.319 N 
ATOM     12  C   UNL     1     -37.684  25.297   3.423  0.00  0.00    +0.109 C 
ATOM     13  H   UNL     1     -38.749  23.535   3.642  0.00  0.00    +0.148 HD
ENDBRANCH   6  11
ENDBRANCH   4   6
ENDBRANCH   3   4
ENDBRANCH   2   3
ENDBRANCH   1   2
BRANCH   1  14
ATOM     14  C   UNL     1     -33.662  26.573   4.007  0.00  0.00    +0.113 C 
BRANCH  14  18
ATOM     15  S   UNL     1     -31.724  30.047   4.414  0.00  0.00    -0.082 S 
ATOM     16  N   UNL     1     -31.954  27.672   5.412  0.00  0.00    -0.409 NA
ATOM     17  C   UNL     1     -31.320  28.817   5.541  0.00  0.00    +0.113 C 
ATOM     18  C   UNL     1     -32.827  27.765   4.345  0.00  0.00    +0.109 C 
ATOM     19  C   UNL     1     -32.843  28.974   3.683  0.00  0.00    +0.119 C 
BRANCH  17  20
ATOM     20  C   UNL     1     -30.302  29.097   6.578  0.00  0.00    -0.010 C 
BRANCH  20  21
ATOM     21  N   UNL     1     -28.945  28.773   6.119  0.00  0.00    +0.389 N 
ATOM     22  C   UNL     1     -28.424  27.625   6.856  0.00  0.00    -0.100 C 
ATOM     23  C   UNL     1     -28.069  29.931   6.279  0.00  0.00    -0.100 C 
ATOM     24  H   UNL     1     -28.979  28.530   5.129  0.00  0.00    -0.079 HD
ENDBRANCH  20  21
ENDBRANCH  17  20
ENDBRANCH  14  18
ENDBRANCH   1  14
TORSDOF 10
ENDMDL
MODEL 4
REMARK VINA RESULT:      -4.4      3.889      6.995
REMARK  Name = 5353831
REMARK  10 active torsions:
REMARK  status: ('A' for Active; 'I' for Inactive)
REMARK    1  A    between atoms: S_1  and  C_2
REMARK    2  A    between atoms: S_1  and  C_14
REMARK    3  A    between atoms: C_2  and  C_3
REMARK    4  A    between atoms: C_3  and  N_4
REMARK    5  A    between atoms: N_4  and  C_6
REMARK    6  A    between atoms: C_6  and  N_11
REMARK    7  A    between atoms: C_7  and  N_10
REMARK    8  A    between atoms: C_14  and  C_18
REMARK    9  A    between atoms: C_17  and  C_20
REMARK   10  A    between atoms: C_20  and  N_21
REMARK                            x       y       z     vdW  Elec       q    Type
REMARK                         _______ _______ _______ _____ _____    ______ ____
ROOT
ATOM      1  S   UNL     1     -35.418  25.923   1.651  0.00  0.00    -0.131 S 
ENDROOT
BRANCH   1   2
ATOM      2  C   UNL     1     -36.714  24.837   2.323  0.00  0.00    +0.079 C 
BRANCH   2   3
ATOM      3  C   UNL     1     -37.447  25.469   3.500  0.00  0.00    +0.100 C 
BRANCH   3   4
ATOM      4  N   UNL     1     -37.021  24.896   4.755  0.00  0.00    -0.319 N 
ATOM      5  H   UNL     1     -37.704  24.416   5.277  0.00  0.00    +0.148 HD
BRANCH   4   6
ATOM      6  C   UNL     1     -35.738  24.954   5.304  0.00  0.00    +0.118 C 
ATOM      7  C   UNL     1     -35.053  23.845   5.659  0.00  0.00    +0.194 C 
BRANCH   7  10
ATOM      8  O   UNL     1     -36.021  21.968   6.504  0.00  0.00    -0.126 OA
ATOM      9  O   UNL     1     -35.698  22.114   4.331  0.00  0.00    -0.126 OA
ATOM     10  N   UNL     1     -35.628  22.558   5.486  0.00  0.00    +0.062 N 
ENDBRANCH   7  10
BRANCH   6  11
ATOM     11  N   UNL     1     -35.128  26.198   5.496  0.00  0.00    -0.319 N 
ATOM     12  C   UNL     1     -33.752  26.482   5.832  0.00  0.00    +0.109 C 
ATOM     13  H   UNL     1     -35.712  26.983   5.390  0.00  0.00    +0.148 HD
ENDBRANCH   6  11
ENDBRANCH   4   6
ENDBRANCH   3   4
ENDBRANCH   2   3
ENDBRANCH   1   2
BRANCH   1  14
ATOM     14  C   UNL     1     -36.087  27.504   2.216  0.00  0.00    +0.113 C 
BRANCH  14  18
ATOM     15  S   UNL     1     -33.539  30.442   1.285  0.00  0.00    -0.082 S 
ATOM     16  N   UNL     1     -34.403  28.990   3.243  0.00  0.00    -0.409 NA
ATOM     17  C   UNL     1     -33.567  29.955   2.931  0.00  0.00    +0.113 C 
ATOM     18  C   UNL     1     -35.077  28.598   2.102  0.00  0.00    +0.109 C 
ATOM     19  C   UNL     1     -34.744  29.270   0.945  0.00  0.00    +0.119 C 
BRANCH  17  20
ATOM     20  C   UNL     1     -32.671  30.630   3.896  0.00  0.00    -0.010 C 
BRANCH  20  21
ATOM     21  N   UNL     1     -32.293  29.748   5.007  0.00  0.00    +0.389 N 
ATOM     22  C   UNL     1     -32.014  30.535   6.204  0.00  0.00    -0.100 C 
ATOM     23  C   UNL     1     -31.133  28.941   4.636  0.00  0.00    -0.100 C 
ATOM     24  H   UNL     1     -33.070  29.118   5.209  0.00  0.00    -0.079 HD
ENDBRANCH  20  21
ENDBRANCH  17  20
ENDBRANCH  14  18
ENDBRANCH   1  14
TORSDOF 10
ENDMDL
MODEL 5
REMARK VINA RESULT:      -4.3      5.639      7.405
REMARK  Name = 5353831
REMARK  10 active torsions:
REMARK  status: ('A' for Active; 'I' for Inactive)
REMARK    1  A    between atoms: S_1  and  C_2
REMARK    2  A    between atoms: S_1  and  C_14
REMARK    3  A    between atoms: C_2  and  C_3
REMARK    4  A    between atoms: C_3  and  N_4
REMARK    5  A    between atoms: N_4  and  C_6
REMARK    6  A    between atoms: C_6  and  N_11
REMARK    7  A    between atoms: C_7  and  N_10
REMARK    8  A    between atoms: C_14  and  C_18
REMARK    9  A    between atoms: C_17  and  C_20
REMARK   10  A    between atoms: C_20  and  N_21
REMARK                            x       y       z     vdW  Elec       q    Type
REMARK                         _______ _______ _______ _____ _____    ______ ____
ROOT
ATOM      1  S   UNL     1     -41.263  26.363   3.495  0.00  0.00    -0.131 S 
ENDROOT
BRANCH   1   2
ATOM      2  C   UNL     1     -42.559  26.603   2.241  0.00  0.00    +0.079 C 
BRANCH   2   3
ATOM      3  C   UNL     1     -43.954  26.326   2.789  0.00  0.00    +0.100 C 
BRANCH   3   4
ATOM      4  N   UNL     1     -44.046  26.664   4.191  0.00  0.00    -0.319 N 
ATOM      5  H   UNL     1     -43.409  26.219   4.795  0.00  0.00    +0.148 HD
BRANCH   4   6
ATOM      6  C   UNL     1     -44.947  27.557   4.774  0.00  0.00    +0.118 C 
ATOM      7  C   UNL     1     -44.689  28.878   4.879  0.00  0.00    +0.194 C 
BRANCH   7  10
ATOM      8  O   UNL     1     -43.483  29.949   3.275  0.00  0.00    -0.126 OA
ATOM      9  O   UNL     1     -42.468  29.307   5.121  0.00  0.00    -0.126 OA
ATOM     10  N   UNL     1     -43.466  29.413   4.394  0.00  0.00    +0.062 N 
ENDBRANCH   7  10
BRANCH   6  11
ATOM     11  N   UNL     1     -46.165  27.079   5.271  0.00  0.00    -0.319 N 
ATOM     12  C   UNL     1     -46.666  25.725   5.270  0.00  0.00    +0.109 C 
ATOM     13  H   UNL     1     -46.758  27.755   5.671  0.00  0.00    +0.148 HD
ENDBRANCH   6  11
ENDBRANCH   4   6
ENDBRANCH   3   4
ENDBRANCH   2   3
ENDBRANCH   1   2
BRANCH   1  14
ATOM     14  C   UNL     1     -40.251  25.167   2.595  0.00  0.00    +0.113 C 
BRANCH  14  18
ATOM     15  S   UNL     1     -36.370  26.065   2.943  0.00  0.00    -0.082 S 
ATOM     16  N   UNL     1     -38.246  24.571   3.909  0.00  0.00    -0.409 NA
ATOM     17  C   UNL     1     -36.971  24.870   4.019  0.00  0.00    +0.113 C 
ATOM     18  C   UNL     1     -38.799  25.338   2.901  0.00  0.00    +0.109 C 
ATOM     19  C   UNL     1     -37.938  26.206   2.264  0.00  0.00    +0.119 C 
BRANCH  17  20
ATOM     20  C   UNL     1     -36.047  24.250   4.995  0.00  0.00    -0.010 C 
BRANCH  20  21
ATOM     21  N   UNL     1     -36.190  22.789   5.036  0.00  0.00    +0.389 N 
ATOM     22  C   UNL     1     -35.508  22.249   6.209  0.00  0.00    -0.100 C 
ATOM     23  C   UNL     1     -35.660  22.196   3.812  0.00  0.00    -0.100 C 
ATOM     24  H   UNL     1     -37.180  22.555   5.104  0.00  0.00    -0.079 HD
ENDBRANCH  20  21
ENDBRANCH  17  20
ENDBRANCH  14  18
ENDBRANCH   1  14
TORSDOF 10
ENDMDL
MODEL 6
REMARK VINA RESULT:      -4.3      2.435      3.282
REMARK  Name = 5353831
REMARK  10 active torsions:
REMARK  status: ('A' for Active; 'I' for Inactive)
REMARK    1  A    between atoms: S_1  and  C_2
REMARK    2  A    between atoms: S_1  and  C_14
REMARK    3  A    between atoms: C_2  and  C_3
REMARK    4  A    between atoms: C_3  and  N_4
REMARK    5  A    between atoms: N_4  and  C_6
REMARK    6  A    between atoms: C_6  and  N_11
REMARK    7  A    between atoms: C_7  and  N_10
REMARK    8  A    between atoms: C_14  and  C_18
REMARK    9  A    between atoms: C_17  and  C_20
REMARK   10  A    between atoms: C_20  and  N_21
REMARK                            x       y       z     vdW  Elec       q    Type
REMARK                         _______ _______ _______ _____ _____    ______ ____
ROOT
ATOM      1  S   UNL     1     -35.793  22.500   1.632  0.00  0.00    -0.131 S 
ENDROOT
BRANCH   1   2
ATOM      2  C   UNL     1     -37.326  22.767   2.576  0.00  0.00    +0.079 C 
BRANCH   2   3
ATOM      3  C   UNL     1     -37.316  24.089   3.334  0.00  0.00    +0.100 C 
BRANCH   3   4
ATOM      4  N   UNL     1     -35.989  24.420   3.798  0.00  0.00    -0.319 N 
ATOM      5  H   UNL     1     -35.369  24.797   3.132  0.00  0.00    +0.148 HD
BRANCH   4   6
ATOM      6  C   UNL     1     -35.497  24.260   5.094  0.00  0.00    +0.118 C 
ATOM      7  C   UNL     1     -34.650  25.147   5.660  0.00  0.00    +0.194 C 
BRANCH   7  10
ATOM      8  O   UNL     1     -35.095  27.064   4.521  0.00  0.00    -0.126 OA
ATOM      9  O   UNL     1     -32.999  26.440   4.779  0.00  0.00    -0.126 OA
ATOM     10  N   UNL     1     -34.219  26.292   4.939  0.00  0.00    +0.062 N 
ENDBRANCH   7  10
BRANCH   6  11
ATOM     11  N   UNL     1     -35.888  23.147   5.847  0.00  0.00    -0.319 N 
ATOM     12  C   UNL     1     -35.170  21.914   6.067  0.00  0.00    +0.109 C 
ATOM     13  H   UNL     1     -36.769  23.212   6.281  0.00  0.00    +0.148 HD
ENDBRANCH   6  11
ENDBRANCH   4   6
ENDBRANCH   3   4
ENDBRANCH   2   3
ENDBRANCH   1   2
BRANCH   1  14
ATOM     14  C   UNL     1     -35.203  21.033   2.507  0.00  0.00    +0.113 C 
BRANCH  14  18
ATOM     15  S   UNL     1     -33.918  18.042   0.184  0.00  0.00    -0.082 S 
ATOM     16  N   UNL     1     -36.021  19.390   0.853  0.00  0.00    -0.409 NA
ATOM     17  C   UNL     1     -35.593  18.408   0.092  0.00  0.00    +0.113 C 
ATOM     18  C   UNL     1     -34.952  19.899   1.567  0.00  0.00    +0.109 C 
ATOM     19  C   UNL     1     -33.733  19.297   1.338  0.00  0.00    +0.119 C 
BRANCH  17  20
ATOM     20  C   UNL     1     -36.452  17.619  -0.818  0.00  0.00    -0.010 C 
BRANCH  20  21
ATOM     21  N   UNL     1     -37.802  17.427  -0.272  0.00  0.00    +0.389 N 
ATOM     22  C   UNL     1     -38.121  16.005  -0.204  0.00  0.00    -0.100 C 
ATOM     23  C   UNL     1     -38.782  18.139  -1.089  0.00  0.00    -0.100 C 
ATOM     24  H   UNL     1     -37.834  17.810   0.673  0.00  0.00    -0.079 HD
ENDBRANCH  20  21
ENDBRANCH  17  20
ENDBRANCH  14  18
ENDBRANCH   1  14
TORSDOF 10
ENDMDL
MODEL 7
REMARK VINA RESULT:      -4.3      2.902      6.218
REMARK  Name = 5353831
REMARK  10 active torsions:
REMARK  status: ('A' for Active; 'I' for Inactive)
REMARK    1  A    between atoms: S_1  and  C_2
REMARK    2  A    between atoms: S_1  and  C_14
REMARK    3  A    between atoms: C_2  and  C_3
REMARK    4  A    between atoms: C_3  and  N_4
REMARK    5  A    between atoms: N_4  and  C_6
REMARK    6  A    between atoms: C_6  and  N_11
REMARK    7  A    between atoms: C_7  and  N_10
REMARK    8  A    between atoms: C_14  and  C_18
REMARK    9  A    between atoms: C_17  and  C_20
REMARK   10  A    between atoms: C_20  and  N_21
REMARK                            x       y       z     vdW  Elec       q    Type
REMARK                         _______ _______ _______ _____ _____    ______ ____
ROOT
ATOM      1  S   UNL     1     -38.426  24.118   1.784  0.00  0.00    -0.131 S 
ENDROOT
BRANCH   1   2
ATOM      2  C   UNL     1     -39.518  22.696   2.091  0.00  0.00    +0.079 C 
BRANCH   2   3
ATOM      3  C   UNL     1     -38.938  21.394   1.550  0.00  0.00    +0.100 C 
BRANCH   3   4
ATOM      4  N   UNL     1     -37.850  20.920   2.373  0.00  0.00    -0.319 N 
ATOM      5  H   UNL     1     -37.956  21.018   3.347  0.00  0.00    +0.148 HD
BRANCH   4   6
ATOM      6  C   UNL     1     -36.662  20.337   1.927  0.00  0.00    +0.118 C 
ATOM      7  C   UNL     1     -35.449  20.856   2.216  0.00  0.00    +0.194 C 
BRANCH   7  10
ATOM      8  O   UNL     1     -35.653  21.961   4.194  0.00  0.00    -0.126 OA
ATOM      9  O   UNL     1     -34.938  23.062   2.426  0.00  0.00    -0.126 OA
ATOM     10  N   UNL     1     -35.339  22.037   2.997  0.00  0.00    +0.062 N 
ENDBRANCH   7  10
BRANCH   6  11
ATOM     11  N   UNL     1     -36.716  19.173   1.152  0.00  0.00    -0.319 N 
ATOM     12  C   UNL     1     -35.880  18.797   0.037  0.00  0.00    +0.109 C 
ATOM     13  H   UNL     1     -37.415  18.526   1.399  0.00  0.00    +0.148 HD
ENDBRANCH   6  11
ENDBRANCH   4   6
ENDBRANCH   3   4
ENDBRANCH   2   3
ENDBRANCH   1   2
BRANCH   1  14
ATOM     14  C   UNL     1     -38.416  24.803   3.456  0.00  0.00    +0.113 C 
BRANCH  14  18
ATOM     15  S   UNL     1     -34.926  26.132   4.885  0.00  0.00    -0.082 S 
ATOM     16  N   UNL     1     -36.541  26.300   2.872  0.00  0.00    -0.409 NA
ATOM     17  C   UNL     1     -35.394  26.734   3.347  0.00  0.00    +0.113 C 
ATOM     18  C   UNL     1     -37.099  25.426   3.785  0.00  0.00    +0.109 C 
ATOM     19  C   UNL     1     -36.370  25.209   4.935  0.00  0.00    +0.119 C 
BRANCH  17  20
ATOM     20  C   UNL     1     -34.506  27.688   2.647  0.00  0.00    -0.010 C 
BRANCH  20  21
ATOM     21  N   UNL     1     -34.312  28.924   3.415  0.00  0.00    +0.389 N 
ATOM     22  C   UNL     1     -34.993  30.037   2.760  0.00  0.00    -0.100 C 
ATOM     23  C   UNL     1     -32.887  29.206   3.566  0.00  0.00    -0.100 C 
ATOM     24  H   UNL     1     -34.715  28.803   4.345  0.00  0.00    -0.079 HD
ENDBRANCH  20  21
ENDBRANCH  17  20
ENDBRANCH  14  18
ENDBRANCH   1  14
TORSDOF 10
ENDMDL
MODEL 8
REMARK VINA RESULT:      -4.3      5.672      9.062
REMARK  Name = 5353831
REMARK  10 active torsions:
REMARK  status: ('A' for Active; 'I' for Inactive)
REMARK    1  A    between atoms: S_1  and  C_2
REMARK    2  A    between atoms: S_1  and  C_14
REMARK    3  A    between atoms: C_2  and  C_3
REMARK    4  A    between atoms: C_3  and  N_4
REMARK    5  A    between atoms: N_4  and  C_6
REMARK    6  A    between atoms: C_6  and  N_11
REMARK    7  A    between atoms: C_7  and  N_10
REMARK    8  A    between atoms: C_14  and  C_18
REMARK    9  A    between atoms: C_17  and  C_20
REMARK   10  A    between atoms: C_20  and  N_21
REMARK                            x       y       z     vdW  Elec       q    Type
REMARK                         _______ _______ _______ _____ _____    ______ ____
ROOT
ATOM      1  S   UNL     1     -41.362  25.702   1.898  0.00  0.00    -0.131 S 
ENDROOT
BRANCH   1   2
ATOM      2  C   UNL     1     -39.903  25.979   2.949  0.00  0.00    +0.079 C 
BRANCH   2   3
ATOM      3  C   UNL     1     -39.002  24.753   3.025  0.00  0.00    +0.100 C 
BRANCH   3   4
ATOM      4  N   UNL     1     -38.079  24.844   4.132  0.00  0.00    -0.319 N 
ATOM      5  H   UNL     1     -38.430  24.606   5.021  0.00  0.00    +0.148 HD
BRANCH   4   6
ATOM      6  C   UNL     1     -36.741  25.237   4.070  0.00  0.00    +0.118 C 
ATOM      7  C   UNL     1     -35.725  24.378   4.301  0.00  0.00    +0.194 C 
BRANCH   7  10
ATOM      8  O   UNL     1     -36.079  22.218   3.684  0.00  0.00    -0.126 OA
ATOM      9  O   UNL     1     -36.110  22.734   5.825  0.00  0.00    -0.126 OA
ATOM     10  N   UNL     1     -35.989  23.021   4.625  0.00  0.00    +0.062 N 
ENDBRANCH   7  10
BRANCH   6  11
ATOM     11  N   UNL     1     -36.427  26.564   3.757  0.00  0.00    -0.319 N 
ATOM     12  C   UNL     1     -35.160  27.112   3.333  0.00  0.00    +0.109 C 
ATOM     13  H   UNL     1     -37.166  27.209   3.838  0.00  0.00    +0.148 HD
ENDBRANCH   6  11
ENDBRANCH   4   6
ENDBRANCH   3   4
ENDBRANCH   2   3
ENDBRANCH   1   2
BRANCH   1  14
ATOM     14  C   UNL     1     -41.950  27.408   1.816  0.00  0.00    +0.113 C 
BRANCH  14  18
ATOM     15  S   UNL     1     -44.658  27.767   4.737  0.00  0.00    -0.082 S 
ATOM     16  N   UNL     1     -42.537  28.852   3.732  0.00  0.00    -0.409 NA
ATOM     17  C   UNL     1     -43.429  28.965   4.691  0.00  0.00    +0.113 C 
ATOM     18  C   UNL     1     -42.837  27.738   2.972  0.00  0.00    +0.109 C 
ATOM     19  C   UNL     1     -43.949  27.024   3.363  0.00  0.00    +0.119 C 
BRANCH  17  20
ATOM     20  C   UNL     1     -43.435  30.040   5.707  0.00  0.00    -0.010 C 
BRANCH  20  21
ATOM     21  N   UNL     1     -44.623  29.978   6.568  0.00  0.00    +0.389 N 
ATOM     22  C   UNL     1     -45.477  31.138   6.335  0.00  0.00    -0.100 C 
ATOM     23  C   UNL     1     -44.225  29.902   7.971  0.00  0.00    -0.100 C 
ATOM     24  H   UNL     1     -45.153  29.137   6.339  0.00  0.00    -0.079 HD
ENDBRANCH  20  21
ENDBRANCH  17  20
ENDBRANCH  14  18
ENDBRANCH   1  14
TORSDOF 10
ENDMDL
MODEL 9
REMARK VINA RESULT:      -4.3      1.638      2.084
REMARK  Name = 5353831
REMARK  10 active torsions:
REMARK  status: ('A' for Active; 'I' for Inactive)
REMARK    1  A    between atoms: S_1  and  C_2
REMARK    2  A    between atoms: S_1  and  C_14
REMARK    3  A    between atoms: C_2  and  C_3
REMARK    4  A    between atoms: C_3  and  N_4
REMARK    5  A    between atoms: N_4  and  C_6
REMARK    6  A    between atoms: C_6  and  N_11
REMARK    7  A    between atoms: C_7  and  N_10
REMARK    8  A    between atoms: C_14  and  C_18
REMARK    9  A    between atoms: C_17  and  C_20
REMARK   10  A    between atoms: C_20  and  N_21
REMARK                            x       y       z     vdW  Elec       q    Type
REMARK                         _______ _______ _______ _____ _____    ______ ____
ROOT
ATOM      1  S   UNL     1     -35.506  24.446   1.350  0.00  0.00    -0.131 S 
ENDROOT
BRANCH   1   2
ATOM      2  C   UNL     1     -36.684  25.448   2.309  0.00  0.00    +0.079 C 
BRANCH   2   3
ATOM      3  C   UNL     1     -37.444  24.622   3.338  0.00  0.00    +0.100 C 
BRANCH   3   4
ATOM      4  N   UNL     1     -36.823  24.699   4.640  0.00  0.00    -0.319 N 
ATOM      5  H   UNL     1     -37.142  25.410   5.241  0.00  0.00    +0.148 HD
BRANCH   4   6
ATOM      6  C   UNL     1     -35.815  23.867   5.131  0.00  0.00    +0.118 C 
ATOM      7  C   UNL     1     -34.542  24.290   5.289  0.00  0.00    +0.194 C 
BRANCH   7  10
ATOM      8  O   UNL     1     -34.808  26.539   5.490  0.00  0.00    -0.126 OA
ATOM      9  O   UNL     1     -33.255  25.767   4.134  0.00  0.00    -0.126 OA
ATOM     10  N   UNL     1     -34.178  25.619   4.948  0.00  0.00    +0.062 N 
ENDBRANCH   7  10
BRANCH   6  11
ATOM     11  N   UNL     1     -36.121  22.547   5.479  0.00  0.00    -0.319 N 
ATOM     12  C   UNL     1     -35.238  21.523   5.984  0.00  0.00    +0.109 C 
ATOM     13  H   UNL     1     -37.062  22.281   5.364  0.00  0.00    +0.148 HD
ENDBRANCH   6  11
ENDBRANCH   4   6
ENDBRANCH   3   4
ENDBRANCH   2   3
ENDBRANCH   1   2
BRANCH   1  14
ATOM     14  C   UNL     1     -36.278  22.831   1.599  0.00  0.00    +0.113 C 
BRANCH  14  18
ATOM     15  S   UNL     1     -34.058  19.511   1.413  0.00  0.00    -0.082 S 
ATOM     16  N   UNL     1     -34.200  21.957   0.589  0.00  0.00    -0.409 NA
ATOM     17  C   UNL     1     -33.474  20.863   0.531  0.00  0.00    +0.113 C 
ATOM     18  C   UNL     1     -35.303  21.720   1.388  0.00  0.00    +0.109 C 
ATOM     19  C   UNL     1     -35.397  20.453   1.922  0.00  0.00    +0.119 C 
BRANCH  17  20
ATOM     20  C   UNL     1     -32.214  20.734  -0.232  0.00  0.00    -0.010 C 
BRANCH  20  21
ATOM     21  N   UNL     1     -31.845  19.330  -0.453  0.00  0.00    +0.389 N 
ATOM     22  C   UNL     1     -30.472  19.094  -0.018  0.00  0.00    -0.100 C 
ATOM     23  C   UNL     1     -32.008  18.982  -1.863  0.00  0.00    -0.100 C 
ATOM     24  H   UNL     1     -32.464  18.734   0.097  0.00  0.00    -0.079 HD
ENDBRANCH  20  21
ENDBRANCH  17  20
ENDBRANCH  14  18
ENDBRANCH   1  14
TORSDOF 10
ENDMDL
