MODEL 1
REMARK VINA RESULT:      -5.6      0.000      0.000
REMARK  Name = 214356
REMARK  9 active torsions:
REMARK  status: ('A' for Active; 'I' for Inactive)
REMARK    1  A    between atoms: C_1  and  C_4
REMARK    2  A    between atoms: C_1  and  O_10
REMARK    3  A    between atoms: C_1  and  C_17
REMARK    4  A    between atoms: C_1  and  C_23
REMARK    5  A    between atoms: O_10  and  P_11
REMARK    6  A    between atoms: P_11  and  O_13
REMARK    7  A    between atoms: P_11  and  O_15
REMARK    8  A    between atoms: C_17  and  N_18
REMARK    9  A    between atoms: C_23  and  N_24
REMARK                            x       y       z     vdW  Elec       q    Type
REMARK                         _______ _______ _______ _____ _____    ______ ____
ROOT
ATOM      1  C   UNL     1     -36.606  23.020   2.152  0.00  0.00    +0.164 C 
ENDROOT
BRANCH   1   4
ATOM      2  F   UNL     1     -33.993  24.001   1.714  0.00  0.00    -0.204 F 
ATOM      3  F   UNL     1     -33.823  26.069   5.967  0.00  0.00    -0.204 F 
ATOM      4  C   UNL     1     -35.866  23.828   3.164  0.00  0.00    +0.034 C 
ATOM      5  C   UNL     1     -34.576  24.284   2.887  0.00  0.00    +0.141 C 
ATOM      6  C   UNL     1     -36.464  24.129   4.387  0.00  0.00    +0.003 C 
ATOM      7  C   UNL     1     -33.886  25.041   3.834  0.00  0.00    +0.059 C 
ATOM      8  C   UNL     1     -35.774  24.885   5.334  0.00  0.00    +0.030 C 
ATOM      9  C   UNL     1     -34.485  25.341   5.058  0.00  0.00    +0.142 C 
ENDBRANCH   1   4
BRANCH   1  10
ATOM     10  O   UNL     1     -35.790  21.925   1.668  0.00  0.00    -0.270 OA
BRANCH  10  11
ATOM     11  P   UNL     1     -35.525  20.700   2.670  0.00  0.00    +0.473 P 
ATOM     12  O   UNL     1     -35.324  21.075   4.109  0.00  0.00    -0.227 OA
BRANCH  11  13
ATOM     13  O   UNL     1     -34.302  19.893   1.987  0.00  0.00    -0.303 OA
ATOM     14  H   UNL     1     -33.481  20.398   2.092  0.00  0.00    +0.222 HD
ENDBRANCH  11  13
BRANCH  11  15
ATOM     15  O   UNL     1     -36.803  19.753   2.382  0.00  0.00    -0.303 OA
ATOM     16  H   UNL     1     -36.519  18.967   1.889  0.00  0.00    +0.222 HD
ENDBRANCH  11  15
ENDBRANCH  10  11
ENDBRANCH   1  10
BRANCH   1  17
ATOM     17  C   UNL     1     -36.918  23.896   0.884  0.00  0.00    +0.152 C 
BRANCH  17  18
ATOM     18  N   UNL     1     -37.178  25.319   1.098  0.00  0.00    -0.188 N 
ATOM     19  N   UNL     1     -36.301  26.227   0.677  0.00  0.00    -0.154 NA
ATOM     20  N   UNL     1     -38.116  27.176   1.697  0.00  0.00    -0.203 NA
ATOM     21  C   UNL     1     -38.250  25.870   1.700  0.00  0.00    +0.186 C 
ATOM     22  C   UNL     1     -36.917  27.346   1.065  0.00  0.00    +0.218 C 
ENDBRANCH  17  18
ENDBRANCH   1  17
BRANCH   1  23
ATOM     23  C   UNL     1     -37.928  22.387   2.717  0.00  0.00    +0.152 C 
BRANCH  23  24
ATOM     24  N   UNL     1     -38.967  22.173   1.706  0.00  0.00    -0.188 N 
ATOM     25  N   UNL     1     -38.879  21.141   0.872  0.00  0.00    -0.154 NA
ATOM     26  N   UNL     1     -40.747  22.409   0.503  0.00  0.00    -0.203 NA
ATOM     27  C   UNL     1     -40.062  22.925   1.497  0.00  0.00    +0.186 C 
ATOM     28  C   UNL     1     -39.990  21.328   0.156  0.00  0.00    +0.218 C 
ENDBRANCH  23  24
ENDBRANCH   1  23
TORSDOF 9
ENDMDL
MODEL 2
REMARK VINA RESULT:      -5.5      3.353      5.503
REMARK  Name = 214356
REMARK  9 active torsions:
REMARK  status: ('A' for Active; 'I' for Inactive)
REMARK    1  A    between atoms: C_1  and  C_4
REMARK    2  A    between atoms: C_1  and  O_10
REMARK    3  A    between atoms: C_1  and  C_17
REMARK    4  A    between atoms: C_1  and  C_23
REMARK    5  A    between atoms: O_10  and  P_11
REMARK    6  A    between atoms: P_11  and  O_13
REMARK    7  A    between atoms: P_11  and  O_15
REMARK    8  A    between atoms: C_17  and  N_18
REMARK    9  A    between atoms: C_23  and  N_24
REMARK                            x       y       z     vdW  Elec       q    Type
REMARK                         _______ _______ _______ _____ _____    ______ ____
ROOT
ATOM      1  C   UNL     1     -35.877  25.988   3.287  0.00  0.00    +0.164 C 
ENDROOT
BRANCH   1   4
ATOM      2  F   UNL     1     -36.200  24.445   5.631  0.00  0.00    -0.204 F 
ATOM      3  F   UNL     1     -35.130  20.418   3.390  0.00  0.00    -0.204 F 
ATOM      4  C   UNL     1     -35.678  24.510   3.317  0.00  0.00    +0.034 C 
ATOM      5  C   UNL     1     -35.854  23.804   4.508  0.00  0.00    +0.141 C 
ATOM      6  C   UNL     1     -35.317  23.833   2.152  0.00  0.00    +0.003 C 
ATOM      7  C   UNL     1     -35.668  22.421   4.533  0.00  0.00    +0.059 C 
ATOM      8  C   UNL     1     -35.131  22.452   2.176  0.00  0.00    +0.030 C 
ATOM      9  C   UNL     1     -35.307  21.746   3.367  0.00  0.00    +0.142 C 
ENDBRANCH   1   4
BRANCH   1  10
ATOM     10  O   UNL     1     -35.277  26.613   4.449  0.00  0.00    -0.270 OA
BRANCH  10  11
ATOM     11  P   UNL     1     -33.676  26.653   4.525  0.00  0.00    +0.473 P 
ATOM     12  O   UNL     1     -32.961  25.763   3.551  0.00  0.00    -0.227 OA
BRANCH  11  13
ATOM     13  O   UNL     1     -33.349  26.377   6.084  0.00  0.00    -0.303 OA
ATOM     14  H   UNL     1     -33.850  26.999   6.635  0.00  0.00    +0.222 HD
ENDBRANCH  11  13
BRANCH  11  15
ATOM     15  O   UNL     1     -33.375  28.233   4.355  0.00  0.00    -0.303 OA
ATOM     16  H   UNL     1     -32.506  28.355   3.940  0.00  0.00    +0.222 HD
ENDBRANCH  11  15
ENDBRANCH  10  11
ENDBRANCH   1  10
BRANCH   1  17
ATOM     17  C   UNL     1     -37.410  26.328   3.377  0.00  0.00    +0.152 C 
BRANCH  17  18
ATOM     18  N   UNL     1     -38.344  25.392   2.753  0.00  0.00    -0.188 N 
ATOM     19  N   UNL     1     -39.048  24.552   3.507  0.00  0.00    -0.154 NA
ATOM     20  N   UNL     1     -39.501  24.312   1.278  0.00  0.00    -0.203 NA
ATOM     21  C   UNL     1     -38.604  25.257   1.439  0.00  0.00    +0.186 C 
ATOM     22  C   UNL     1     -39.740  23.913   2.562  0.00  0.00    +0.218 C 
ENDBRANCH  17  18
ENDBRANCH   1  17
BRANCH   1  23
ATOM     23  C   UNL     1     -35.239  26.671   2.024  0.00  0.00    +0.152 C 
BRANCH  23  24
ATOM     24  N   UNL     1     -35.794  27.991   1.716  0.00  0.00    -0.188 N 
ATOM     25  N   UNL     1     -35.294  29.075   2.302  0.00  0.00    -0.154 NA
ATOM     26  N   UNL     1     -37.004  29.567   0.864  0.00  0.00    -0.203 NA
ATOM     27  C   UNL     1     -36.801  28.270   0.868  0.00  0.00    +0.186 C 
ATOM     28  C   UNL     1     -36.066  30.013   1.750  0.00  0.00    +0.218 C 
ENDBRANCH  23  24
ENDBRANCH   1  23
TORSDOF 9
ENDMDL
MODEL 3
REMARK VINA RESULT:      -5.5      3.559      5.256
REMARK  Name = 214356
REMARK  9 active torsions:
REMARK  status: ('A' for Active; 'I' for Inactive)
REMARK    1  A    between atoms: C_1  and  C_4
REMARK    2  A    between atoms: C_1  and  O_10
REMARK    3  A    between atoms: C_1  and  C_17
REMARK    4  A    between atoms: C_1  and  C_23
REMARK    5  A    between atoms: O_10  and  P_11
REMARK    6  A    between atoms: P_11  and  O_13
REMARK    7  A    between atoms: P_11  and  O_15
REMARK    8  A    between atoms: C_17  and  N_18
REMARK    9  A    between atoms: C_23  and  N_24
REMARK                            x       y       z     vdW  Elec       q    Type
REMARK                         _______ _______ _______ _____ _____    ______ ____
ROOT
ATOM      1  C   UNL     1     -35.470  24.863   2.838  0.00  0.00    +0.164 C 
ENDROOT
BRANCH   1   4
ATOM      2  F   UNL     1     -33.120  26.094   1.868  0.00  0.00    -0.204 F 
ATOM      3  F   UNL     1     -32.442  22.729  -1.389  0.00  0.00    -0.204 F 
ATOM      4  C   UNL     1     -34.666  24.299   1.716  0.00  0.00    +0.034 C 
ATOM      5  C   UNL     1     -33.513  24.955   1.282  0.00  0.00    +0.141 C 
ATOM      6  C   UNL     1     -35.067  23.114   1.100  0.00  0.00    +0.003 C 
ATOM      7  C   UNL     1     -32.762  24.425   0.233  0.00  0.00    +0.059 C 
ATOM      8  C   UNL     1     -34.317  22.584   0.051  0.00  0.00    +0.030 C 
ATOM      9  C   UNL     1     -33.164  23.240  -0.383  0.00  0.00    +0.142 C 
ENDBRANCH   1   4
BRANCH   1  10
ATOM     10  O   UNL     1     -34.620  25.206   3.961  0.00  0.00    -0.270 OA
BRANCH  10  11
ATOM     11  P   UNL     1     -34.894  26.606   4.695  0.00  0.00    +0.473 P 
ATOM     12  O   UNL     1     -34.736  27.827   3.838  0.00  0.00    -0.227 OA
BRANCH  11  13
ATOM     13  O   UNL     1     -33.949  26.553   6.006  0.00  0.00    -0.303 OA
ATOM     14  H   UNL     1     -33.021  26.474   5.734  0.00  0.00    +0.222 HD
ENDBRANCH  11  13
BRANCH  11  15
ATOM     15  O   UNL     1     -36.378  26.380   5.298  0.00  0.00    -0.303 OA
ATOM     16  H   UNL     1     -37.038  26.661   4.645  0.00  0.00    +0.222 HD
ENDBRANCH  11  15
ENDBRANCH  10  11
ENDBRANCH   1  10
BRANCH   1  17
ATOM     17  C   UNL     1     -36.465  23.776   3.388  0.00  0.00    +0.152 C 
BRANCH  17  18
ATOM     18  N   UNL     1     -35.969  22.878   4.429  0.00  0.00    -0.188 N 
ATOM     19  N   UNL     1     -36.072  23.221   5.711  0.00  0.00    -0.154 NA
ATOM     20  N   UNL     1     -35.082  21.178   5.433  0.00  0.00    -0.203 NA
ATOM     21  C   UNL     1     -35.387  21.675   4.257  0.00  0.00    +0.186 C 
ATOM     22  C   UNL     1     -35.517  22.152   6.285  0.00  0.00    +0.218 C 
ENDBRANCH  17  18
ENDBRANCH   1  17
BRANCH   1  23
ATOM     23  C   UNL     1     -36.250  26.168   2.443  0.00  0.00    +0.152 C 
BRANCH  23  24
ATOM     24  N   UNL     1     -37.652  25.939   2.083  0.00  0.00    -0.188 N 
ATOM     25  N   UNL     1     -38.618  26.270   2.934  0.00  0.00    -0.154 NA
ATOM     26  N   UNL     1     -39.430  25.371   0.994  0.00  0.00    -0.203 NA
ATOM     27  C   UNL     1     -38.119  25.410   0.939  0.00  0.00    +0.186 C 
ATOM     28  C   UNL     1     -39.687  25.904   2.224  0.00  0.00    +0.218 C 
ENDBRANCH  23  24
ENDBRANCH   1  23
TORSDOF 9
ENDMDL
MODEL 4
REMARK VINA RESULT:      -5.4      2.994      4.714
REMARK  Name = 214356
REMARK  9 active torsions:
REMARK  status: ('A' for Active; 'I' for Inactive)
REMARK    1  A    between atoms: C_1  and  C_4
REMARK    2  A    between atoms: C_1  and  O_10
REMARK    3  A    between atoms: C_1  and  C_17
REMARK    4  A    between atoms: C_1  and  C_23
REMARK    5  A    between atoms: O_10  and  P_11
REMARK    6  A    between atoms: P_11  and  O_13
REMARK    7  A    between atoms: P_11  and  O_15
REMARK    8  A    between atoms: C_17  and  N_18
REMARK    9  A    between atoms: C_23  and  N_24
REMARK                            x       y       z     vdW  Elec       q    Type
REMARK                         _______ _______ _______ _____ _____    ______ ____
ROOT
ATOM      1  C   UNL     1     -36.241  24.401   3.966  0.00  0.00    +0.164 C 
ENDROOT
BRANCH   1   4
ATOM      2  F   UNL     1     -38.082  22.554   2.880  0.00  0.00    -0.204 F 
ATOM      3  F   UNL     1     -40.161  25.865   0.214  0.00  0.00    -0.204 F 
ATOM      4  C   UNL     1     -37.281  24.787   2.970  0.00  0.00    +0.034 C 
ATOM      5  C   UNL     1     -38.163  23.827   2.471  0.00  0.00    +0.141 C 
ATOM      6  C   UNL     1     -37.373  26.110   2.537  0.00  0.00    +0.003 C 
ATOM      7  C   UNL     1     -39.135  24.191   1.539  0.00  0.00    +0.059 C 
ATOM      8  C   UNL     1     -38.345  26.474   1.606  0.00  0.00    +0.030 C 
ATOM      9  C   UNL     1     -39.226  25.514   1.107  0.00  0.00    +0.142 C 
ENDBRANCH   1   4
BRANCH   1  10
ATOM     10  O   UNL     1     -36.640  23.213   4.696  0.00  0.00    -0.270 OA
BRANCH  10  11
ATOM     11  P   UNL     1     -35.479  22.321   5.350  0.00  0.00    +0.473 P 
ATOM     12  O   UNL     1     -34.170  23.023   5.569  0.00  0.00    -0.227 OA
BRANCH  11  13
ATOM     13  O   UNL     1     -35.412  21.011   4.405  0.00  0.00    -0.303 OA
ATOM     14  H   UNL     1     -34.949  21.228   3.581  0.00  0.00    +0.222 HD
ENDBRANCH  11  13
BRANCH  11  15
ATOM     15  O   UNL     1     -36.195  21.775   6.693  0.00  0.00    -0.303 OA
ATOM     16  H   UNL     1     -35.777  22.177   7.470  0.00  0.00    +0.222 HD
ENDBRANCH  11  15
ENDBRANCH  10  11
ENDBRANCH   1  10
BRANCH   1  17
ATOM     17  C   UNL     1     -36.092  25.526   5.055  0.00  0.00    +0.152 C 
BRANCH  17  18
ATOM     18  N   UNL     1     -34.841  26.282   5.072  0.00  0.00    -0.188 N 
ATOM     19  N   UNL     1     -34.551  27.114   4.074  0.00  0.00    -0.154 NA
ATOM     20  N   UNL     1     -32.917  27.070   5.674  0.00  0.00    -0.203 NA
ATOM     21  C   UNL     1     -33.883  26.251   6.018  0.00  0.00    +0.186 C 
ATOM     22  C   UNL     1     -33.367  27.571   4.486  0.00  0.00    +0.218 C 
ENDBRANCH  17  18
ENDBRANCH   1  17
BRANCH   1  23
ATOM     23  C   UNL     1     -34.848  24.085   3.313  0.00  0.00    +0.152 C 
BRANCH  23  24
ATOM     24  N   UNL     1     -34.933  23.590   1.936  0.00  0.00    -0.188 N 
ATOM     25  N   UNL     1     -35.136  22.296   1.708  0.00  0.00    -0.154 NA
ATOM     26  N   UNL     1     -34.959  23.510  -0.223  0.00  0.00    -0.203 NA
ATOM     27  C   UNL     1     -34.827  24.313   0.807  0.00  0.00    +0.186 C 
ATOM     28  C   UNL     1     -35.144  22.296   0.373  0.00  0.00    +0.218 C 
ENDBRANCH  23  24
ENDBRANCH   1  23
TORSDOF 9
ENDMDL
MODEL 5
REMARK VINA RESULT:      -5.3      3.093      4.935
REMARK  Name = 214356
REMARK  9 active torsions:
REMARK  status: ('A' for Active; 'I' for Inactive)
REMARK    1  A    between atoms: C_1  and  C_4
REMARK    2  A    between atoms: C_1  and  O_10
REMARK    3  A    between atoms: C_1  and  C_17
REMARK    4  A    between atoms: C_1  and  C_23
REMARK    5  A    between atoms: O_10  and  P_11
REMARK    6  A    between atoms: P_11  and  O_13
REMARK    7  A    between atoms: P_11  and  O_15
REMARK    8  A    between atoms: C_17  and  N_18
REMARK    9  A    between atoms: C_23  and  N_24
REMARK                            x       y       z     vdW  Elec       q    Type
REMARK                         _______ _______ _______ _____ _____    ______ ____
ROOT
ATOM      1  C   UNL     1     -37.073  24.005   2.298  0.00  0.00    +0.164 C 
ENDROOT
BRANCH   1   4
ATOM      2  F   UNL     1     -36.700  25.369   4.744  0.00  0.00    -0.204 F 
ATOM      3  F   UNL     1     -34.513  21.668   6.723  0.00  0.00    -0.204 F 
ATOM      4  C   UNL     1     -36.393  23.387   3.473  0.00  0.00    +0.034 C 
ATOM      5  C   UNL     1     -36.240  24.114   4.654  0.00  0.00    +0.141 C 
ATOM      6  C   UNL     1     -35.911  22.081   3.389  0.00  0.00    +0.003 C 
ATOM      7  C   UNL     1     -35.604  23.533   5.752  0.00  0.00    +0.059 C 
ATOM      8  C   UNL     1     -35.276  21.501   4.486  0.00  0.00    +0.030 C 
ATOM      9  C   UNL     1     -35.122  22.227   5.668  0.00  0.00    +0.142 C 
ENDBRANCH   1   4
BRANCH   1  10
ATOM     10  O   UNL     1     -36.756  25.416   2.201  0.00  0.00    -0.270 OA
BRANCH  10  11
ATOM     11  P   UNL     1     -37.954  26.421   1.843  0.00  0.00    +0.473 P 
ATOM     12  O   UNL     1     -39.110  26.415   2.801  0.00  0.00    -0.227 OA
BRANCH  11  13
ATOM     13  O   UNL     1     -38.323  26.063   0.311  0.00  0.00    -0.303 OA
ATOM     14  H   UNL     1     -37.560  25.646  -0.118  0.00  0.00    +0.222 HD
ENDBRANCH  11  13
BRANCH  11  15
ATOM     15  O   UNL     1     -37.177  27.834   1.719  0.00  0.00    -0.303 OA
ATOM     16  H   UNL     1     -37.247  28.163   0.809  0.00  0.00    +0.222 HD
ENDBRANCH  11  15
ENDBRANCH  10  11
ENDBRANCH   1  10
BRANCH   1  17
ATOM     17  C   UNL     1     -38.634  23.943   2.483  0.00  0.00    +0.152 C 
BRANCH  17  18
ATOM     18  N   UNL     1     -39.365  22.955   1.691  0.00  0.00    -0.188 N 
ATOM     19  N   UNL     1     -39.930  23.310   0.540  0.00  0.00    -0.154 NA
ATOM     20  N   UNL     1     -40.262  21.100   1.028  0.00  0.00    -0.203 NA
ATOM     21  C   UNL     1     -39.557  21.655   1.987  0.00  0.00    +0.186 C 
ATOM     22  C   UNL     1     -40.465  22.144   0.172  0.00  0.00    +0.218 C 
ENDBRANCH  17  18
ENDBRANCH   1  17
BRANCH   1  23
ATOM     23  C   UNL     1     -36.659  23.351   0.931  0.00  0.00    +0.152 C 
BRANCH  23  24
ATOM     24  N   UNL     1     -35.521  24.005   0.278  0.00  0.00    -0.188 N 
ATOM     25  N   UNL     1     -35.724  24.803  -0.765  0.00  0.00    -0.154 NA
ATOM     26  N   UNL     1     -33.512  24.634  -0.208  0.00  0.00    -0.203 NA
ATOM     27  C   UNL     1     -34.223  23.899   0.614  0.00  0.00    +0.186 C 
ATOM     28  C   UNL     1     -34.466  25.164  -1.028  0.00  0.00    +0.218 C 
ENDBRANCH  23  24
ENDBRANCH   1  23
TORSDOF 9
ENDMDL
MODEL 6
REMARK VINA RESULT:      -5.2      2.857      5.005
REMARK  Name = 214356
REMARK  9 active torsions:
REMARK  status: ('A' for Active; 'I' for Inactive)
REMARK    1  A    between atoms: C_1  and  C_4
REMARK    2  A    between atoms: C_1  and  O_10
REMARK    3  A    between atoms: C_1  and  C_17
REMARK    4  A    between atoms: C_1  and  C_23
REMARK    5  A    between atoms: O_10  and  P_11
REMARK    6  A    between atoms: P_11  and  O_13
REMARK    7  A    between atoms: P_11  and  O_15
REMARK    8  A    between atoms: C_17  and  N_18
REMARK    9  A    between atoms: C_23  and  N_24
REMARK                            x       y       z     vdW  Elec       q    Type
REMARK                         _______ _______ _______ _____ _____    ______ ____
ROOT
ATOM      1  C   UNL     1     -36.478  24.099   2.333  0.00  0.00    +0.164 C 
ENDROOT
BRANCH   1   4
ATOM      2  F   UNL     1     -34.187  23.791   0.709  0.00  0.00    -0.204 F 
ATOM      3  F   UNL     1     -34.164  19.091   1.257  0.00  0.00    -0.204 F 
ATOM      4  C   UNL     1     -35.863  22.771   2.045  0.00  0.00    +0.034 C 
ATOM      5  C   UNL     1     -34.730  22.685   1.235  0.00  0.00    +0.141 C 
ATOM      6  C   UNL     1     -36.421  21.614   2.588  0.00  0.00    +0.003 C 
ATOM      7  C   UNL     1     -34.157  21.441   0.968  0.00  0.00    +0.059 C 
ATOM      8  C   UNL     1     -35.848  20.371   2.322  0.00  0.00    +0.030 C 
ATOM      9  C   UNL     1     -34.716  20.285   1.511  0.00  0.00    +0.142 C 
ENDBRANCH   1   4
BRANCH   1  10
ATOM     10  O   UNL     1     -35.579  24.926   3.115  0.00  0.00    -0.270 OA
BRANCH  10  11
ATOM     11  P   UNL     1     -35.933  25.141   4.665  0.00  0.00    +0.473 P 
ATOM     12  O   UNL     1     -36.164  23.887   5.455  0.00  0.00    -0.227 OA
BRANCH  11  13
ATOM     13  O   UNL     1     -37.168  26.183   4.644  0.00  0.00    -0.303 OA
ATOM     14  H   UNL     1     -37.086  26.769   3.875  0.00  0.00    +0.222 HD
ENDBRANCH  11  13
BRANCH  11  15
ATOM     15  O   UNL     1     -34.691  26.047   5.166  0.00  0.00    -0.303 OA
ATOM     16  H   UNL     1     -35.026  26.864   5.567  0.00  0.00    +0.222 HD
ENDBRANCH  11  15
ENDBRANCH  10  11
ENDBRANCH   1  10
BRANCH   1  17
ATOM     17  C   UNL     1     -37.759  23.919   3.226  0.00  0.00    +0.152 C 
BRANCH  17  18
ATOM     18  N   UNL     1     -39.058  24.126   2.588  0.00  0.00    -0.188 N 
ATOM     19  N   UNL     1     -39.711  25.272   2.761  0.00  0.00    -0.154 NA
ATOM     20  N   UNL     1     -40.853  23.813   1.420  0.00  0.00    -0.203 NA
ATOM     21  C   UNL     1     -39.724  23.261   1.799  0.00  0.00    +0.186 C 
ATOM     22  C   UNL     1     -40.801  25.034   2.029  0.00  0.00    +0.218 C 
ENDBRANCH  17  18
ENDBRANCH   1  17
BRANCH   1  23
ATOM     23  C   UNL     1     -36.827  24.912   1.035  0.00  0.00    +0.152 C 
BRANCH  23  24
ATOM     24  N   UNL     1     -36.402  26.314   1.075  0.00  0.00    -0.188 N 
ATOM     25  N   UNL     1     -37.162  27.219   1.683  0.00  0.00    -0.154 NA
ATOM     26  N   UNL     1     -35.258  28.125   0.797  0.00  0.00    -0.203 NA
ATOM     27  C   UNL     1     -35.280  26.836   0.551  0.00  0.00    +0.186 C 
ATOM     28  C   UNL     1     -36.422  28.312   1.486  0.00  0.00    +0.218 C 
ENDBRANCH  23  24
ENDBRANCH   1  23
TORSDOF 9
ENDMDL
MODEL 7
REMARK VINA RESULT:      -5.2      2.899      5.358
REMARK  Name = 214356
REMARK  9 active torsions:
REMARK  status: ('A' for Active; 'I' for Inactive)
REMARK    1  A    between atoms: C_1  and  C_4
REMARK    2  A    between atoms: C_1  and  O_10
REMARK    3  A    between atoms: C_1  and  C_17
REMARK    4  A    between atoms: C_1  and  C_23
REMARK    5  A    between atoms: O_10  and  P_11
REMARK    6  A    between atoms: P_11  and  O_13
REMARK    7  A    between atoms: P_11  and  O_15
REMARK    8  A    between atoms: C_17  and  N_18
REMARK    9  A    between atoms: C_23  and  N_24
REMARK                            x       y       z     vdW  Elec       q    Type
REMARK                         _______ _______ _______ _____ _____    ______ ____
ROOT
ATOM      1  C   UNL     1     -35.846  23.349   2.634  0.00  0.00    +0.164 C 
ENDROOT
BRANCH   1   4
ATOM      2  F   UNL     1     -35.512  20.764   3.724  0.00  0.00    -0.204 F 
ATOM      3  F   UNL     1     -33.312  19.178  -0.153  0.00  0.00    -0.204 F 
ATOM      4  C   UNL     1     -35.173  22.242   1.897  0.00  0.00    +0.034 C 
ATOM      5  C   UNL     1     -35.039  20.986   2.490  0.00  0.00    +0.141 C 
ATOM      6  C   UNL     1     -34.677  22.462   0.612  0.00  0.00    +0.003 C 
ATOM      7  C   UNL     1     -34.410  19.951   1.798  0.00  0.00    +0.059 C 
ATOM      8  C   UNL     1     -34.048  21.428  -0.080  0.00  0.00    +0.030 C 
ATOM      9  C   UNL     1     -33.915  20.172   0.513  0.00  0.00    +0.142 C 
ENDBRANCH   1   4
BRANCH   1  10
ATOM     10  O   UNL     1     -34.992  23.863   3.687  0.00  0.00    -0.270 OA
BRANCH  10  11
ATOM     11  P   UNL     1     -35.646  24.069   5.137  0.00  0.00    +0.473 P 
ATOM     12  O   UNL     1     -35.904  22.811   5.913  0.00  0.00    -0.227 OA
BRANCH  11  13
ATOM     13  O   UNL     1     -36.946  24.987   4.855  0.00  0.00    -0.303 OA
ATOM     14  H   UNL     1     -37.358  24.718   4.020  0.00  0.00    +0.222 HD
ENDBRANCH  11  13
BRANCH  11  15
ATOM     15  O   UNL     1     -34.606  25.097   5.827  0.00  0.00    -0.303 OA
ATOM     16  H   UNL     1     -34.959  25.999   5.774  0.00  0.00    +0.222 HD
ENDBRANCH  11  15
ENDBRANCH  10  11
ENDBRANCH   1  10
BRANCH   1  17
ATOM     17  C   UNL     1     -37.128  22.809   3.368  0.00  0.00    +0.152 C 
BRANCH  17  18
ATOM     18  N   UNL     1     -38.410  22.969   2.685  0.00  0.00    -0.188 N 
ATOM     19  N   UNL     1     -39.185  24.016   2.958  0.00  0.00    -0.154 NA
ATOM     20  N   UNL     1     -40.109  22.636   1.386  0.00  0.00    -0.203 NA
ATOM     21  C   UNL     1     -38.947  22.151   1.760  0.00  0.00    +0.186 C 
ATOM     22  C   UNL     1     -40.210  23.769   2.141  0.00  0.00    +0.218 C 
ENDBRANCH  17  18
ENDBRANCH   1  17
BRANCH   1  23
ATOM     23  C   UNL     1     -36.216  24.567   1.715  0.00  0.00    +0.152 C 
BRANCH  23  24
ATOM     24  N   UNL     1     -35.432  25.777   1.981  0.00  0.00    -0.188 N 
ATOM     25  N   UNL     1     -35.976  26.785   2.655  0.00  0.00    -0.154 NA
ATOM     26  N   UNL     1     -33.814  27.208   2.039  0.00  0.00    -0.203 NA
ATOM     27  C   UNL     1     -34.161  26.016   1.614  0.00  0.00    +0.186 C 
ATOM     28  C   UNL     1     -34.949  27.637   2.665  0.00  0.00    +0.218 C 
ENDBRANCH  23  24
ENDBRANCH   1  23
TORSDOF 9
ENDMDL
MODEL 8
REMARK VINA RESULT:      -5.2      1.663      2.627
REMARK  Name = 214356
REMARK  9 active torsions:
REMARK  status: ('A' for Active; 'I' for Inactive)
REMARK    1  A    between atoms: C_1  and  C_4
REMARK    2  A    between atoms: C_1  and  O_10
REMARK    3  A    between atoms: C_1  and  C_17
REMARK    4  A    between atoms: C_1  and  C_23
REMARK    5  A    between atoms: O_10  and  P_11
REMARK    6  A    between atoms: P_11  and  O_13
REMARK    7  A    between atoms: P_11  and  O_15
REMARK    8  A    between atoms: C_17  and  N_18
REMARK    9  A    between atoms: C_23  and  N_24
REMARK                            x       y       z     vdW  Elec       q    Type
REMARK                         _______ _______ _______ _____ _____    ______ ____
ROOT
ATOM      1  C   UNL     1     -36.092  23.274   2.463  0.00  0.00    +0.164 C 
ENDROOT
BRANCH   1   4
ATOM      2  F   UNL     1     -33.754  24.778   1.962  0.00  0.00    -0.204 F 
ATOM      3  F   UNL     1     -33.705  26.566   6.343  0.00  0.00    -0.204 F 
ATOM      4  C   UNL     1     -35.456  24.147   3.491  0.00  0.00    +0.034 C 
ATOM      5  C   UNL     1     -34.301  24.866   3.182  0.00  0.00    +0.141 C 
ATOM      6  C   UNL     1     -36.019  24.245   4.764  0.00  0.00    +0.003 C 
ATOM      7  C   UNL     1     -33.709  25.683   4.146  0.00  0.00    +0.059 C 
ATOM      8  C   UNL     1     -35.427  25.061   5.727  0.00  0.00    +0.030 C 
ATOM      9  C   UNL     1     -34.272  25.780   5.418  0.00  0.00    +0.142 C 
ENDBRANCH   1   4
BRANCH   1  10
ATOM     10  O   UNL     1     -35.172  22.244   2.020  0.00  0.00    -0.270 OA
BRANCH  10  11
ATOM     11  P   UNL     1     -35.541  20.722   2.370  0.00  0.00    +0.473 P 
ATOM     12  O   UNL     1     -36.835  20.223   1.796  0.00  0.00    -0.227 OA
BRANCH  11  13
ATOM     13  O   UNL     1     -35.425  20.651   3.981  0.00  0.00    -0.303 OA
ATOM     14  H   UNL     1     -35.250  19.736   4.253  0.00  0.00    +0.222 HD
ENDBRANCH  11  13
BRANCH  11  15
ATOM     15  O   UNL     1     -34.221  19.936   1.867  0.00  0.00    -0.303 OA
ATOM     16  H   UNL     1     -34.173  19.071   2.302  0.00  0.00    +0.222 HD
ENDBRANCH  11  15
ENDBRANCH  10  11
ENDBRANCH   1  10
BRANCH   1  17
ATOM     17  C   UNL     1     -36.426  24.112   1.175  0.00  0.00    +0.152 C 
BRANCH  17  18
ATOM     18  N   UNL     1     -36.100  23.513  -0.119  0.00  0.00    -0.188 N 
ATOM     19  N   UNL     1     -36.942  22.652  -0.686  0.00  0.00    -0.154 NA
ATOM     20  N   UNL     1     -35.073  23.009  -1.956  0.00  0.00    -0.203 NA
ATOM     21  C   UNL     1     -34.997  23.729  -0.860  0.00  0.00    +0.186 C 
ATOM     22  C   UNL     1     -36.272  22.372  -1.805  0.00  0.00    +0.218 C 
ENDBRANCH  17  18
ENDBRANCH   1  17
BRANCH   1  23
ATOM     23  C   UNL     1     -37.378  22.540   2.987  0.00  0.00    +0.152 C 
BRANCH  23  24
ATOM     24  N   UNL     1     -38.634  23.190   2.604  0.00  0.00    -0.188 N 
ATOM     25  N   UNL     1     -39.001  24.323   3.194  0.00  0.00    -0.154 NA
ATOM     26  N   UNL     1     -40.512  23.623   1.626  0.00  0.00    -0.203 NA
ATOM     27  C   UNL     1     -39.516  22.770   1.680  0.00  0.00    +0.186 C 
ATOM     28  C   UNL     1     -40.156  24.549   2.564  0.00  0.00    +0.218 C 
ENDBRANCH  23  24
ENDBRANCH   1  23
TORSDOF 9
ENDMDL
MODEL 9
REMARK VINA RESULT:      -5.2      2.152      3.040
REMARK  Name = 214356
REMARK  9 active torsions:
REMARK  status: ('A' for Active; 'I' for Inactive)
REMARK    1  A    between atoms: C_1  and  C_4
REMARK    2  A    between atoms: C_1  and  O_10
REMARK    3  A    between atoms: C_1  and  C_17
REMARK    4  A    between atoms: C_1  and  C_23
REMARK    5  A    between atoms: O_10  and  P_11
REMARK    6  A    between atoms: P_11  and  O_13
REMARK    7  A    between atoms: P_11  and  O_15
REMARK    8  A    between atoms: C_17  and  N_18
REMARK    9  A    between atoms: C_23  and  N_24
REMARK                            x       y       z     vdW  Elec       q    Type
REMARK                         _______ _______ _______ _____ _____    ______ ____
ROOT
ATOM      1  C   UNL     1     -36.383  22.967   2.217  0.00  0.00    +0.164 C 
ENDROOT
BRANCH   1   4
ATOM      2  F   UNL     1     -35.667  21.834   4.704  0.00  0.00    -0.204 F 
ATOM      3  F   UNL     1     -34.037  25.957   6.358  0.00  0.00    -0.204 F 
ATOM      4  C   UNL     1     -35.761  23.759   3.318  0.00  0.00    +0.034 C 
ATOM      5  C   UNL     1     -35.430  23.140   4.524  0.00  0.00    +0.141 C 
ATOM      6  C   UNL     1     -35.511  25.119   3.139  0.00  0.00    +0.003 C 
ATOM      7  C   UNL     1     -34.848  23.883   5.552  0.00  0.00    +0.059 C 
ATOM      8  C   UNL     1     -34.929  25.862   4.166  0.00  0.00    +0.030 C 
ATOM      9  C   UNL     1     -34.598  25.244   5.372  0.00  0.00    +0.142 C 
ENDBRANCH   1   4
BRANCH   1  10
ATOM     10  O   UNL     1     -35.586  21.794   1.911  0.00  0.00    -0.270 OA
BRANCH  10  11
ATOM     11  P   UNL     1     -36.362  20.482   1.413  0.00  0.00    +0.473 P 
ATOM     12  O   UNL     1     -37.479  20.722   0.439  0.00  0.00    -0.227 OA
BRANCH  11  13
ATOM     13  O   UNL     1     -36.787  19.733   2.781  0.00  0.00    -0.303 OA
ATOM     14  H   UNL     1     -36.067  19.149   3.068  0.00  0.00    +0.222 HD
ENDBRANCH  11  13
BRANCH  11  15
ATOM     15  O   UNL     1     -35.149  19.572   0.851  0.00  0.00    -0.303 OA
ATOM     16  H   UNL     1     -35.445  19.085   0.066  0.00  0.00    +0.222 HD
ENDBRANCH  11  15
ENDBRANCH  10  11
ENDBRANCH   1  10
BRANCH   1  17
ATOM     17  C   UNL     1     -36.405  23.810   0.891  0.00  0.00    +0.152 C 
BRANCH  17  18
ATOM     18  N   UNL     1     -35.321  23.588  -0.065  0.00  0.00    -0.188 N 
ATOM     19  N   UNL     1     -35.575  23.012  -1.238  0.00  0.00    -0.154 NA
ATOM     20  N   UNL     1     -33.365  23.547  -0.989  0.00  0.00    -0.203 NA
ATOM     21  C   UNL     1     -34.022  23.905   0.089  0.00  0.00    +0.186 C 
ATOM     22  C   UNL     1     -34.349  23.009  -1.767  0.00  0.00    +0.218 C 
ENDBRANCH  17  18
ENDBRANCH   1  17
BRANCH   1  23
ATOM     23  C   UNL     1     -37.827  22.456   2.564  0.00  0.00    +0.152 C 
BRANCH  23  24
ATOM     24  N   UNL     1     -38.855  23.500   2.527  0.00  0.00    -0.188 N 
ATOM     25  N   UNL     1     -38.920  24.402   3.502  0.00  0.00    -0.154 NA
ATOM     26  N   UNL     1     -40.525  24.722   1.904  0.00  0.00    -0.203 NA
ATOM     27  C   UNL     1     -39.794  23.680   1.582  0.00  0.00    +0.186 C 
ATOM     28  C   UNL     1     -39.957  25.127   3.077  0.00  0.00    +0.218 C 
ENDBRANCH  23  24
ENDBRANCH   1  23
TORSDOF 9
ENDMDL
