MODEL 1
REMARK VINA RESULT:      -6.7      0.000      0.000
REMARK  Name = 52951786
REMARK  7 active torsions:
REMARK  status: ('A' for Active; 'I' for Inactive)
REMARK    1  A    between atoms: C_3  and  O_19
REMARK    2  A    between atoms: C_11  and  C_16
REMARK    3  A    between atoms: C_16  and  O_17
REMARK    4  A    between atoms: O_19  and  C_25
REMARK    5  A    between atoms: C_21  and  O_27
REMARK    6  A    between atoms: C_22  and  O_29
REMARK    7  A    between atoms: C_23  and  O_31
REMARK                            x       y       z     vdW  Elec       q    Type
REMARK                         _______ _______ _______ _____ _____    ______ ____
ROOT
ATOM      1  N   UNL     1     -36.911  22.273   2.646  0.00  0.00    -0.398 NA
ATOM      2  N   UNL     1     -36.726  24.976   3.144  0.00  0.00    -0.400 NA
ATOM      3  C   UNL     1     -38.113  22.721   0.647  0.00  0.00    +0.173 C 
ATOM      4  C   UNL     1     -37.451  23.158   1.794  0.00  0.00    +0.194 C 
ATOM      5  C   UNL     1     -38.679  23.624  -0.250  0.00  0.00    +0.040 C 
ATOM      6  C   UNL     1     -37.358  24.530   2.046  0.00  0.00    +0.163 C 
ATOM      7  C   UNL     1     -38.587  24.985   0.000  0.00  0.00    +0.006 C 
ATOM      8  C   UNL     1     -37.927  25.428   1.146  0.00  0.00    +0.035 C 
ATOM      9  C   UNL     1     -36.279  22.718   3.744  0.00  0.00    +0.140 C 
ATOM     10  C   UNL     1     -36.185  24.091   3.996  0.00  0.00    +0.149 C 
ATOM     11  C   UNL     1     -35.525  24.527   5.143  0.00  0.00    +0.175 C 
ATOM     12  C   UNL     1     -35.710  21.820   4.645  0.00  0.00    +0.087 C 
ATOM     13  C   UNL     1     -34.957  23.623   6.040  0.00  0.00    -0.012 C 
ATOM     14  C   UNL     1     -35.051  22.264   5.790  0.00  0.00    -0.022 C 
ENDROOT
BRANCH  11  16
ATOM     15  O   UNL     1     -34.351  26.550   5.650  0.00  0.00    -0.249 OA
ATOM     16  C   UNL     1     -35.408  25.951   5.437  0.00  0.00    +0.324 C 
BRANCH  16  17
ATOM     17  O   UNL     1     -36.616  26.574   5.454  0.00  0.00    -0.480 OA
ATOM     18  H   UNL     1     -36.672  27.481   5.684  0.00  0.00    +0.295 HD
ENDBRANCH  16  17
ENDBRANCH  11  16
BRANCH   3  19
ATOM     19  O   UNL     1     -38.215  21.382   0.380  0.00  0.00    -0.448 OA
BRANCH  19  25
ATOM     20  O   UNL     1     -38.276  19.914  -1.485  0.00  0.00    -0.319 OA
ATOM     21  C   UNL     1     -36.303  19.054   0.414  0.00  0.00    +0.173 C 
ATOM     22  C   UNL     1     -37.173  18.052  -0.344  0.00  0.00    +0.167 C 
ATOM     23  C   UNL     1     -36.159  20.360  -0.369  0.00  0.00    +0.210 C 
ATOM     24  C   UNL     1     -38.501  18.707  -0.748  0.00  0.00    +0.148 C 
ATOM     25  C   UNL     1     -37.528  20.906  -0.773  0.00  0.00    +0.318 C 
ATOM     26  C   UNL     1     -39.343  17.795  -1.635  0.00  0.00    +0.035 C 
BRANCH  21  27
ATOM     27  O   UNL     1     -35.016  18.481   0.641  0.00  0.00    -0.379 OA
ATOM     28  H   UNL     1     -35.018  18.007   1.488  0.00  0.00    +0.211 HD
ENDBRANCH  21  27
BRANCH  22  29
ATOM     29  O   UNL     1     -37.413  16.936   0.508  0.00  0.00    -0.379 OA
ATOM     30  H   UNL     1     -36.604  16.402   0.577  0.00  0.00    +0.211 HD
ENDBRANCH  22  29
BRANCH  23  31
ATOM     31  O   UNL     1     -35.412  20.133  -1.564  0.00  0.00    -0.377 OA
ATOM     32  H   UNL     1     -34.510  19.859  -1.334  0.00  0.00    +0.211 HD
ENDBRANCH  23  31
ENDBRANCH  19  25
ENDBRANCH   3  19
TORSDOF 7
ENDMDL
MODEL 2
REMARK VINA RESULT:      -6.7      1.602      1.901
REMARK  Name = 52951786
REMARK  7 active torsions:
REMARK  status: ('A' for Active; 'I' for Inactive)
REMARK    1  A    between atoms: C_3  and  O_19
REMARK    2  A    between atoms: C_11  and  C_16
REMARK    3  A    between atoms: C_16  and  O_17
REMARK    4  A    between atoms: O_19  and  C_25
REMARK    5  A    between atoms: C_21  and  O_27
REMARK    6  A    between atoms: C_22  and  O_29
REMARK    7  A    between atoms: C_23  and  O_31
REMARK                            x       y       z     vdW  Elec       q    Type
REMARK                         _______ _______ _______ _____ _____    ______ ____
ROOT
ATOM      1  N   UNL     1     -35.810  21.260   2.680  0.00  0.00    -0.398 NA
ATOM      2  N   UNL     1     -36.351  23.961   2.671  0.00  0.00    -0.400 NA
ATOM      3  C   UNL     1     -36.403  21.131   0.384  0.00  0.00    +0.173 C 
ATOM      4  C   UNL     1     -36.232  21.863   1.557  0.00  0.00    +0.194 C 
ATOM      5  C   UNL     1     -36.839  21.739  -0.792  0.00  0.00    +0.040 C 
ATOM      6  C   UNL     1     -36.507  23.234   1.553  0.00  0.00    +0.163 C 
ATOM      7  C   UNL     1     -37.112  23.099  -0.797  0.00  0.00    +0.006 C 
ATOM      8  C   UNL     1     -36.944  23.836   0.375  0.00  0.00    +0.035 C 
ATOM      9  C   UNL     1     -35.653  21.986   3.798  0.00  0.00    +0.140 C 
ATOM     10  C   UNL     1     -35.928  23.358   3.793  0.00  0.00    +0.149 C 
ATOM     11  C   UNL     1     -35.759  24.089   4.968  0.00  0.00    +0.175 C 
ATOM     12  C   UNL     1     -35.217  21.384   4.977  0.00  0.00    +0.087 C 
ATOM     13  C   UNL     1     -35.321  23.481   6.143  0.00  0.00    -0.012 C 
ATOM     14  C   UNL     1     -35.049  22.122   6.147  0.00  0.00    -0.022 C 
ENDROOT
BRANCH  11  16
ATOM     15  O   UNL     1     -35.226  26.396   5.312  0.00  0.00    -0.249 OA
ATOM     16  C   UNL     1     -36.035  25.521   4.998  0.00  0.00    +0.324 C 
BRANCH  16  17
ATOM     17  O   UNL     1     -37.314  25.806   4.634  0.00  0.00    -0.480 OA
ATOM     18  H   UNL     1     -37.770  25.240   4.044  0.00  0.00    +0.295 HD
ENDBRANCH  16  17
ENDBRANCH  11  16
BRANCH   3  19
ATOM     19  O   UNL     1     -36.138  19.787   0.366  0.00  0.00    -0.448 OA
BRANCH  19  25
ATOM     20  O   UNL     1     -37.116  18.224  -1.129  0.00  0.00    -0.319 OA
ATOM     21  C   UNL     1     -34.579  17.269  -0.185  0.00  0.00    +0.173 C 
ATOM     22  C   UNL     1     -35.764  16.325  -0.387  0.00  0.00    +0.167 C 
ATOM     23  C   UNL     1     -34.698  18.501  -1.084  0.00  0.00    +0.210 C 
ATOM     24  C   UNL     1     -37.083  17.097  -0.246  0.00  0.00    +0.148 C 
ATOM     25  C   UNL     1     -36.062  19.168  -0.914  0.00  0.00    +0.318 C 
ATOM     26  C   UNL     1     -38.292  16.230  -0.585  0.00  0.00    +0.035 C 
BRANCH  21  27
ATOM     27  O   UNL     1     -33.368  16.572  -0.475  0.00  0.00    -0.379 OA
ATOM     28  H   UNL     1     -32.711  17.197  -0.822  0.00  0.00    +0.211 HD
ENDBRANCH  21  27
BRANCH  22  29
ATOM     29  O   UNL     1     -35.686  15.296   0.596  0.00  0.00    -0.379 OA
ATOM     30  H   UNL     1     -35.356  14.481   0.185  0.00  0.00    +0.211 HD
ENDBRANCH  22  29
BRANCH  23  31
ATOM     31  O   UNL     1     -34.568  18.119  -2.453  0.00  0.00    -0.377 OA
ATOM     32  H   UNL     1     -35.232  17.444  -2.666  0.00  0.00    +0.211 HD
ENDBRANCH  23  31
ENDBRANCH  19  25
ENDBRANCH   3  19
TORSDOF 7
ENDMDL
MODEL 3
REMARK VINA RESULT:      -6.6      2.290      7.462
REMARK  Name = 52951786
REMARK  7 active torsions:
REMARK  status: ('A' for Active; 'I' for Inactive)
REMARK    1  A    between atoms: C_3  and  O_19
REMARK    2  A    between atoms: C_11  and  C_16
REMARK    3  A    between atoms: C_16  and  O_17
REMARK    4  A    between atoms: O_19  and  C_25
REMARK    5  A    between atoms: C_21  and  O_27
REMARK    6  A    between atoms: C_22  and  O_29
REMARK    7  A    between atoms: C_23  and  O_31
REMARK                            x       y       z     vdW  Elec       q    Type
REMARK                         _______ _______ _______ _____ _____    ______ ____
ROOT
ATOM      1  N   UNL     1     -35.394  21.439   2.133  0.00  0.00    -0.398 NA
ATOM      2  N   UNL     1     -37.288  19.912   0.842  0.00  0.00    -0.400 NA
ATOM      3  C   UNL     1     -37.075  22.992   2.767  0.00  0.00    +0.173 C 
ATOM      4  C   UNL     1     -36.681  21.820   2.124  0.00  0.00    +0.194 C 
ATOM      5  C   UNL     1     -38.406  23.404   2.770  0.00  0.00    +0.040 C 
ATOM      6  C   UNL     1     -37.643  21.045   1.469  0.00  0.00    +0.163 C 
ATOM      7  C   UNL     1     -39.361  22.636   2.120  0.00  0.00    +0.006 C 
ATOM      8  C   UNL     1     -38.972  21.462   1.474  0.00  0.00    +0.035 C 
ATOM      9  C   UNL     1     -35.039  20.306   1.506  0.00  0.00    +0.140 C 
ATOM     10  C   UNL     1     -36.001  19.531   0.851  0.00  0.00    +0.149 C 
ATOM     11  C   UNL     1     -35.606  18.359   0.207  0.00  0.00    +0.175 C 
ATOM     12  C   UNL     1     -33.709  19.889   1.500  0.00  0.00    +0.087 C 
ATOM     13  C   UNL     1     -34.275  17.947   0.205  0.00  0.00    -0.012 C 
ATOM     14  C   UNL     1     -33.322  18.716   0.854  0.00  0.00    -0.022 C 
ENDROOT
BRANCH  11  16
ATOM     15  O   UNL     1     -36.653  17.377  -1.707  0.00  0.00    -0.249 OA
ATOM     16  C   UNL     1     -36.584  17.526  -0.485  0.00  0.00    +0.324 C 
BRANCH  16  17
ATOM     17  O   UNL     1     -37.437  16.911   0.375  0.00  0.00    -0.480 OA
ATOM     18  H   UNL     1     -37.977  16.207   0.076  0.00  0.00    +0.295 HD
ENDBRANCH  16  17
ENDBRANCH  11  16
BRANCH   3  19
ATOM     19  O   UNL     1     -36.150  23.766   3.416  0.00  0.00    -0.448 OA
BRANCH  19  25
ATOM     20  O   UNL     1     -36.166  26.065   2.824  0.00  0.00    -0.319 OA
ATOM     21  C   UNL     1     -34.492  25.623   5.115  0.00  0.00    +0.173 C 
ATOM     22  C   UNL     1     -34.108  26.623   4.024  0.00  0.00    +0.167 C 
ATOM     23  C   UNL     1     -36.008  25.423   5.167  0.00  0.00    +0.210 C 
ATOM     24  C   UNL     1     -34.749  26.219   2.689  0.00  0.00    +0.148 C 
ATOM     25  C   UNL     1     -36.560  25.078   3.785  0.00  0.00    +0.318 C 
ATOM     26  C   UNL     1     -34.517  27.265   1.603  0.00  0.00    +0.035 C 
BRANCH  21  27
ATOM     27  O   UNL     1     -34.022  26.098   6.375  0.00  0.00    -0.379 OA
ATOM     28  H   UNL     1     -33.582  25.374   6.849  0.00  0.00    +0.211 HD
ENDBRANCH  21  27
BRANCH  22  29
ATOM     29  O   UNL     1     -32.688  26.630   3.908  0.00  0.00    -0.379 OA
ATOM     30  H   UNL     1     -32.301  27.038   4.700  0.00  0.00    +0.211 HD
ENDBRANCH  22  29
BRANCH  23  31
ATOM     31  O   UNL     1     -36.643  26.625   5.602  0.00  0.00    -0.377 OA
ATOM     32  H   UNL     1     -36.371  26.824   6.512  0.00  0.00    +0.211 HD
ENDBRANCH  23  31
ENDBRANCH  19  25
ENDBRANCH   3  19
TORSDOF 7
ENDMDL
MODEL 4
REMARK VINA RESULT:      -6.5      2.674      7.368
REMARK  Name = 52951786
REMARK  7 active torsions:
REMARK  status: ('A' for Active; 'I' for Inactive)
REMARK    1  A    between atoms: C_3  and  O_19
REMARK    2  A    between atoms: C_11  and  C_16
REMARK    3  A    between atoms: C_16  and  O_17
REMARK    4  A    between atoms: O_19  and  C_25
REMARK    5  A    between atoms: C_21  and  O_27
REMARK    6  A    between atoms: C_22  and  O_29
REMARK    7  A    between atoms: C_23  and  O_31
REMARK                            x       y       z     vdW  Elec       q    Type
REMARK                         _______ _______ _______ _____ _____    ______ ____
ROOT
ATOM      1  N   UNL     1     -35.180  20.166   1.119  0.00  0.00    -0.398 NA
ATOM      2  N   UNL     1     -36.126  18.015  -0.318  0.00  0.00    -0.400 NA
ATOM      3  C   UNL     1     -37.274  21.258   0.867  0.00  0.00    +0.173 C 
ATOM      4  C   UNL     1     -36.435  20.169   0.642  0.00  0.00    +0.194 C 
ATOM      5  C   UNL     1     -38.579  21.279   0.381  0.00  0.00    +0.040 C 
ATOM      6  C   UNL     1     -36.915  19.077  -0.088  0.00  0.00    +0.163 C 
ATOM      7  C   UNL     1     -39.056  20.197  -0.343  0.00  0.00    +0.006 C 
ATOM      8  C   UNL     1     -38.221  19.104  -0.572  0.00  0.00    +0.035 C 
ATOM      9  C   UNL     1     -34.391  19.105   0.889  0.00  0.00    +0.140 C 
ATOM     10  C   UNL     1     -34.872  18.013   0.159  0.00  0.00    +0.149 C 
ATOM     11  C   UNL     1     -34.032  16.924  -0.067  0.00  0.00    +0.175 C 
ATOM     12  C   UNL     1     -33.084  19.078   1.373  0.00  0.00    +0.087 C 
ATOM     13  C   UNL     1     -32.726  16.902   0.421  0.00  0.00    -0.012 C 
ATOM     14  C   UNL     1     -32.250  17.985   1.143  0.00  0.00    -0.022 C 
ENDROOT
BRANCH  11  16
ATOM     15  O   UNL     1     -34.217  15.522  -1.997  0.00  0.00    -0.249 OA
ATOM     16  C   UNL     1     -34.501  15.767  -0.823  0.00  0.00    +0.324 C 
BRANCH  16  17
ATOM     17  O   UNL     1     -35.307  14.961  -0.083  0.00  0.00    -0.480 OA
ATOM     18  H   UNL     1     -35.224  14.030  -0.146  0.00  0.00    +0.295 HD
ENDBRANCH  16  17
ENDBRANCH  11  16
BRANCH   3  19
ATOM     19  O   UNL     1     -36.824  22.338   1.580  0.00  0.00    -0.448 OA
BRANCH  19  25
ATOM     20  O   UNL     1     -38.344  23.254   3.156  0.00  0.00    -0.319 OA
ATOM     21  C   UNL     1     -35.716  24.347   3.534  0.00  0.00    +0.173 C 
ATOM     22  C   UNL     1     -36.970  25.207   3.688  0.00  0.00    +0.167 C 
ATOM     23  C   UNL     1     -36.026  22.872   3.796  0.00  0.00    +0.210 C 
ATOM     24  C   UNL     1     -38.112  24.631   2.840  0.00  0.00    +0.148 C 
ATOM     25  C   UNL     1     -37.209  22.406   2.949  0.00  0.00    +0.318 C 
ATOM     26  C   UNL     1     -39.427  25.368   3.075  0.00  0.00    +0.035 C 
BRANCH  21  27
ATOM     27  O   UNL     1     -34.719  24.802   4.446  0.00  0.00    -0.379 OA
ATOM     28  H   UNL     1     -33.875  24.904   3.978  0.00  0.00    +0.211 HD
ENDBRANCH  21  27
BRANCH  22  29
ATOM     29  O   UNL     1     -36.658  26.530   3.262  0.00  0.00    -0.379 OA
ATOM     30  H   UNL     1     -36.937  26.647   2.340  0.00  0.00    +0.211 HD
ENDBRANCH  22  29
BRANCH  23  31
ATOM     31  O   UNL     1     -36.372  22.683   5.168  0.00  0.00    -0.377 OA
ATOM     32  H   UNL     1     -36.555  23.543   5.577  0.00  0.00    +0.211 HD
ENDBRANCH  23  31
ENDBRANCH  19  25
ENDBRANCH   3  19
TORSDOF 7
ENDMDL
MODEL 5
REMARK VINA RESULT:      -6.5      2.800      7.944
REMARK  Name = 52951786
REMARK  7 active torsions:
REMARK  status: ('A' for Active; 'I' for Inactive)
REMARK    1  A    between atoms: C_3  and  O_19
REMARK    2  A    between atoms: C_11  and  C_16
REMARK    3  A    between atoms: C_16  and  O_17
REMARK    4  A    between atoms: O_19  and  C_25
REMARK    5  A    between atoms: C_21  and  O_27
REMARK    6  A    between atoms: C_22  and  O_29
REMARK    7  A    between atoms: C_23  and  O_31
REMARK                            x       y       z     vdW  Elec       q    Type
REMARK                         _______ _______ _______ _____ _____    ______ ____
ROOT
ATOM      1  N   UNL     1     -36.925  25.562   2.904  0.00  0.00    -0.398 NA
ATOM      2  N   UNL     1     -37.423  22.879   3.272  0.00  0.00    -0.400 NA
ATOM      3  C   UNL     1     -35.255  25.485   4.591  0.00  0.00    +0.173 C 
ATOM      4  C   UNL     1     -36.233  24.863   3.817  0.00  0.00    +0.194 C 
ATOM      5  C   UNL     1     -34.526  24.777   5.543  0.00  0.00    +0.040 C 
ATOM      6  C   UNL     1     -36.486  23.501   4.005  0.00  0.00    +0.163 C 
ATOM      7  C   UNL     1     -34.777  23.426   5.730  0.00  0.00    +0.006 C 
ATOM      8  C   UNL     1     -35.755  22.797   4.959  0.00  0.00    +0.035 C 
ATOM      9  C   UNL     1     -37.862  24.940   2.171  0.00  0.00    +0.140 C 
ATOM     10  C   UNL     1     -38.115  23.577   2.358  0.00  0.00    +0.149 C 
ATOM     11  C   UNL     1     -39.095  22.956   1.585  0.00  0.00    +0.175 C 
ATOM     12  C   UNL     1     -38.595  25.644   1.217  0.00  0.00    +0.087 C 
ATOM     13  C   UNL     1     -39.823  23.665   0.632  0.00  0.00    -0.012 C 
ATOM     14  C   UNL     1     -39.572  25.015   0.447  0.00  0.00    -0.022 C 
ENDROOT
BRANCH  11  16
ATOM     15  O   UNL     1     -40.468  21.067   2.107  0.00  0.00    -0.249 OA
ATOM     16  C   UNL     1     -39.384  21.536   1.754  0.00  0.00    +0.324 C 
BRANCH  16  17
ATOM     17  O   UNL     1     -38.307  20.754   1.474  0.00  0.00    -0.480 OA
ATOM     18  H   UNL     1     -38.408  19.991   0.941  0.00  0.00    +0.295 HD
ENDBRANCH  16  17
ENDBRANCH  11  16
BRANCH   3  19
ATOM     19  O   UNL     1     -34.990  26.819   4.423  0.00  0.00    -0.448 OA
BRANCH  19  25
ATOM     20  O   UNL     1     -33.436  28.599   4.195  0.00  0.00    -0.319 OA
ATOM     21  C   UNL     1     -33.713  27.176   1.717  0.00  0.00    +0.173 C 
ATOM     22  C   UNL     1     -33.559  28.696   1.754  0.00  0.00    +0.167 C 
ATOM     23  C   UNL     1     -33.092  26.531   2.958  0.00  0.00    +0.210 C 
ATOM     24  C   UNL     1     -34.076  29.246   3.090  0.00  0.00    +0.148 C 
ATOM     25  C   UNL     1     -33.626  27.180   4.234  0.00  0.00    +0.318 C 
ATOM     26  C   UNL     1     -33.809  30.742   3.235  0.00  0.00    +0.035 C 
BRANCH  21  27
ATOM     27  O   UNL     1     -33.085  26.668   0.542  0.00  0.00    -0.379 OA
ATOM     28  H   UNL     1     -33.741  26.599  -0.170  0.00  0.00    +0.211 HD
ENDBRANCH  21  27
BRANCH  22  29
ATOM     29  O   UNL     1     -34.306  29.245   0.672  0.00  0.00    -0.379 OA
ATOM     30  H   UNL     1     -35.213  28.900   0.697  0.00  0.00    +0.211 HD
ENDBRANCH  22  29
BRANCH  23  31
ATOM     31  O   UNL     1     -31.675  26.706   2.941  0.00  0.00    -0.377 OA
ATOM     32  H   UNL     1     -31.242  25.851   3.089  0.00  0.00    +0.211 HD
ENDBRANCH  23  31
ENDBRANCH  19  25
ENDBRANCH   3  19
TORSDOF 7
ENDMDL
MODEL 6
REMARK VINA RESULT:      -6.4      4.391      9.086
REMARK  Name = 52951786
REMARK  7 active torsions:
REMARK  status: ('A' for Active; 'I' for Inactive)
REMARK    1  A    between atoms: C_3  and  O_19
REMARK    2  A    between atoms: C_11  and  C_16
REMARK    3  A    between atoms: C_16  and  O_17
REMARK    4  A    between atoms: O_19  and  C_25
REMARK    5  A    between atoms: C_21  and  O_27
REMARK    6  A    between atoms: C_22  and  O_29
REMARK    7  A    between atoms: C_23  and  O_31
REMARK                            x       y       z     vdW  Elec       q    Type
REMARK                         _______ _______ _______ _____ _____    ______ ____
ROOT
ATOM      1  N   UNL     1     -33.627  26.444   3.781  0.00  0.00    -0.398 NA
ATOM      2  N   UNL     1     -36.199  26.480   2.797  0.00  0.00    -0.400 NA
ATOM      3  C   UNL     1     -33.197  28.534   2.739  0.00  0.00    +0.173 C 
ATOM      4  C   UNL     1     -34.051  27.472   3.030  0.00  0.00    +0.194 C 
ATOM      5  C   UNL     1     -33.619  29.611   1.962  0.00  0.00    +0.040 C 
ATOM      6  C   UNL     1     -35.357  27.491   2.531  0.00  0.00    +0.163 C 
ATOM      7  C   UNL     1     -34.914  29.630   1.466  0.00  0.00    +0.006 C 
ATOM      8  C   UNL     1     -35.774  28.570   1.754  0.00  0.00    +0.035 C 
ATOM      9  C   UNL     1     -34.469  25.433   4.047  0.00  0.00    +0.140 C 
ATOM     10  C   UNL     1     -35.775  25.451   3.548  0.00  0.00    +0.149 C 
ATOM     11  C   UNL     1     -36.629  24.389   3.839  0.00  0.00    +0.175 C 
ATOM     12  C   UNL     1     -34.052  24.352   4.824  0.00  0.00    +0.087 C 
ATOM     13  C   UNL     1     -36.207  23.312   4.616  0.00  0.00    -0.012 C 
ATOM     14  C   UNL     1     -34.912  23.293   5.111  0.00  0.00    -0.022 C 
ENDROOT
BRANCH  11  16
ATOM     15  O   UNL     1     -38.391  23.735   2.358  0.00  0.00    -0.249 OA
ATOM     16  C   UNL     1     -37.998  24.376   3.335  0.00  0.00    +0.324 C 
BRANCH  16  17
ATOM     17  O   UNL     1     -38.825  25.165   4.071  0.00  0.00    -0.480 OA
ATOM     18  H   UNL     1     -39.721  24.921   4.191  0.00  0.00    +0.295 HD
ENDBRANCH  16  17
ENDBRANCH  11  16
BRANCH   3  19
ATOM     19  O   UNL     1     -31.914  28.537   3.219  0.00  0.00    -0.448 OA
BRANCH  19  25
ATOM     20  O   UNL     1     -30.115  29.772   4.154  0.00  0.00    -0.319 OA
ATOM     21  C   UNL     1     -31.567  28.388   6.208  0.00  0.00    +0.173 C 
ATOM     22  C   UNL     1     -30.044  28.517   6.252  0.00  0.00    +0.167 C 
ATOM     23  C   UNL     1     -32.191  29.529   5.402  0.00  0.00    +0.210 C 
ATOM     24  C   UNL     1     -29.488  28.678   4.831  0.00  0.00    +0.148 C 
ATOM     25  C   UNL     1     -31.536  29.646   4.027  0.00  0.00    +0.318 C 
ATOM     26  C   UNL     1     -27.988  28.958   4.833  0.00  0.00    +0.035 C 
BRANCH  21  27
ATOM     27  O   UNL     1     -32.079  28.399   7.540  0.00  0.00    -0.379 OA
ATOM     28  H   UNL     1     -31.383  28.691   8.150  0.00  0.00    +0.211 HD
ENDBRANCH  21  27
BRANCH  22  29
ATOM     29  O   UNL     1     -29.516  27.341   6.858  0.00  0.00    -0.379 OA
ATOM     30  H   UNL     1     -30.053  27.108   7.633  0.00  0.00    +0.211 HD
ENDBRANCH  22  29
BRANCH  23  31
ATOM     31  O   UNL     1     -31.998  30.769   6.083  0.00  0.00    -0.377 OA
ATOM     32  H   UNL     1     -31.290  31.271   5.648  0.00  0.00    +0.211 HD
ENDBRANCH  23  31
ENDBRANCH  19  25
ENDBRANCH   3  19
TORSDOF 7
ENDMDL
MODEL 7
REMARK VINA RESULT:      -6.4      2.742      5.090
REMARK  Name = 52951786
REMARK  7 active torsions:
REMARK  status: ('A' for Active; 'I' for Inactive)
REMARK    1  A    between atoms: C_3  and  O_19
REMARK    2  A    between atoms: C_11  and  C_16
REMARK    3  A    between atoms: C_16  and  O_17
REMARK    4  A    between atoms: O_19  and  C_25
REMARK    5  A    between atoms: C_21  and  O_27
REMARK    6  A    between atoms: C_22  and  O_29
REMARK    7  A    between atoms: C_23  and  O_31
REMARK                            x       y       z     vdW  Elec       q    Type
REMARK                         _______ _______ _______ _____ _____    ______ ____
ROOT
ATOM      1  N   UNL     1     -35.541  26.027   3.142  0.00  0.00    -0.398 NA
ATOM      2  N   UNL     1     -33.603  25.891   5.094  0.00  0.00    -0.400 NA
ATOM      3  C   UNL     1     -36.263  23.836   3.704  0.00  0.00    +0.173 C 
ATOM      4  C   UNL     1     -35.416  24.925   3.897  0.00  0.00    +0.194 C 
ATOM      5  C   UNL     1     -36.149  22.682   4.478  0.00  0.00    +0.040 C 
ATOM      6  C   UNL     1     -34.431  24.855   4.888  0.00  0.00    +0.163 C 
ATOM      7  C   UNL     1     -35.173  22.613   5.460  0.00  0.00    +0.006 C 
ATOM      8  C   UNL     1     -34.321  23.700   5.658  0.00  0.00    +0.035 C 
ATOM      9  C   UNL     1     -34.713  27.063   3.348  0.00  0.00    +0.140 C 
ATOM     10  C   UNL     1     -33.728  26.994   4.339  0.00  0.00    +0.149 C 
ATOM     11  C   UNL     1     -32.880  28.083   4.531  0.00  0.00    +0.175 C 
ATOM     12  C   UNL     1     -34.822  28.219   2.577  0.00  0.00    +0.087 C 
ATOM     13  C   UNL     1     -32.995  29.237   3.758  0.00  0.00    -0.012 C 
ATOM     14  C   UNL     1     -33.971  29.305   2.775  0.00  0.00    -0.022 C 
ENDROOT
BRANCH  11  16
ATOM     15  O   UNL     1     -30.629  28.037   5.341  0.00  0.00    -0.249 OA
ATOM     16  C   UNL     1     -31.843  28.045   5.557  0.00  0.00    +0.324 C 
BRANCH  16  17
ATOM     17  O   UNL     1     -32.361  28.020   6.813  0.00  0.00    -0.480 OA
ATOM     18  H   UNL     1     -31.799  27.882   7.549  0.00  0.00    +0.295 HD
ENDBRANCH  16  17
ENDBRANCH  11  16
BRANCH   3  19
ATOM     19  O   UNL     1     -37.235  23.882   2.739  0.00  0.00    -0.448 OA
BRANCH  19  25
ATOM     20  O   UNL     1     -37.525  23.389   0.436  0.00  0.00    -0.319 OA
ATOM     21  C   UNL     1     -39.568  22.122   2.005  0.00  0.00    +0.173 C 
ATOM     22  C   UNL     1     -39.873  22.733   0.637  0.00  0.00    +0.167 C 
ATOM     23  C   UNL     1     -38.097  21.716   2.110  0.00  0.00    +0.210 C 
ATOM     24  C   UNL     1     -38.873  23.856   0.327  0.00  0.00    +0.148 C 
ATOM     25  C   UNL     1     -37.183  22.880   1.730  0.00  0.00    +0.318 C 
ATOM     26  C   UNL     1     -39.043  24.397  -1.089  0.00  0.00    +0.035 C 
BRANCH  21  27
ATOM     27  O   UNL     1     -40.401  20.982   2.207  0.00  0.00    -0.379 OA
ATOM     28  H   UNL     1     -41.216  21.082   1.690  0.00  0.00    +0.211 HD
ENDBRANCH  21  27
BRANCH  22  29
ATOM     29  O   UNL     1     -41.201  23.248   0.666  0.00  0.00    -0.379 OA
ATOM     30  H   UNL     1     -41.257  24.028   0.091  0.00  0.00    +0.211 HD
ENDBRANCH  22  29
BRANCH  23  31
ATOM     31  O   UNL     1     -37.824  20.638   1.214  0.00  0.00    -0.377 OA
ATOM     32  H   UNL     1     -38.614  20.082   1.128  0.00  0.00    +0.211 HD
ENDBRANCH  23  31
ENDBRANCH  19  25
ENDBRANCH   3  19
TORSDOF 7
ENDMDL
MODEL 8
REMARK VINA RESULT:      -6.3      3.692      6.041
REMARK  Name = 52951786
REMARK  7 active torsions:
REMARK  status: ('A' for Active; 'I' for Inactive)
REMARK    1  A    between atoms: C_3  and  O_19
REMARK    2  A    between atoms: C_11  and  C_16
REMARK    3  A    between atoms: C_16  and  O_17
REMARK    4  A    between atoms: O_19  and  C_25
REMARK    5  A    between atoms: C_21  and  O_27
REMARK    6  A    between atoms: C_22  and  O_29
REMARK    7  A    between atoms: C_23  and  O_31
REMARK                            x       y       z     vdW  Elec       q    Type
REMARK                         _______ _______ _______ _____ _____    ______ ____
ROOT
ATOM      1  N   UNL     1     -35.333  26.295   3.186  0.00  0.00    -0.398 NA
ATOM      2  N   UNL     1     -33.488  25.955   5.202  0.00  0.00    -0.400 NA
ATOM      3  C   UNL     1     -36.196  24.123   3.608  0.00  0.00    +0.173 C 
ATOM      4  C   UNL     1     -35.299  25.152   3.889  0.00  0.00    +0.194 C 
ATOM      5  C   UNL     1     -36.177  22.929   4.327  0.00  0.00    +0.040 C 
ATOM      6  C   UNL     1     -34.362  24.979   4.912  0.00  0.00    +0.163 C 
ATOM      7  C   UNL     1     -35.248  22.758   5.341  0.00  0.00    +0.006 C 
ATOM      8  C   UNL     1     -34.347  23.783   5.627  0.00  0.00    +0.035 C 
ATOM      9  C   UNL     1     -34.458  27.271   3.476  0.00  0.00    +0.140 C 
ATOM     10  C   UNL     1     -33.521  27.099   4.500  0.00  0.00    +0.149 C 
ATOM     11  C   UNL     1     -32.623  28.128   4.779  0.00  0.00    +0.175 C 
ATOM     12  C   UNL     1     -34.472  28.467   2.760  0.00  0.00    +0.087 C 
ATOM     13  C   UNL     1     -32.643  29.322   4.061  0.00  0.00    -0.012 C 
ATOM     14  C   UNL     1     -33.572  29.492   3.046  0.00  0.00    -0.022 C 
ENDROOT
BRANCH  11  16
ATOM     15  O   UNL     1     -30.414  27.916   5.673  0.00  0.00    -0.249 OA
ATOM     16  C   UNL     1     -31.633  27.982   5.841  0.00  0.00    +0.324 C 
BRANCH  16  17
ATOM     17  O   UNL     1     -32.204  27.923   7.073  0.00  0.00    -0.480 OA
ATOM     18  H   UNL     1     -33.129  28.042   7.168  0.00  0.00    +0.295 HD
ENDBRANCH  16  17
ENDBRANCH  11  16
BRANCH   3  19
ATOM     19  O   UNL     1     -37.123  24.271   2.610  0.00  0.00    -0.448 OA
BRANCH  19  25
ATOM     20  O   UNL     1     -39.355  23.513   2.328  0.00  0.00    -0.319 OA
ATOM     21  C   UNL     1     -39.060  26.185   1.321  0.00  0.00    +0.173 C 
ATOM     22  C   UNL     1     -39.937  25.154   0.610  0.00  0.00    +0.167 C 
ATOM     23  C   UNL     1     -38.929  25.861   2.810  0.00  0.00    +0.210 C 
ATOM     24  C   UNL     1     -39.436  23.736   0.916  0.00  0.00    +0.148 C 
ATOM     25  C   UNL     1     -38.480  24.415   3.015  0.00  0.00    +0.318 C 
ATOM     26  C   UNL     1     -40.365  22.666   0.350  0.00  0.00    +0.035 C 
BRANCH  21  27
ATOM     27  O   UNL     1     -39.632  27.482   1.155  0.00  0.00    -0.379 OA
ATOM     28  H   UNL     1     -39.991  27.787   2.004  0.00  0.00    +0.211 HD
ENDBRANCH  21  27
BRANCH  22  29
ATOM     29  O   UNL     1     -39.875  25.407  -0.791  0.00  0.00    -0.379 OA
ATOM     30  H   UNL     1     -39.888  24.565  -1.273  0.00  0.00    +0.211 HD
ENDBRANCH  22  29
BRANCH  23  31
ATOM     31  O   UNL     1     -40.193  26.020   3.456  0.00  0.00    -0.377 OA
ATOM     32  H   UNL     1     -40.438  25.191   3.896  0.00  0.00    +0.211 HD
ENDBRANCH  23  31
ENDBRANCH  19  25
ENDBRANCH   3  19
TORSDOF 7
ENDMDL
MODEL 9
REMARK VINA RESULT:      -6.3      2.321      7.055
REMARK  Name = 52951786
REMARK  7 active torsions:
REMARK  status: ('A' for Active; 'I' for Inactive)
REMARK    1  A    between atoms: C_3  and  O_19
REMARK    2  A    between atoms: C_11  and  C_16
REMARK    3  A    between atoms: C_16  and  O_17
REMARK    4  A    between atoms: O_19  and  C_25
REMARK    5  A    between atoms: C_21  and  O_27
REMARK    6  A    between atoms: C_22  and  O_29
REMARK    7  A    between atoms: C_23  and  O_31
REMARK                            x       y       z     vdW  Elec       q    Type
REMARK                         _______ _______ _______ _____ _____    ______ ____
ROOT
ATOM      1  N   UNL     1     -36.187  20.907   1.863  0.00  0.00    -0.398 NA
ATOM      2  N   UNL     1     -37.141  19.255  -0.124  0.00  0.00    -0.400 NA
ATOM      3  C   UNL     1     -38.256  22.073   1.890  0.00  0.00    +0.173 C 
ATOM      4  C   UNL     1     -37.431  21.069   1.387  0.00  0.00    +0.194 C 
ATOM      5  C   UNL     1     -39.551  22.256   1.409  0.00  0.00    +0.040 C 
ATOM      6  C   UNL     1     -37.916  20.230   0.378  0.00  0.00    +0.163 C 
ATOM      7  C   UNL     1     -40.032  21.425   0.408  0.00  0.00    +0.006 C 
ATOM      8  C   UNL     1     -39.211  20.418  -0.100  0.00  0.00    +0.035 C 
ATOM      9  C   UNL     1     -35.412  19.932   1.362  0.00  0.00    +0.140 C 
ATOM     10  C   UNL     1     -35.897  19.094   0.353  0.00  0.00    +0.149 C 
ATOM     11  C   UNL     1     -35.071  18.090  -0.151  0.00  0.00    +0.175 C 
ATOM     12  C   UNL     1     -34.116  19.745   1.839  0.00  0.00    +0.087 C 
ATOM     13  C   UNL     1     -33.776  17.907   0.331  0.00  0.00    -0.012 C 
ATOM     14  C   UNL     1     -33.296  18.738   1.330  0.00  0.00    -0.022 C 
ENDROOT
BRANCH  11  16
ATOM     15  O   UNL     1     -35.139  17.190  -2.367  0.00  0.00    -0.249 OA
ATOM     16  C   UNL     1     -35.545  17.197  -1.203  0.00  0.00    +0.324 C 
BRANCH  16  17
ATOM     17  O   UNL     1     -36.507  16.345  -0.761  0.00  0.00    -0.480 OA
ATOM     18  H   UNL     1     -37.291  16.683  -0.375  0.00  0.00    +0.295 HD
ENDBRANCH  16  17
ENDBRANCH  11  16
BRANCH   3  19
ATOM     19  O   UNL     1     -37.802  22.905   2.879  0.00  0.00    -0.448 OA
BRANCH  19  25
ATOM     20  O   UNL     1     -36.508  24.576   1.799  0.00  0.00    -0.319 OA
ATOM     21  C   UNL     1     -36.458  24.942   4.646  0.00  0.00    +0.173 C 
ATOM     22  C   UNL     1     -35.217  25.183   3.786  0.00  0.00    +0.167 C 
ATOM     23  C   UNL     1     -37.737  25.124   3.828  0.00  0.00    +0.210 C 
ATOM     24  C   UNL     1     -35.288  24.336   2.509  0.00  0.00    +0.148 C 
ATOM     25  C   UNL     1     -37.691  24.286   2.552  0.00  0.00    +0.318 C 
ATOM     26  C   UNL     1     -34.145  24.652   1.549  0.00  0.00    +0.035 C 
BRANCH  21  27
ATOM     27  O   UNL     1     -36.452  25.850   5.746  0.00  0.00    -0.379 OA
ATOM     28  H   UNL     1     -37.323  25.845   6.174  0.00  0.00    +0.211 HD
ENDBRANCH  21  27
BRANCH  22  29
ATOM     29  O   UNL     1     -34.069  24.827   4.552  0.00  0.00    -0.379 OA
ATOM     30  H   UNL     1     -34.317  24.746   5.487  0.00  0.00    +0.211 HD
ENDBRANCH  22  29
BRANCH  23  31
ATOM     31  O   UNL     1     -37.879  26.493   3.445  0.00  0.00    -0.377 OA
ATOM     32  H   UNL     1     -38.632  26.884   3.915  0.00  0.00    +0.211 HD
ENDBRANCH  23  31
ENDBRANCH  19  25
ENDBRANCH   3  19
TORSDOF 7
ENDMDL
