MODEL 1
REMARK VINA RESULT:      -5.8      0.000      0.000
REMARK  Name = 54607397
REMARK  7 active torsions:
REMARK  status: ('A' for Active; 'I' for Inactive)
REMARK    1  A    between atoms: C_5  and  C_25
REMARK    2  A    between atoms: C_7  and  O_17
REMARK    3  A    between atoms: C_8  and  O_21
REMARK    4  A    between atoms: O_17  and  C_19
REMARK    5  A    between atoms: O_21  and  C_23
REMARK    6  A    between atoms: C_25  and  O_26
REMARK    7  A    between atoms: O_26  and  C_28
REMARK                            x       y       z     vdW  Elec       q    Type
REMARK                         _______ _______ _______ _____ _____    ______ ____
ROOT
ATOM      1  O   UNL     1     -39.326  26.238   3.256  0.00  0.00    -0.351 OA
ATOM      2  O   UNL     1     -36.701  23.723   3.928  0.00  0.00    -0.348 OA
ATOM      3  C   UNL     1     -37.624  25.257   1.689  0.00  0.00    +0.074 C 
ATOM      4  C   UNL     1     -38.382  25.192   2.999  0.00  0.00    +0.152 C 
ATOM      5  C   UNL     1     -37.131  23.736   1.443  0.00  0.00    +0.075 C 
ATOM      6  C   UNL     1     -37.332  25.008   4.046  0.00  0.00    +0.186 C 
ATOM      7  C   UNL     1     -36.455  26.235   2.122  0.00  0.00    +0.213 C 
ATOM      8  C   UNL     1     -36.296  26.071   3.649  0.00  0.00    +0.238 C 
ATOM      9  C   UNL     1     -39.847  24.897   3.194  0.00  0.00    +0.172 C 
ATOM     10  C   UNL     1     -37.105  22.936   2.804  0.00  0.00    +0.140 C 
ATOM     11  C   UNL     1     -38.417  25.845   0.513  0.00  0.00    +0.006 C 
ATOM     12  C   UNL     1     -35.715  23.670   0.809  0.00  0.00    +0.011 C 
ATOM     13  C   UNL     1     -36.237  21.704   2.797  0.00  0.00    -0.006 C 
ATOM     14  C   UNL     1     -35.195  22.243   0.598  0.00  0.00    +0.022 C 
ATOM     15  C   UNL     1     -35.394  21.367   1.805  0.00  0.00    -0.046 C 
ATOM     16  C   UNL     1     -34.601  20.095   1.836  0.00  0.00    +0.026 C 
ENDROOT
BRANCH   7  17
ATOM     17  O   UNL     1     -36.822  27.598   1.878  0.00  0.00    -0.448 OA
BRANCH  17  19
ATOM     18  O   UNL     1     -35.621  29.564   2.054  0.00  0.00    -0.250 OA
ATOM     19  C   UNL     1     -35.789  28.441   1.597  0.00  0.00    +0.318 C 
ATOM     20  C   UNL     1     -34.859  27.786   0.622  0.00  0.00    +0.121 C 
ENDBRANCH  17  19
ENDBRANCH   7  17
BRANCH   8  21
ATOM     21  O   UNL     1     -34.970  25.692   3.976  0.00  0.00    -0.446 OA
BRANCH  21  23
ATOM     22  O   UNL     1     -33.826  27.673   4.301  0.00  0.00    -0.250 OA
ATOM     23  C   UNL     1     -34.251  26.600   4.707  0.00  0.00    +0.318 C 
ATOM     24  C   UNL     1     -34.049  26.091   6.103  0.00  0.00    +0.121 C 
ENDBRANCH  21  23
ENDBRANCH   8  21
BRANCH   5  25
ATOM     25  C   UNL     1     -38.119  22.983   0.505  0.00  0.00    +0.211 C 
BRANCH  25  26
ATOM     26  O   UNL     1     -38.946  22.187   1.316  0.00  0.00    -0.448 OA
BRANCH  26  28
ATOM     27  O   UNL     1     -40.760  20.871   0.757  0.00  0.00    -0.250 OA
ATOM     28  C   UNL     1     -39.565  21.126   0.702  0.00  0.00    +0.318 C 
ATOM     29  C   UNL     1     -38.566  20.305  -0.057  0.00  0.00    +0.121 C 
ENDBRANCH  26  28
ENDBRANCH  25  26
ENDBRANCH   5  25
TORSDOF 7
ENDMDL
MODEL 2
REMARK VINA RESULT:      -5.7      2.128      6.009
REMARK  Name = 54607397
REMARK  7 active torsions:
REMARK  status: ('A' for Active; 'I' for Inactive)
REMARK    1  A    between atoms: C_5  and  C_25
REMARK    2  A    between atoms: C_7  and  O_17
REMARK    3  A    between atoms: C_8  and  O_21
REMARK    4  A    between atoms: O_17  and  C_19
REMARK    5  A    between atoms: O_21  and  C_23
REMARK    6  A    between atoms: C_25  and  O_26
REMARK    7  A    between atoms: O_26  and  C_28
REMARK                            x       y       z     vdW  Elec       q    Type
REMARK                         _______ _______ _______ _____ _____    ______ ____
ROOT
ATOM      1  O   UNL     1     -38.650  24.374   3.486  0.00  0.00    -0.351 OA
ATOM      2  O   UNL     1     -36.221  24.306   0.701  0.00  0.00    -0.348 OA
ATOM      3  C   UNL     1     -36.175  24.803   3.524  0.00  0.00    +0.074 C 
ATOM      4  C   UNL     1     -37.466  24.676   2.741  0.00  0.00    +0.152 C 
ATOM      5  C   UNL     1     -35.215  25.680   2.560  0.00  0.00    +0.075 C 
ATOM      6  C   UNL     1     -37.152  23.728   1.630  0.00  0.00    +0.186 C 
ATOM      7  C   UNL     1     -35.768  23.274   3.593  0.00  0.00    +0.213 C 
ATOM      8  C   UNL     1     -36.424  22.596   2.370  0.00  0.00    +0.238 C 
ATOM      9  C   UNL     1     -38.642  25.616   2.759  0.00  0.00    +0.172 C 
ATOM     10  C   UNL     1     -35.703  25.590   1.062  0.00  0.00    +0.140 C 
ATOM     11  C   UNL     1     -36.331  25.388   4.935  0.00  0.00    +0.006 C 
ATOM     12  C   UNL     1     -33.735  25.217   2.623  0.00  0.00    +0.011 C 
ATOM     13  C   UNL     1     -34.660  25.948   0.035  0.00  0.00    -0.006 C 
ATOM     14  C   UNL     1     -32.799  25.998   1.692  0.00  0.00    +0.022 C 
ATOM     15  C   UNL     1     -33.360  26.156   0.304  0.00  0.00    -0.046 C 
ATOM     16  C   UNL     1     -32.385  26.566  -0.760  0.00  0.00    +0.026 C 
ENDROOT
BRANCH   7  17
ATOM     17  O   UNL     1     -36.317  22.658   4.764  0.00  0.00    -0.448 OA
BRANCH  17  19
ATOM     18  O   UNL     1     -35.059  20.728   4.922  0.00  0.00    -0.250 OA
ATOM     19  C   UNL     1     -35.502  21.766   5.393  0.00  0.00    +0.318 C 
ATOM     20  C   UNL     1     -35.214  22.246   6.784  0.00  0.00    +0.121 C 
ENDBRANCH  17  19
ENDBRANCH   7  17
BRANCH   8  21
ATOM     21  O   UNL     1     -35.446  21.956   1.569  0.00  0.00    -0.446 OA
BRANCH  21  23
ATOM     22  O   UNL     1     -36.440  19.889   1.855  0.00  0.00    -0.250 OA
ATOM     23  C   UNL     1     -35.477  20.586   1.565  0.00  0.00    +0.318 C 
ATOM     24  C   UNL     1     -34.143  20.044   1.150  0.00  0.00    +0.121 C 
ENDBRANCH  21  23
ENDBRANCH   8  21
BRANCH   5  25
ATOM     25  C   UNL     1     -35.270  27.186   2.955  0.00  0.00    +0.211 C 
BRANCH  25  26
ATOM     26  O   UNL     1     -36.151  27.822   2.064  0.00  0.00    -0.448 OA
BRANCH  26  28
ATOM     27  O   UNL     1     -36.699  29.978   1.442  0.00  0.00    -0.250 OA
ATOM     28  C   UNL     1     -35.875  29.133   1.763  0.00  0.00    +0.318 C 
ATOM     29  C   UNL     1     -34.404  29.399   1.881  0.00  0.00    +0.121 C 
ENDBRANCH  26  28
ENDBRANCH  25  26
ENDBRANCH   5  25
TORSDOF 7
ENDMDL
MODEL 3
REMARK VINA RESULT:      -5.7      1.699      2.083
REMARK  Name = 54607397
REMARK  7 active torsions:
REMARK  status: ('A' for Active; 'I' for Inactive)
REMARK    1  A    between atoms: C_5  and  C_25
REMARK    2  A    between atoms: C_7  and  O_17
REMARK    3  A    between atoms: C_8  and  O_21
REMARK    4  A    between atoms: O_17  and  C_19
REMARK    5  A    between atoms: O_21  and  C_23
REMARK    6  A    between atoms: C_25  and  O_26
REMARK    7  A    between atoms: O_26  and  C_28
REMARK                            x       y       z     vdW  Elec       q    Type
REMARK                         _______ _______ _______ _____ _____    ______ ____
ROOT
ATOM      1  O   UNL     1     -38.887  24.029   2.497  0.00  0.00    -0.351 OA
ATOM      2  O   UNL     1     -36.059  21.843   3.440  0.00  0.00    -0.348 OA
ATOM      3  C   UNL     1     -36.823  23.444   1.189  0.00  0.00    +0.074 C 
ATOM      4  C   UNL     1     -37.767  23.151   2.337  0.00  0.00    +0.152 C 
ATOM      5  C   UNL     1     -36.073  22.034   0.926  0.00  0.00    +0.075 C 
ATOM      6  C   UNL     1     -36.887  23.013   3.536  0.00  0.00    +0.186 C 
ATOM      7  C   UNL     1     -35.902  24.526   1.888  0.00  0.00    +0.213 C 
ATOM      8  C   UNL     1     -35.971  24.240   3.404  0.00  0.00    +0.238 C 
ATOM      9  C   UNL     1     -39.183  22.643   2.249  0.00  0.00    +0.172 C 
ATOM     10  C   UNL     1     -36.151  21.119   2.210  0.00  0.00    +0.140 C 
ATOM     11  C   UNL     1     -37.492  24.028  -0.065  0.00  0.00    +0.006 C 
ATOM     12  C   UNL     1     -34.579  22.222   0.548  0.00  0.00    +0.011 C 
ATOM     13  C   UNL     1     -35.118  20.022   2.269  0.00  0.00    -0.006 C 
ATOM     14  C   UNL     1     -33.823  20.906   0.331  0.00  0.00    +0.022 C 
ATOM     15  C   UNL     1     -34.084  19.900   1.420  0.00  0.00    -0.046 C 
ATOM     16  C   UNL     1     -33.124  18.750   1.500  0.00  0.00    +0.026 C 
ENDROOT
BRANCH   7  17
ATOM     17  O   UNL     1     -36.424  25.843   1.680  0.00  0.00    -0.448 OA
BRANCH  17  19
ATOM     18  O   UNL     1     -35.609  27.925   2.258  0.00  0.00    -0.250 OA
ATOM     19  C   UNL     1     -35.502  26.847   1.691  0.00  0.00    +0.318 C 
ATOM     20  C   UNL     1     -34.306  26.436   0.887  0.00  0.00    +0.121 C 
ENDBRANCH  17  19
ENDBRANCH   7  17
BRANCH   8  21
ATOM     21  O   UNL     1     -34.676  24.016   3.931  0.00  0.00    -0.446 OA
BRANCH  21  23
ATOM     22  O   UNL     1     -32.995  25.591   4.119  0.00  0.00    -0.250 OA
ATOM     23  C   UNL     1     -34.057  25.106   4.485  0.00  0.00    +0.318 C 
ATOM     24  C   UNL     1     -34.874  25.635   5.624  0.00  0.00    +0.121 C 
ENDBRANCH  21  23
ENDBRANCH   8  21
BRANCH   5  25
ATOM     25  C   UNL     1     -36.771  21.247  -0.222  0.00  0.00    +0.211 C 
BRANCH  25  26
ATOM     26  O   UNL     1     -37.672  20.346   0.372  0.00  0.00    -0.448 OA
BRANCH  26  28
ATOM     27  O   UNL     1     -39.147  18.969  -0.751  0.00  0.00    -0.250 OA
ATOM     28  C   UNL     1     -38.017  19.246  -0.374  0.00  0.00    +0.318 C 
ATOM     29  C   UNL     1     -36.806  18.414  -0.671  0.00  0.00    +0.121 C 
ENDBRANCH  26  28
ENDBRANCH  25  26
ENDBRANCH   5  25
TORSDOF 7
ENDMDL
MODEL 4
REMARK VINA RESULT:      -5.6      2.843      4.418
REMARK  Name = 54607397
REMARK  7 active torsions:
REMARK  status: ('A' for Active; 'I' for Inactive)
REMARK    1  A    between atoms: C_5  and  C_25
REMARK    2  A    between atoms: C_7  and  O_17
REMARK    3  A    between atoms: C_8  and  O_21
REMARK    4  A    between atoms: O_17  and  C_19
REMARK    5  A    between atoms: O_21  and  C_23
REMARK    6  A    between atoms: C_25  and  O_26
REMARK    7  A    between atoms: O_26  and  C_28
REMARK                            x       y       z     vdW  Elec       q    Type
REMARK                         _______ _______ _______ _____ _____    ______ ____
ROOT
ATOM      1  O   UNL     1     -38.666  21.565   0.778  0.00  0.00    -0.351 OA
ATOM      2  O   UNL     1     -35.685  19.928   2.227  0.00  0.00    -0.348 OA
ATOM      3  C   UNL     1     -36.235  21.969   0.291  0.00  0.00    +0.074 C 
ATOM      4  C   UNL     1     -37.320  21.087   0.874  0.00  0.00    +0.152 C 
ATOM      5  C   UNL     1     -35.002  20.955   0.028  0.00  0.00    +0.075 C 
ATOM      6  C   UNL     1     -36.854  20.763   2.255  0.00  0.00    +0.186 C 
ATOM      7  C   UNL     1     -36.003  22.934   1.525  0.00  0.00    +0.213 C 
ATOM      8  C   UNL     1     -36.426  22.141   2.781  0.00  0.00    +0.238 C 
ATOM      9  C   UNL     1     -38.374  20.318   0.121  0.00  0.00    +0.172 C 
ATOM     10  C   UNL     1     -35.143  19.667   0.929  0.00  0.00    +0.140 C 
ATOM     11  C   UNL     1     -36.651  22.768  -0.953  0.00  0.00    +0.006 C 
ATOM     12  C   UNL     1     -33.625  21.611   0.322  0.00  0.00    +0.011 C 
ATOM     13  C   UNL     1     -33.864  18.896   1.135  0.00  0.00    -0.006 C 
ATOM     14  C   UNL     1     -32.432  20.668   0.124  0.00  0.00    +0.022 C 
ATOM     15  C   UNL     1     -32.646  19.320   0.759  0.00  0.00    -0.046 C 
ATOM     16  C   UNL     1     -31.420  18.475   0.943  0.00  0.00    +0.026 C 
ENDROOT
BRANCH   7  17
ATOM     17  O   UNL     1     -36.860  24.079   1.439  0.00  0.00    -0.448 OA
BRANCH  17  19
ATOM     18  O   UNL     1     -37.142  25.881   2.856  0.00  0.00    -0.250 OA
ATOM     19  C   UNL     1     -36.448  25.173   2.139  0.00  0.00    +0.318 C 
ATOM     20  C   UNL     1     -34.986  25.397   1.902  0.00  0.00    +0.121 C 
ENDBRANCH  17  19
ENDBRANCH   7  17
BRANCH   8  21
ATOM     21  O   UNL     1     -35.357  22.066   3.709  0.00  0.00    -0.446 OA
BRANCH  21  23
ATOM     22  O   UNL     1     -36.337  23.537   5.198  0.00  0.00    -0.250 OA
ATOM     23  C   UNL     1     -35.605  22.588   4.951  0.00  0.00    +0.318 C 
ATOM     24  C   UNL     1     -34.841  21.824   5.990  0.00  0.00    +0.121 C 
ENDBRANCH  21  23
ENDBRANCH   8  21
BRANCH   5  25
ATOM     25  C   UNL     1     -35.000  20.465  -1.450  0.00  0.00    +0.211 C 
BRANCH  25  26
ATOM     26  O   UNL     1     -35.602  19.194  -1.472  0.00  0.00    -0.448 OA
BRANCH  26  28
ATOM     27  O   UNL     1     -35.780  17.409  -2.926  0.00  0.00    -0.250 OA
ATOM     28  C   UNL     1     -35.134  18.313  -2.416  0.00  0.00    +0.318 C 
ATOM     29  C   UNL     1     -33.702  18.610  -2.745  0.00  0.00    +0.121 C 
ENDBRANCH  26  28
ENDBRANCH  25  26
ENDBRANCH   5  25
TORSDOF 7
ENDMDL
MODEL 5
REMARK VINA RESULT:      -5.4      1.934      5.761
REMARK  Name = 54607397
REMARK  7 active torsions:
REMARK  status: ('A' for Active; 'I' for Inactive)
REMARK    1  A    between atoms: C_5  and  C_25
REMARK    2  A    between atoms: C_7  and  O_17
REMARK    3  A    between atoms: C_8  and  O_21
REMARK    4  A    between atoms: O_17  and  C_19
REMARK    5  A    between atoms: O_21  and  C_23
REMARK    6  A    between atoms: C_25  and  O_26
REMARK    7  A    between atoms: O_26  and  C_28
REMARK                            x       y       z     vdW  Elec       q    Type
REMARK                         _______ _______ _______ _____ _____    ______ ____
ROOT
ATOM      1  O   UNL     1     -36.215  25.932  -0.409  0.00  0.00    -0.351 OA
ATOM      2  O   UNL     1     -36.503  23.189   2.052  0.00  0.00    -0.348 OA
ATOM      3  C   UNL     1     -36.404  26.054   2.093  0.00  0.00    +0.074 C 
ATOM      4  C   UNL     1     -36.113  25.248   0.844  0.00  0.00    +0.152 C 
ATOM      5  C   UNL     1     -35.667  25.230   3.274  0.00  0.00    +0.075 C 
ATOM      6  C   UNL     1     -36.955  24.020   0.970  0.00  0.00    +0.186 C 
ATOM      7  C   UNL     1     -37.982  25.917   2.121  0.00  0.00    +0.213 C 
ATOM      8  C   UNL     1     -38.316  24.606   1.376  0.00  0.00    +0.238 C 
ATOM      9  C   UNL     1     -34.927  25.383  -0.075  0.00  0.00    +0.172 C 
ATOM     10  C   UNL     1     -35.440  23.728   2.843  0.00  0.00    +0.140 C 
ATOM     11  C   UNL     1     -35.989  27.530   2.020  0.00  0.00    +0.006 C 
ATOM     12  C   UNL     1     -36.478  25.243   4.598  0.00  0.00    +0.011 C 
ATOM     13  C   UNL     1     -35.213  22.770   3.984  0.00  0.00    -0.006 C 
ATOM     14  C   UNL     1     -35.831  24.437   5.731  0.00  0.00    +0.022 C 
ATOM     15  C   UNL     1     -35.361  23.079   5.284  0.00  0.00    -0.046 C 
ATOM     16  C   UNL     1     -35.063  22.091   6.373  0.00  0.00    +0.026 C 
ENDROOT
BRANCH   7  17
ATOM     17  O   UNL     1     -38.595  26.987   1.392  0.00  0.00    -0.448 OA
BRANCH  17  19
ATOM     18  O   UNL     1     -40.728  26.814   2.259  0.00  0.00    -0.250 OA
ATOM     19  C   UNL     1     -39.955  26.943   1.320  0.00  0.00    +0.318 C 
ATOM     20  C   UNL     1     -40.385  27.076  -0.109  0.00  0.00    +0.121 C 
ENDBRANCH  17  19
ENDBRANCH   7  17
BRANCH   8  21
ATOM     21  O   UNL     1     -39.063  23.734   2.207  0.00  0.00    -0.446 OA
BRANCH  21  23
ATOM     22  O   UNL     1     -41.068  23.467   1.090  0.00  0.00    -0.250 OA
ATOM     23  C   UNL     1     -40.047  23.011   1.587  0.00  0.00    +0.318 C 
ATOM     24  C   UNL     1     -39.698  21.553   1.598  0.00  0.00    +0.121 C 
ENDBRANCH  21  23
ENDBRANCH   8  21
BRANCH   5  25
ATOM     25  C   UNL     1     -34.257  25.826   3.562  0.00  0.00    +0.211 C 
BRANCH  25  26
ATOM     26  O   UNL     1     -34.404  26.775   4.589  0.00  0.00    -0.448 OA
BRANCH  26  28
ATOM     27  O   UNL     1     -32.887  26.764   6.331  0.00  0.00    -0.250 OA
ATOM     28  C   UNL     1     -33.254  27.161   5.234  0.00  0.00    +0.318 C 
ATOM     29  C   UNL     1     -32.494  28.149   4.402  0.00  0.00    +0.121 C 
ENDBRANCH  26  28
ENDBRANCH  25  26
ENDBRANCH   5  25
TORSDOF 7
ENDMDL
MODEL 6
REMARK VINA RESULT:      -5.3      1.802      6.396
REMARK  Name = 54607397
REMARK  7 active torsions:
REMARK  status: ('A' for Active; 'I' for Inactive)
REMARK    1  A    between atoms: C_5  and  C_25
REMARK    2  A    between atoms: C_7  and  O_17
REMARK    3  A    between atoms: C_8  and  O_21
REMARK    4  A    between atoms: O_17  and  C_19
REMARK    5  A    between atoms: O_21  and  C_23
REMARK    6  A    between atoms: C_25  and  O_26
REMARK    7  A    between atoms: O_26  and  C_28
REMARK                            x       y       z     vdW  Elec       q    Type
REMARK                         _______ _______ _______ _____ _____    ______ ____
ROOT
ATOM      1  O   UNL     1     -36.360  24.567   5.457  0.00  0.00    -0.351 OA
ATOM      2  O   UNL     1     -37.961  26.095   2.496  0.00  0.00    -0.348 OA
ATOM      3  C   UNL     1     -35.453  24.863   3.133  0.00  0.00    +0.074 C 
ATOM      4  C   UNL     1     -36.471  25.229   4.192  0.00  0.00    +0.152 C 
ATOM      5  C   UNL     1     -35.469  26.124   2.118  0.00  0.00    +0.075 C 
ATOM      6  C   UNL     1     -37.797  25.097   3.517  0.00  0.00    +0.186 C 
ATOM      7  C   UNL     1     -36.154  23.572   2.542  0.00  0.00    +0.213 C 
ATOM      8  C   UNL     1     -37.665  23.736   2.816  0.00  0.00    +0.238 C 
ATOM      9  C   UNL     1     -36.230  26.001   5.464  0.00  0.00    +0.172 C 
ATOM     10  C   UNL     1     -36.822  26.925   2.252  0.00  0.00    +0.140 C 
ATOM     11  C   UNL     1     -34.055  24.524   3.671  0.00  0.00    +0.006 C 
ATOM     12  C   UNL     1     -35.300  25.691   0.637  0.00  0.00    +0.011 C 
ATOM     13  C   UNL     1     -37.160  27.799   1.072  0.00  0.00    -0.006 C 
ATOM     14  C   UNL     1     -35.351  26.855  -0.361  0.00  0.00    +0.022 C 
ATOM     15  C   UNL     1     -36.496  27.796  -0.097  0.00  0.00    -0.046 C 
ATOM     16  C   UNL     1     -36.850  28.734  -1.213  0.00  0.00    +0.026 C 
ENDROOT
BRANCH   7  17
ATOM     17  O   UNL     1     -35.722  22.398   3.241  0.00  0.00    -0.448 OA
BRANCH  17  19
ATOM     18  O   UNL     1     -35.843  20.150   2.725  0.00  0.00    -0.250 OA
ATOM     19  C   UNL     1     -35.512  21.299   2.464  0.00  0.00    +0.318 C 
ATOM     20  C   UNL     1     -34.798  21.701   1.210  0.00  0.00    +0.121 C 
ENDBRANCH  17  19
ENDBRANCH   7  17
BRANCH   8  21
ATOM     21  O   UNL     1     -38.403  23.667   1.609  0.00  0.00    -0.446 OA
BRANCH  21  23
ATOM     22  O   UNL     1     -40.703  23.468   1.494  0.00  0.00    -0.250 OA
ATOM     23  C   UNL     1     -39.591  22.987   1.671  0.00  0.00    +0.318 C 
ATOM     24  C   UNL     1     -39.342  21.545   1.993  0.00  0.00    +0.121 C 
ENDBRANCH  21  23
ENDBRANCH   8  21
BRANCH   5  25
ATOM     25  C   UNL     1     -34.325  27.123   2.466  0.00  0.00    +0.211 C 
BRANCH  25  26
ATOM     26  O   UNL     1     -34.886  28.147   3.248  0.00  0.00    -0.448 OA
BRANCH  26  28
ATOM     27  O   UNL     1     -34.923  30.445   3.479  0.00  0.00    -0.250 OA
ATOM     28  C   UNL     1     -34.517  29.431   2.929  0.00  0.00    +0.318 C 
ATOM     29  C   UNL     1     -33.535  29.427   1.796  0.00  0.00    +0.121 C 
ENDBRANCH  26  28
ENDBRANCH  25  26
ENDBRANCH   5  25
TORSDOF 7
ENDMDL
MODEL 7
REMARK VINA RESULT:      -5.3      2.539      3.621
REMARK  Name = 54607397
REMARK  7 active torsions:
REMARK  status: ('A' for Active; 'I' for Inactive)
REMARK    1  A    between atoms: C_5  and  C_25
REMARK    2  A    between atoms: C_7  and  O_17
REMARK    3  A    between atoms: C_8  and  O_21
REMARK    4  A    between atoms: O_17  and  C_19
REMARK    5  A    between atoms: O_21  and  C_23
REMARK    6  A    between atoms: C_25  and  O_26
REMARK    7  A    between atoms: O_26  and  C_28
REMARK                            x       y       z     vdW  Elec       q    Type
REMARK                         _______ _______ _______ _____ _____    ______ ____
ROOT
ATOM      1  O   UNL     1     -36.434  27.233   0.742  0.00  0.00    -0.351 OA
ATOM      2  O   UNL     1     -35.161  25.874   3.935  0.00  0.00    -0.348 OA
ATOM      3  C   UNL     1     -35.769  24.879   1.316  0.00  0.00    +0.074 C 
ATOM      4  C   UNL     1     -36.154  26.273   1.767  0.00  0.00    +0.152 C 
ATOM      5  C   UNL     1     -36.090  23.947   2.600  0.00  0.00    +0.075 C 
ATOM      6  C   UNL     1     -35.095  26.672   2.742  0.00  0.00    +0.186 C 
ATOM      7  C   UNL     1     -34.220  25.109   1.079  0.00  0.00    +0.213 C 
ATOM      8  C   UNL     1     -33.810  26.282   1.996  0.00  0.00    +0.238 C 
ATOM      9  C   UNL     1     -37.505  26.929   1.653  0.00  0.00    +0.172 C 
ATOM     10  C   UNL     1     -36.122  24.814   3.918  0.00  0.00    +0.140 C 
ATOM     11  C   UNL     1     -36.452  24.406   0.025  0.00  0.00    +0.006 C 
ATOM     12  C   UNL     1     -35.045  22.814   2.783  0.00  0.00    +0.011 C 
ATOM     13  C   UNL     1     -35.936  24.033   5.194  0.00  0.00    -0.006 C 
ATOM     14  C   UNL     1     -35.292  21.934   4.014  0.00  0.00    +0.022 C 
ATOM     15  C   UNL     1     -35.587  22.736   5.252  0.00  0.00    -0.046 C 
ATOM     16  C   UNL     1     -35.475  22.003   6.556  0.00  0.00    +0.026 C 
ENDROOT
BRANCH   7  17
ATOM     17  O   UNL     1     -33.972  25.520  -0.271  0.00  0.00    -0.448 OA
BRANCH  17  19
ATOM     18  O   UNL     1     -31.984  26.330  -1.125  0.00  0.00    -0.250 OA
ATOM     19  C   UNL     1     -32.677  25.423  -0.684  0.00  0.00    +0.318 C 
ATOM     20  C   UNL     1     -32.205  24.010  -0.522  0.00  0.00    +0.121 C 
ENDBRANCH  17  19
ENDBRANCH   7  17
BRANCH   8  21
ATOM     21  O   UNL     1     -32.765  25.892   2.870  0.00  0.00    -0.446 OA
BRANCH  21  23
ATOM     22  O   UNL     1     -30.524  25.900   2.308  0.00  0.00    -0.250 OA
ATOM     23  C   UNL     1     -31.547  26.478   2.648  0.00  0.00    +0.318 C 
ATOM     24  C   UNL     1     -31.638  27.955   2.883  0.00  0.00    +0.121 C 
ENDBRANCH  21  23
ENDBRANCH   8  21
BRANCH   5  25
ATOM     25  C   UNL     1     -37.497  23.293   2.464  0.00  0.00    +0.211 C 
BRANCH  25  26
ATOM     26  O   UNL     1     -38.389  24.048   3.247  0.00  0.00    -0.448 OA
BRANCH  26  28
ATOM     27  O   UNL     1     -40.267  23.218   2.190  0.00  0.00    -0.250 OA
ATOM     28  C   UNL     1     -39.690  24.100   2.811  0.00  0.00    +0.318 C 
ATOM     29  C   UNL     1     -40.322  25.402   3.202  0.00  0.00    +0.121 C 
ENDBRANCH  26  28
ENDBRANCH  25  26
ENDBRANCH   5  25
TORSDOF 7
ENDMDL
MODEL 8
REMARK VINA RESULT:      -5.0      1.471      4.189
REMARK  Name = 54607397
REMARK  7 active torsions:
REMARK  status: ('A' for Active; 'I' for Inactive)
REMARK    1  A    between atoms: C_5  and  C_25
REMARK    2  A    between atoms: C_7  and  O_17
REMARK    3  A    between atoms: C_8  and  O_21
REMARK    4  A    between atoms: O_17  and  C_19
REMARK    5  A    between atoms: O_21  and  C_23
REMARK    6  A    between atoms: C_25  and  O_26
REMARK    7  A    between atoms: O_26  and  C_28
REMARK                            x       y       z     vdW  Elec       q    Type
REMARK                         _______ _______ _______ _____ _____    ______ ____
ROOT
ATOM      1  O   UNL     1     -34.079  23.651   1.121  0.00  0.00    -0.351 OA
ATOM      2  O   UNL     1     -37.205  25.535   0.533  0.00  0.00    -0.348 OA
ATOM      3  C   UNL     1     -36.092  23.894   2.604  0.00  0.00    +0.074 C 
ATOM      4  C   UNL     1     -35.459  24.015   1.233  0.00  0.00    +0.152 C 
ATOM      5  C   UNL     1     -37.678  23.797   2.298  0.00  0.00    +0.075 C 
ATOM      6  C   UNL     1     -35.795  25.396   0.772  0.00  0.00    +0.186 C 
ATOM      7  C   UNL     1     -35.653  25.290   3.210  0.00  0.00    +0.213 C 
ATOM      8  C   UNL     1     -35.450  26.239   2.008  0.00  0.00    +0.238 C 
ATOM      9  C   UNL     1     -35.013  22.894   0.330  0.00  0.00    +0.172 C 
ATOM     10  C   UNL     1     -38.006  24.400   0.876  0.00  0.00    +0.140 C 
ATOM     11  C   UNL     1     -35.559  22.737   3.462  0.00  0.00    +0.006 C 
ATOM     12  C   UNL     1     -38.530  24.548   3.356  0.00  0.00    +0.011 C 
ATOM     13  C   UNL     1     -39.444  24.801   0.675  0.00  0.00    -0.006 C 
ATOM     14  C   UNL     1     -40.038  24.514   3.079  0.00  0.00    +0.022 C 
ATOM     15  C   UNL     1     -40.372  24.834   1.646  0.00  0.00    -0.046 C 
ATOM     16  C   UNL     1     -41.803  25.189   1.365  0.00  0.00    +0.026 C 
ENDROOT
BRANCH   7  17
ATOM     17  O   UNL     1     -34.391  25.176   3.877  0.00  0.00    -0.448 OA
BRANCH  17  19
ATOM     18  O   UNL     1     -33.285  26.250   5.597  0.00  0.00    -0.250 OA
ATOM     19  C   UNL     1     -34.304  25.815   5.077  0.00  0.00    +0.318 C 
ATOM     20  C   UNL     1     -35.666  25.914   5.693  0.00  0.00    +0.121 C 
ENDBRANCH  17  19
ENDBRANCH   7  17
BRANCH   8  21
ATOM     21  O   UNL     1     -36.269  27.388   2.134  0.00  0.00    -0.446 OA
BRANCH  21  23
ATOM     22  O   UNL     1     -36.074  29.497   1.210  0.00  0.00    -0.250 OA
ATOM     23  C   UNL     1     -35.651  28.591   1.916  0.00  0.00    +0.318 C 
ATOM     24  C   UNL     1     -34.360  28.651   2.675  0.00  0.00    +0.121 C 
ENDBRANCH  21  23
ENDBRANCH   8  21
BRANCH   5  25
ATOM     25  C   UNL     1     -38.142  22.311   2.267  0.00  0.00    +0.211 C 
BRANCH  25  26
ATOM     26  O   UNL     1     -38.313  21.952   0.918  0.00  0.00    -0.448 OA
BRANCH  26  28
ATOM     27  O   UNL     1     -40.441  21.085   1.152  0.00  0.00    -0.250 OA
ATOM     28  C   UNL     1     -39.328  21.066   0.647  0.00  0.00    +0.318 C 
ATOM     29  C   UNL     1     -38.883  20.056  -0.368  0.00  0.00    +0.121 C 
ENDBRANCH  26  28
ENDBRANCH  25  26
ENDBRANCH   5  25
TORSDOF 7
ENDMDL
MODEL 9
REMARK VINA RESULT:      -4.9      2.423      5.572
REMARK  Name = 54607397
REMARK  7 active torsions:
REMARK  status: ('A' for Active; 'I' for Inactive)
REMARK    1  A    between atoms: C_5  and  C_25
REMARK    2  A    between atoms: C_7  and  O_17
REMARK    3  A    between atoms: C_8  and  O_21
REMARK    4  A    between atoms: O_17  and  C_19
REMARK    5  A    between atoms: O_21  and  C_23
REMARK    6  A    between atoms: C_25  and  O_26
REMARK    7  A    between atoms: O_26  and  C_28
REMARK                            x       y       z     vdW  Elec       q    Type
REMARK                         _______ _______ _______ _____ _____    ______ ____
ROOT
ATOM      1  O   UNL     1     -33.588  24.547   0.962  0.00  0.00    -0.351 OA
ATOM      2  O   UNL     1     -36.360  25.108   3.342  0.00  0.00    -0.348 OA
ATOM      3  C   UNL     1     -35.978  23.784   0.829  0.00  0.00    +0.074 C 
ATOM      4  C   UNL     1     -34.931  24.695   1.436  0.00  0.00    +0.152 C 
ATOM      5  C   UNL     1     -37.375  24.553   1.102  0.00  0.00    +0.075 C 
ATOM      6  C   UNL     1     -35.105  24.555   2.913  0.00  0.00    +0.186 C 
ATOM      7  C   UNL     1     -35.771  22.511   1.748  0.00  0.00    +0.213 C 
ATOM      8  C   UNL     1     -35.190  23.030   3.082  0.00  0.00    +0.238 C 
ATOM      9  C   UNL     1     -34.207  25.831   0.763  0.00  0.00    +0.172 C 
ATOM     10  C   UNL     1     -37.222  25.571   2.299  0.00  0.00    +0.140 C 
ATOM     11  C   UNL     1     -35.749  23.431  -0.648  0.00  0.00    +0.006 C 
ATOM     12  C   UNL     1     -38.532  23.573   1.438  0.00  0.00    +0.011 C 
ATOM     13  C   UNL     1     -38.517  25.982   2.950  0.00  0.00    -0.006 C 
ATOM     14  C   UNL     1     -39.865  24.267   1.744  0.00  0.00    +0.022 C 
ATOM     15  C   UNL     1     -39.713  25.424   2.695  0.00  0.00    -0.046 C 
ATOM     16  C   UNL     1     -40.974  25.921   3.337  0.00  0.00    +0.026 C 
ENDROOT
BRANCH   7  17
ATOM     17  O   UNL     1     -34.797  21.629   1.177  0.00  0.00    -0.448 OA
BRANCH  17  19
ATOM     18  O   UNL     1     -34.086  19.507   1.747  0.00  0.00    -0.250 OA
ATOM     19  C   UNL     1     -34.966  20.307   1.461  0.00  0.00    +0.318 C 
ATOM     20  C   UNL     1     -36.421  19.958   1.369  0.00  0.00    +0.121 C 
ENDBRANCH  17  19
ENDBRANCH   7  17
BRANCH   8  21
ATOM     21  O   UNL     1     -36.012  22.644   4.169  0.00  0.00    -0.446 OA
BRANCH  21  23
ATOM     22  O   UNL     1     -35.071  20.661   4.891  0.00  0.00    -0.250 OA
ATOM     23  C   UNL     1     -35.435  21.812   5.092  0.00  0.00    +0.318 C 
ATOM     24  C   UNL     1     -35.305  22.516   6.408  0.00  0.00    +0.121 C 
ENDBRANCH  21  23
ENDBRANCH   8  21
BRANCH   5  25
ATOM     25  C   UNL     1     -37.794  25.391  -0.142  0.00  0.00    +0.211 C 
BRANCH  25  26
ATOM     26  O   UNL     1     -37.447  26.729   0.116  0.00  0.00    -0.448 OA
BRANCH  26  28
ATOM     27  O   UNL     1     -38.045  28.875  -0.493  0.00  0.00    -0.250 OA
ATOM     28  C   UNL     1     -38.304  27.686  -0.370  0.00  0.00    +0.318 C 
ATOM     29  C   UNL     1     -39.622  27.072  -0.736  0.00  0.00    +0.121 C 
ENDBRANCH  26  28
ENDBRANCH  25  26
ENDBRANCH   5  25
TORSDOF 7
ENDMDL
