MODEL 1
REMARK VINA RESULT:      -6.4      0.000      0.000
REMARK  Name = 5288991
REMARK  9 active torsions:
REMARK  status: ('A' for Active; 'I' for Inactive)
REMARK    1  A    between atoms: C_2  and  O_16
REMARK    2  A    between atoms: C_3  and  O_18
REMARK    3  A    between atoms: C_4  and  C_20
REMARK    4  A    between atoms: C_5  and  N_6
REMARK    5  A    between atoms: C_9  and  C_13
REMARK    6  A    between atoms: C_13  and  O_14
REMARK    7  A    between atoms: C_20  and  O_21
REMARK    8  A    between atoms: O_21  and  P_22
REMARK    9  A    between atoms: P_22  and  O_25
REMARK                            x       y       z     vdW  Elec       q    Type
REMARK                         _______ _______ _______ _____ _____    ______ ____
ROOT
ATOM      1  O   UNL     1     -36.540  23.202   1.379  0.00  0.00    -0.333 OA
ATOM      2  C   UNL     1     -37.813  21.272   0.817  0.00  0.00    +0.171 C 
ATOM      3  C   UNL     1     -37.243  21.098   2.210  0.00  0.00    +0.187 C 
ATOM      4  C   UNL     1     -37.677  22.775   0.595  0.00  0.00    +0.176 C 
ATOM      5  C   UNL     1     -36.103  22.101   2.197  0.00  0.00    +0.223 C 
ENDROOT
BRANCH   5   6
ATOM      6  N   UNL     1     -35.767  22.526   3.580  0.00  0.00    -0.279 N 
ATOM      7  C   UNL     1     -35.795  23.836   3.889  0.00  0.00    +0.126 C 
ATOM      8  C   UNL     1     -35.445  21.594   4.494  0.00  0.00    +0.063 C 
ATOM      9  C   UNL     1     -35.487  24.263   5.173  0.00  0.00    +0.073 C 
ATOM     10  C   UNL     1     -35.128  21.963   5.794  0.00  0.00    +0.016 C 
ATOM     11  C   UNL     1     -35.151  23.312   6.133  0.00  0.00    +0.005 C 
BRANCH   9  13
ATOM     12  O   UNL     1     -34.544  26.349   5.865  0.00  0.00    -0.245 OA
ATOM     13  C   UNL     1     -35.517  25.676   5.508  0.00  0.00    +0.336 C 
BRANCH  13  14
ATOM     14  O   UNL     1     -36.762  26.216   5.386  0.00  0.00    -0.477 OA
ATOM     15  H   UNL     1     -37.073  26.825   6.026  0.00  0.00    +0.295 HD
ENDBRANCH  13  14
ENDBRANCH   9  13
ENDBRANCH   5   6
BRANCH   2  16
ATOM     16  O   UNL     1     -36.983  20.592  -0.126  0.00  0.00    -0.379 OA
ATOM     17  H   UNL     1     -36.420  19.954   0.340  0.00  0.00    +0.211 HD
ENDBRANCH   2  16
BRANCH   3  18
ATOM     18  O   UNL     1     -36.788  19.784   2.462  0.00  0.00    -0.378 OA
ATOM     19  H   UNL     1     -35.945  19.820   2.939  0.00  0.00    +0.211 HD
ENDBRANCH   3  18
BRANCH   4  20
ATOM     20  C   UNL     1     -38.900  23.556   1.057  0.00  0.00    +0.186 C 
BRANCH  20  21
ATOM     21  O   UNL     1     -38.536  24.915   1.217  0.00  0.00    -0.269 OA
BRANCH  21  22
ATOM     22  P   UNL     1     -39.008  25.721   2.559  0.00  0.00    +0.503 P 
ATOM     23  O   UNL     1     -39.017  24.752   3.721  0.00  0.00    -0.116 OA
ATOM     24  O   UNL     1     -40.230  26.559   2.251  0.00  0.00    -0.225 OA
BRANCH  22  25
ATOM     25  O   UNL     1     -37.726  26.719   2.741  0.00  0.00    -0.301 OA
ATOM     26  H   UNL     1     -36.912  26.192   2.797  0.00  0.00    +0.222 HD
ENDBRANCH  22  25
ENDBRANCH  21  22
ENDBRANCH  20  21
ENDBRANCH   4  20
TORSDOF 9
ENDMDL
MODEL 2
REMARK VINA RESULT:      -6.2      1.811      4.391
REMARK  Name = 5288991
REMARK  9 active torsions:
REMARK  status: ('A' for Active; 'I' for Inactive)
REMARK    1  A    between atoms: C_2  and  O_16
REMARK    2  A    between atoms: C_3  and  O_18
REMARK    3  A    between atoms: C_4  and  C_20
REMARK    4  A    between atoms: C_5  and  N_6
REMARK    5  A    between atoms: C_9  and  C_13
REMARK    6  A    between atoms: C_13  and  O_14
REMARK    7  A    between atoms: C_20  and  O_21
REMARK    8  A    between atoms: O_21  and  P_22
REMARK    9  A    between atoms: P_22  and  O_25
REMARK                            x       y       z     vdW  Elec       q    Type
REMARK                         _______ _______ _______ _____ _____    ______ ____
ROOT
ATOM      1  O   UNL     1     -36.925  25.583   4.071  0.00  0.00    -0.333 OA
ATOM      2  C   UNL     1     -35.383  26.903   2.831  0.00  0.00    +0.171 C 
ATOM      3  C   UNL     1     -34.685  25.645   3.305  0.00  0.00    +0.187 C 
ATOM      4  C   UNL     1     -36.856  26.537   2.988  0.00  0.00    +0.176 C 
ATOM      5  C   UNL     1     -35.586  25.212   4.448  0.00  0.00    +0.223 C 
ENDROOT
BRANCH   5   6
ATOM      6  N   UNL     1     -35.454  23.753   4.691  0.00  0.00    -0.279 N 
ATOM      7  C   UNL     1     -35.542  22.902   3.652  0.00  0.00    +0.126 C 
ATOM      8  C   UNL     1     -35.247  23.312   5.945  0.00  0.00    +0.063 C 
ATOM      9  C   UNL     1     -35.420  21.534   3.850  0.00  0.00    +0.073 C 
ATOM     10  C   UNL     1     -35.119  21.955   6.203  0.00  0.00    +0.016 C 
ATOM     11  C   UNL     1     -35.207  21.060   5.141  0.00  0.00    +0.005 C 
BRANCH   9  13
ATOM     12  O   UNL     1     -34.665  20.476   1.842  0.00  0.00    -0.245 OA
ATOM     13  C   UNL     1     -35.515  20.615   2.729  0.00  0.00    +0.336 C 
BRANCH  13  14
ATOM     14  O   UNL     1     -36.669  19.891   2.743  0.00  0.00    -0.477 OA
ATOM     15  H   UNL     1     -36.816  19.230   2.095  0.00  0.00    +0.295 HD
ENDBRANCH  13  14
ENDBRANCH   9  13
ENDBRANCH   5   6
BRANCH   2  16
ATOM     16  O   UNL     1     -35.081  27.980   3.719  0.00  0.00    -0.379 OA
ATOM     17  H   UNL     1     -34.308  28.464   3.388  0.00  0.00    +0.211 HD
ENDBRANCH   2  16
BRANCH   3  18
ATOM     18  O   UNL     1     -33.359  25.877   3.737  0.00  0.00    -0.378 OA
ATOM     19  H   UNL     1     -32.739  25.548   3.067  0.00  0.00    +0.211 HD
ENDBRANCH   3  18
BRANCH   4  20
ATOM     20  C   UNL     1     -37.443  25.890   1.740  0.00  0.00    +0.186 C 
BRANCH  20  21
ATOM     21  O   UNL     1     -38.277  24.817   2.135  0.00  0.00    -0.269 OA
BRANCH  21  22
ATOM     22  P   UNL     1     -39.866  25.092   2.409  0.00  0.00    +0.503 P 
ATOM     23  O   UNL     1     -40.659  23.950   1.811  0.00  0.00    -0.116 OA
ATOM     24  O   UNL     1     -40.205  26.525   2.060  0.00  0.00    -0.225 OA
BRANCH  22  25
ATOM     25  O   UNL     1     -39.893  24.932   4.035  0.00  0.00    -0.301 OA
ATOM     26  H   UNL     1     -39.239  25.531   4.429  0.00  0.00    +0.222 HD
ENDBRANCH  22  25
ENDBRANCH  21  22
ENDBRANCH  20  21
ENDBRANCH   4  20
TORSDOF 9
ENDMDL
MODEL 3
REMARK VINA RESULT:      -6.1      2.088      4.460
REMARK  Name = 5288991
REMARK  9 active torsions:
REMARK  status: ('A' for Active; 'I' for Inactive)
REMARK    1  A    between atoms: C_2  and  O_16
REMARK    2  A    between atoms: C_3  and  O_18
REMARK    3  A    between atoms: C_4  and  C_20
REMARK    4  A    between atoms: C_5  and  N_6
REMARK    5  A    between atoms: C_9  and  C_13
REMARK    6  A    between atoms: C_13  and  O_14
REMARK    7  A    between atoms: C_20  and  O_21
REMARK    8  A    between atoms: O_21  and  P_22
REMARK    9  A    between atoms: P_22  and  O_25
REMARK                            x       y       z     vdW  Elec       q    Type
REMARK                         _______ _______ _______ _____ _____    ______ ____
ROOT
ATOM      1  O   UNL     1     -38.107  25.162   3.562  0.00  0.00    -0.333 OA
ATOM      2  C   UNL     1     -37.261  26.373   1.698  0.00  0.00    +0.171 C 
ATOM      3  C   UNL     1     -36.191  25.421   2.194  0.00  0.00    +0.187 C 
ATOM      4  C   UNL     1     -38.524  25.804   2.336  0.00  0.00    +0.176 C 
ATOM      5  C   UNL     1     -36.669  25.142   3.608  0.00  0.00    +0.223 C 
ENDROOT
BRANCH   5   6
ATOM      6  N   UNL     1     -36.140  23.840   4.089  0.00  0.00    -0.279 N 
ATOM      7  C   UNL     1     -36.084  22.798   3.239  0.00  0.00    +0.126 C 
ATOM      8  C   UNL     1     -35.725  23.731   5.364  0.00  0.00    +0.063 C 
ATOM      9  C   UNL     1     -35.593  21.571   3.661  0.00  0.00    +0.073 C 
ATOM     10  C   UNL     1     -35.225  22.528   5.841  0.00  0.00    +0.016 C 
ATOM     11  C   UNL     1     -35.160  21.439   4.977  0.00  0.00    +0.005 C 
BRANCH   9  13
ATOM     12  O   UNL     1     -34.519  20.054   2.155  0.00  0.00    -0.245 OA
ATOM     13  C   UNL     1     -35.533  20.445   2.744  0.00  0.00    +0.336 C 
BRANCH  13  14
ATOM     14  O   UNL     1     -36.740  19.835   2.587  0.00  0.00    -0.477 OA
ATOM     15  H   UNL     1     -37.162  19.434   3.321  0.00  0.00    +0.295 HD
ENDBRANCH  13  14
ENDBRANCH   9  13
ENDBRANCH   5   6
BRANCH   2  16
ATOM     16  O   UNL     1     -37.024  27.677   2.231  0.00  0.00    -0.379 OA
ATOM     17  H   UNL     1     -37.633  28.309   1.819  0.00  0.00    +0.211 HD
ENDBRANCH   2  16
BRANCH   3  18
ATOM     18  O   UNL     1     -34.896  25.986   2.176  0.00  0.00    -0.378 OA
ATOM     19  H   UNL     1     -34.828  26.661   2.869  0.00  0.00    +0.211 HD
ENDBRANCH   3  18
BRANCH   4  20
ATOM     20  C   UNL     1     -39.217  24.768   1.461  0.00  0.00    +0.186 C 
BRANCH  20  21
ATOM     21  O   UNL     1     -39.188  23.519   2.128  0.00  0.00    -0.269 OA
BRANCH  21  22
ATOM     22  P   UNL     1     -39.360  22.142   1.263  0.00  0.00    +0.503 P 
ATOM     23  O   UNL     1     -38.076  21.891   0.502  0.00  0.00    -0.116 OA
ATOM     24  O   UNL     1     -40.689  22.154   0.539  0.00  0.00    -0.225 OA
BRANCH  22  25
ATOM     25  O   UNL     1     -39.444  21.062   2.487  0.00  0.00    -0.301 OA
ATOM     26  H   UNL     1     -40.191  20.462   2.338  0.00  0.00    +0.222 HD
ENDBRANCH  22  25
ENDBRANCH  21  22
ENDBRANCH  20  21
ENDBRANCH   4  20
TORSDOF 9
ENDMDL
MODEL 4
REMARK VINA RESULT:      -6.0      2.975      6.299
REMARK  Name = 5288991
REMARK  9 active torsions:
REMARK  status: ('A' for Active; 'I' for Inactive)
REMARK    1  A    between atoms: C_2  and  O_16
REMARK    2  A    between atoms: C_3  and  O_18
REMARK    3  A    between atoms: C_4  and  C_20
REMARK    4  A    between atoms: C_5  and  N_6
REMARK    5  A    between atoms: C_9  and  C_13
REMARK    6  A    between atoms: C_13  and  O_14
REMARK    7  A    between atoms: C_20  and  O_21
REMARK    8  A    between atoms: O_21  and  P_22
REMARK    9  A    between atoms: P_22  and  O_25
REMARK                            x       y       z     vdW  Elec       q    Type
REMARK                         _______ _______ _______ _____ _____    ______ ____
ROOT
ATOM      1  O   UNL     1     -33.984  25.643   2.785  0.00  0.00    -0.333 OA
ATOM      2  C   UNL     1     -35.100  27.514   3.740  0.00  0.00    +0.171 C 
ATOM      3  C   UNL     1     -35.705  26.241   4.298  0.00  0.00    +0.187 C 
ATOM      4  C   UNL     1     -33.775  27.021   3.168  0.00  0.00    +0.176 C 
ATOM      5  C   UNL     1     -35.277  25.222   3.257  0.00  0.00    +0.223 C 
ENDROOT
BRANCH   5   6
ATOM      6  N   UNL     1     -35.245  23.859   3.844  0.00  0.00    -0.279 N 
ATOM      7  C   UNL     1     -35.372  22.791   3.034  0.00  0.00    +0.126 C 
ATOM      8  C   UNL     1     -35.089  23.719   5.172  0.00  0.00    +0.063 C 
ATOM      9  C   UNL     1     -35.344  21.505   3.555  0.00  0.00    +0.073 C 
ATOM     10  C   UNL     1     -35.055  22.457   5.749  0.00  0.00    +0.016 C 
ATOM     11  C   UNL     1     -35.183  21.341   4.927  0.00  0.00    +0.005 C 
BRANCH   9  13
ATOM     12  O   UNL     1     -34.572  19.851   2.008  0.00  0.00    -0.245 OA
ATOM     13  C   UNL     1     -35.480  20.352   2.681  0.00  0.00    +0.336 C 
BRANCH  13  14
ATOM     14  O   UNL     1     -36.747  19.852   2.670  0.00  0.00    -0.477 OA
ATOM     15  H   UNL     1     -37.124  19.550   1.867  0.00  0.00    +0.295 HD
ENDBRANCH  13  14
ENDBRANCH   9  13
ENDBRANCH   5   6
BRANCH   2  16
ATOM     16  O   UNL     1     -35.911  27.997   2.669  0.00  0.00    -0.379 OA
ATOM     17  H   UNL     1     -36.077  28.945   2.792  0.00  0.00    +0.211 HD
ENDBRANCH   2  16
BRANCH   3  18
ATOM     18  O   UNL     1     -37.110  26.306   4.426  0.00  0.00    -0.378 OA
ATOM     19  H   UNL     1     -37.403  25.677   5.103  0.00  0.00    +0.211 HD
ENDBRANCH   3  18
BRANCH   4  20
ATOM     20  C   UNL     1     -32.637  27.071   4.179  0.00  0.00    +0.186 C 
BRANCH  20  21
ATOM     21  O   UNL     1     -32.765  28.253   4.948  0.00  0.00    -0.269 OA
BRANCH  21  22
ATOM     22  P   UNL     1     -31.734  28.520   6.189  0.00  0.00    +0.503 P 
ATOM     23  O   UNL     1     -31.856  29.969   6.609  0.00  0.00    -0.116 OA
ATOM     24  O   UNL     1     -30.379  27.927   5.867  0.00  0.00    -0.225 OA
BRANCH  22  25
ATOM     25  O   UNL     1     -32.445  27.598   7.336  0.00  0.00    -0.301 OA
ATOM     26  H   UNL     1     -32.970  26.902   6.912  0.00  0.00    +0.222 HD
ENDBRANCH  22  25
ENDBRANCH  21  22
ENDBRANCH  20  21
ENDBRANCH   4  20
TORSDOF 9
ENDMDL
MODEL 5
REMARK VINA RESULT:      -5.7      3.226      6.078
REMARK  Name = 5288991
REMARK  9 active torsions:
REMARK  status: ('A' for Active; 'I' for Inactive)
REMARK    1  A    between atoms: C_2  and  O_16
REMARK    2  A    between atoms: C_3  and  O_18
REMARK    3  A    between atoms: C_4  and  C_20
REMARK    4  A    between atoms: C_5  and  N_6
REMARK    5  A    between atoms: C_9  and  C_13
REMARK    6  A    between atoms: C_13  and  O_14
REMARK    7  A    between atoms: C_20  and  O_21
REMARK    8  A    between atoms: O_21  and  P_22
REMARK    9  A    between atoms: P_22  and  O_25
REMARK                            x       y       z     vdW  Elec       q    Type
REMARK                         _______ _______ _______ _____ _____    ______ ____
ROOT
ATOM      1  O   UNL     1     -33.899  26.040   2.177  0.00  0.00    -0.333 OA
ATOM      2  C   UNL     1     -35.187  27.699   3.294  0.00  0.00    +0.171 C 
ATOM      3  C   UNL     1     -35.881  26.360   3.434  0.00  0.00    +0.187 C 
ATOM      4  C   UNL     1     -33.774  27.293   2.887  0.00  0.00    +0.176 C 
ATOM      5  C   UNL     1     -35.257  25.576   2.294  0.00  0.00    +0.223 C 
ENDROOT
BRANCH   5   6
ATOM      6  N   UNL     1     -35.332  24.117   2.561  0.00  0.00    -0.279 N 
ATOM      7  C   UNL     1     -35.385  23.684   3.834  0.00  0.00    +0.126 C 
ATOM      8  C   UNL     1     -35.347  23.259   1.525  0.00  0.00    +0.063 C 
ATOM      9  C   UNL     1     -35.457  22.327   4.114  0.00  0.00    +0.073 C 
ATOM     10  C   UNL     1     -35.417  21.891   1.745  0.00  0.00    +0.016 C 
ATOM     11  C   UNL     1     -35.473  21.425   3.054  0.00  0.00    +0.005 C 
BRANCH   9  13
ATOM     12  O   UNL     1     -35.897  22.524   6.457  0.00  0.00    -0.245 OA
ATOM     13  C   UNL     1     -35.514  21.859   5.488  0.00  0.00    +0.336 C 
BRANCH  13  14
ATOM     14  O   UNL     1     -35.095  20.570   5.619  0.00  0.00    -0.477 OA
ATOM     15  H   UNL     1     -34.186  20.361   5.522  0.00  0.00    +0.295 HD
ENDBRANCH  13  14
ENDBRANCH   9  13
ENDBRANCH   5   6
BRANCH   2  16
ATOM     16  O   UNL     1     -35.780  28.435   2.223  0.00  0.00    -0.379 OA
ATOM     17  H   UNL     1     -35.269  28.291   1.411  0.00  0.00    +0.211 HD
ENDBRANCH   2  16
BRANCH   3  18
ATOM     18  O   UNL     1     -37.285  26.449   3.308  0.00  0.00    -0.378 OA
ATOM     19  H   UNL     1     -37.697  26.320   4.177  0.00  0.00    +0.211 HD
ENDBRANCH   3  18
BRANCH   4  20
ATOM     20  C   UNL     1     -32.851  27.080   4.079  0.00  0.00    +0.186 C 
BRANCH  20  21
ATOM     21  O   UNL     1     -32.957  28.198   4.941  0.00  0.00    -0.269 OA
BRANCH  21  22
ATOM     22  P   UNL     1     -31.808  28.448   6.078  0.00  0.00    +0.503 P 
ATOM     23  O   UNL     1     -31.878  29.894   6.518  0.00  0.00    -0.116 OA
ATOM     24  O   UNL     1     -30.496  27.848   5.621  0.00  0.00    -0.225 OA
BRANCH  22  25
ATOM     25  O   UNL     1     -32.413  27.522   7.282  0.00  0.00    -0.301 OA
ATOM     26  H   UNL     1     -33.139  27.993   7.719  0.00  0.00    +0.222 HD
ENDBRANCH  22  25
ENDBRANCH  21  22
ENDBRANCH  20  21
ENDBRANCH   4  20
TORSDOF 9
ENDMDL
MODEL 6
REMARK VINA RESULT:      -5.7      1.546      1.758
REMARK  Name = 5288991
REMARK  9 active torsions:
REMARK  status: ('A' for Active; 'I' for Inactive)
REMARK    1  A    between atoms: C_2  and  O_16
REMARK    2  A    between atoms: C_3  and  O_18
REMARK    3  A    between atoms: C_4  and  C_20
REMARK    4  A    between atoms: C_5  and  N_6
REMARK    5  A    between atoms: C_9  and  C_13
REMARK    6  A    between atoms: C_13  and  O_14
REMARK    7  A    between atoms: C_20  and  O_21
REMARK    8  A    between atoms: O_21  and  P_22
REMARK    9  A    between atoms: P_22  and  O_25
REMARK                            x       y       z     vdW  Elec       q    Type
REMARK                         _______ _______ _______ _____ _____    ______ ____
ROOT
ATOM      1  O   UNL     1     -35.611  22.706   1.223  0.00  0.00    -0.333 OA
ATOM      2  C   UNL     1     -37.013  20.904   0.555  0.00  0.00    +0.171 C 
ATOM      3  C   UNL     1     -36.822  20.850   2.057  0.00  0.00    +0.187 C 
ATOM      4  C   UNL     1     -36.586  22.330   0.224  0.00  0.00    +0.176 C 
ATOM      5  C   UNL     1     -35.564  21.680   2.232  0.00  0.00    +0.223 C 
ENDROOT
BRANCH   5   6
ATOM      6  N   UNL     1     -35.497  22.244   3.604  0.00  0.00    -0.279 N 
ATOM      7  C   UNL     1     -35.733  23.556   3.787  0.00  0.00    +0.126 C 
ATOM      8  C   UNL     1     -35.205  21.431   4.635  0.00  0.00    +0.063 C 
ATOM      9  C   UNL     1     -35.679  24.110   5.058  0.00  0.00    +0.073 C 
ATOM     10  C   UNL     1     -35.137  21.930   5.928  0.00  0.00    +0.016 C 
ATOM     11  C   UNL     1     -35.378  23.284   6.137  0.00  0.00    +0.005 C 
BRANCH   9  13
ATOM     12  O   UNL     1     -35.156  26.327   5.789  0.00  0.00    -0.245 OA
ATOM     13  C   UNL     1     -35.933  25.527   5.257  0.00  0.00    +0.336 C 
BRANCH  13  14
ATOM     14  O   UNL     1     -37.151  25.910   4.784  0.00  0.00    -0.477 OA
ATOM     15  H   UNL     1     -37.245  26.730   4.339  0.00  0.00    +0.295 HD
ENDBRANCH  13  14
ENDBRANCH   9  13
ENDBRANCH   5   6
BRANCH   2  16
ATOM     16  O   UNL     1     -36.108  19.996  -0.074  0.00  0.00    -0.379 OA
ATOM     17  H   UNL     1     -36.558  19.152  -0.237  0.00  0.00    +0.211 HD
ENDBRANCH   2  16
BRANCH   3  18
ATOM     18  O   UNL     1     -36.660  19.534   2.547  0.00  0.00    -0.378 OA
ATOM     19  H   UNL     1     -37.530  19.150   2.737  0.00  0.00    +0.211 HD
ENDBRANCH   3  18
BRANCH   4  20
ATOM     20  C   UNL     1     -37.739  23.324   0.280  0.00  0.00    +0.186 C 
BRANCH  20  21
ATOM     21  O   UNL     1     -38.958  22.610   0.186  0.00  0.00    -0.269 OA
BRANCH  21  22
ATOM     22  P   UNL     1     -40.038  22.698   1.411  0.00  0.00    +0.503 P 
ATOM     23  O   UNL     1     -40.330  21.294   1.894  0.00  0.00    -0.116 OA
ATOM     24  O   UNL     1     -41.170  23.627   1.029  0.00  0.00    -0.225 OA
BRANCH  22  25
ATOM     25  O   UNL     1     -39.113  23.440   2.536  0.00  0.00    -0.301 OA
ATOM     26  H   UNL     1     -39.675  23.984   3.109  0.00  0.00    +0.222 HD
ENDBRANCH  22  25
ENDBRANCH  21  22
ENDBRANCH  20  21
ENDBRANCH   4  20
TORSDOF 9
ENDMDL
MODEL 7
REMARK VINA RESULT:      -5.6      2.359      4.989
REMARK  Name = 5288991
REMARK  9 active torsions:
REMARK  status: ('A' for Active; 'I' for Inactive)
REMARK    1  A    between atoms: C_2  and  O_16
REMARK    2  A    between atoms: C_3  and  O_18
REMARK    3  A    between atoms: C_4  and  C_20
REMARK    4  A    between atoms: C_5  and  N_6
REMARK    5  A    between atoms: C_9  and  C_13
REMARK    6  A    between atoms: C_13  and  O_14
REMARK    7  A    between atoms: C_20  and  O_21
REMARK    8  A    between atoms: O_21  and  P_22
REMARK    9  A    between atoms: P_22  and  O_25
REMARK                            x       y       z     vdW  Elec       q    Type
REMARK                         _______ _______ _______ _____ _____    ______ ____
ROOT
ATOM      1  O   UNL     1     -39.887  24.088   2.901  0.00  0.00    -0.333 OA
ATOM      2  C   UNL     1     -39.887  26.049   1.555  0.00  0.00    +0.171 C 
ATOM      3  C   UNL     1     -38.473  25.775   2.028  0.00  0.00    +0.187 C 
ATOM      4  C   UNL     1     -40.574  24.708   1.791  0.00  0.00    +0.176 C 
ATOM      5  C   UNL     1     -38.724  24.873   3.222  0.00  0.00    +0.223 C 
ENDROOT
BRANCH   5   6
ATOM      6  N   UNL     1     -37.534  24.029   3.497  0.00  0.00    -0.279 N 
ATOM      7  C   UNL     1     -37.355  22.896   2.793  0.00  0.00    +0.126 C 
ATOM      8  C   UNL     1     -36.659  24.414   4.443  0.00  0.00    +0.063 C 
ATOM      9  C   UNL     1     -36.251  22.088   3.027  0.00  0.00    +0.073 C 
ATOM     10  C   UNL     1     -35.537  23.646   4.720  0.00  0.00    +0.016 C 
ATOM     11  C   UNL     1     -35.335  22.471   4.002  0.00  0.00    +0.005 C 
BRANCH   9  13
ATOM     12  O   UNL     1     -35.260  20.719   1.334  0.00  0.00    -0.245 OA
ATOM     13  C   UNL     1     -36.057  20.865   2.267  0.00  0.00    +0.336 C 
BRANCH  13  14
ATOM     14  O   UNL     1     -36.863  19.853   2.693  0.00  0.00    -0.477 OA
ATOM     15  H   UNL     1     -36.550  18.969   2.686  0.00  0.00    +0.295 HD
ENDBRANCH  13  14
ENDBRANCH   9  13
ENDBRANCH   5   6
BRANCH   2  16
ATOM     16  O   UNL     1     -40.490  27.030   2.400  0.00  0.00    -0.379 OA
ATOM     17  H   UNL     1     -40.429  27.901   1.977  0.00  0.00    +0.211 HD
ENDBRANCH   2  16
BRANCH   3  18
ATOM     18  O   UNL     1     -37.774  26.948   2.389  0.00  0.00    -0.378 OA
ATOM     19  H   UNL     1     -37.193  27.216   1.660  0.00  0.00    +0.211 HD
ENDBRANCH   3  18
BRANCH   4  20
ATOM     20  C   UNL     1     -40.487  23.776   0.590  0.00  0.00    +0.186 C 
BRANCH  20  21
ATOM     21  O   UNL     1     -40.366  22.445   1.057  0.00  0.00    -0.269 OA
BRANCH  21  22
ATOM     22  P   UNL     1     -40.289  21.219  -0.023  0.00  0.00    +0.503 P 
ATOM     23  O   UNL     1     -39.725  21.758  -1.319  0.00  0.00    -0.116 OA
ATOM     24  O   UNL     1     -41.591  20.447  -0.016  0.00  0.00    -0.225 OA
BRANCH  22  25
ATOM     25  O   UNL     1     -39.137  20.303   0.689  0.00  0.00    -0.301 OA
ATOM     26  H   UNL     1     -39.313  20.245   1.642  0.00  0.00    +0.222 HD
ENDBRANCH  22  25
ENDBRANCH  21  22
ENDBRANCH  20  21
ENDBRANCH   4  20
TORSDOF 9
ENDMDL
MODEL 8
REMARK VINA RESULT:      -5.5      2.912      6.393
REMARK  Name = 5288991
REMARK  9 active torsions:
REMARK  status: ('A' for Active; 'I' for Inactive)
REMARK    1  A    between atoms: C_2  and  O_16
REMARK    2  A    between atoms: C_3  and  O_18
REMARK    3  A    between atoms: C_4  and  C_20
REMARK    4  A    between atoms: C_5  and  N_6
REMARK    5  A    between atoms: C_9  and  C_13
REMARK    6  A    between atoms: C_13  and  O_14
REMARK    7  A    between atoms: C_20  and  O_21
REMARK    8  A    between atoms: O_21  and  P_22
REMARK    9  A    between atoms: P_22  and  O_25
REMARK                            x       y       z     vdW  Elec       q    Type
REMARK                         _______ _______ _______ _____ _____    ______ ____
ROOT
ATOM      1  O   UNL     1     -35.296  26.125   2.863  0.00  0.00    -0.333 OA
ATOM      2  C   UNL     1     -35.385  25.977   5.235  0.00  0.00    +0.171 C 
ATOM      3  C   UNL     1     -35.427  24.579   4.652  0.00  0.00    +0.187 C 
ATOM      4  C   UNL     1     -34.863  26.803   4.064  0.00  0.00    +0.176 C 
ATOM      5  C   UNL     1     -35.875  24.859   3.229  0.00  0.00    +0.223 C 
ENDROOT
BRANCH   5   6
ATOM      6  N   UNL     1     -35.449  23.762   2.323  0.00  0.00    -0.279 N 
ATOM      7  C   UNL     1     -36.105  22.588   2.359  0.00  0.00    +0.126 C 
ATOM      8  C   UNL     1     -34.417  23.966   1.484  0.00  0.00    +0.063 C 
ATOM      9  C   UNL     1     -35.729  21.546   1.523  0.00  0.00    +0.073 C 
ATOM     10  C   UNL     1     -33.998  22.960   0.626  0.00  0.00    +0.016 C 
ATOM     11  C   UNL     1     -34.664  21.739   0.649  0.00  0.00    +0.005 C 
BRANCH   9  13
ATOM     12  O   UNL     1     -36.770  19.612   0.574  0.00  0.00    -0.245 OA
ATOM     13  C   UNL     1     -36.437  20.277   1.561  0.00  0.00    +0.336 C 
BRANCH  13  14
ATOM     14  O   UNL     1     -36.711  19.870   2.831  0.00  0.00    -0.477 OA
ATOM     15  H   UNL     1     -36.639  18.964   3.059  0.00  0.00    +0.295 HD
ENDBRANCH  13  14
ENDBRANCH   9  13
ENDBRANCH   5   6
BRANCH   2  16
ATOM     16  O   UNL     1     -36.713  26.405   5.543  0.00  0.00    -0.379 OA
ATOM     17  H   UNL     1     -36.771  27.369   5.449  0.00  0.00    +0.211 HD
ENDBRANCH   2  16
BRANCH   3  18
ATOM     18  O   UNL     1     -36.324  23.724   5.330  0.00  0.00    -0.378 OA
ATOM     19  H   UNL     1     -35.858  22.920   5.608  0.00  0.00    +0.211 HD
ENDBRANCH   3  18
BRANCH   4  20
ATOM     20  C   UNL     1     -33.344  26.903   4.038  0.00  0.00    +0.186 C 
BRANCH  20  21
ATOM     21  O   UNL     1     -32.895  27.313   5.317  0.00  0.00    -0.269 OA
BRANCH  21  22
ATOM     22  P   UNL     1     -31.707  28.431   5.431  0.00  0.00    +0.503 P 
ATOM     23  O   UNL     1     -32.293  29.693   6.025  0.00  0.00    -0.116 OA
ATOM     24  O   UNL     1     -30.928  28.486   4.134  0.00  0.00    -0.225 OA
BRANCH  22  25
ATOM     25  O   UNL     1     -30.774  27.720   6.569  0.00  0.00    -0.301 OA
ATOM     26  H   UNL     1     -31.095  26.820   6.734  0.00  0.00    +0.222 HD
ENDBRANCH  22  25
ENDBRANCH  21  22
ENDBRANCH  20  21
ENDBRANCH   4  20
TORSDOF 9
ENDMDL
MODEL 9
REMARK VINA RESULT:      -5.5      2.482      3.633
REMARK  Name = 5288991
REMARK  9 active torsions:
REMARK  status: ('A' for Active; 'I' for Inactive)
REMARK    1  A    between atoms: C_2  and  O_16
REMARK    2  A    between atoms: C_3  and  O_18
REMARK    3  A    between atoms: C_4  and  C_20
REMARK    4  A    between atoms: C_5  and  N_6
REMARK    5  A    between atoms: C_9  and  C_13
REMARK    6  A    between atoms: C_13  and  O_14
REMARK    7  A    between atoms: C_20  and  O_21
REMARK    8  A    between atoms: O_21  and  P_22
REMARK    9  A    between atoms: P_22  and  O_25
REMARK                            x       y       z     vdW  Elec       q    Type
REMARK                         _______ _______ _______ _____ _____    ______ ____
ROOT
ATOM      1  O   UNL     1     -34.706  20.734   1.950  0.00  0.00    -0.333 OA
ATOM      2  C   UNL     1     -36.649  20.336   0.636  0.00  0.00    +0.171 C 
ATOM      3  C   UNL     1     -37.039  21.130   1.866  0.00  0.00    +0.187 C 
ATOM      4  C   UNL     1     -35.138  20.539   0.584  0.00  0.00    +0.176 C 
ATOM      5  C   UNL     1     -35.869  20.850   2.791  0.00  0.00    +0.223 C 
ENDROOT
BRANCH   5   6
ATOM      6  N   UNL     1     -35.729  21.933   3.797  0.00  0.00    -0.279 N 
ATOM      7  C   UNL     1     -36.047  23.194   3.454  0.00  0.00    +0.126 C 
ATOM      8  C   UNL     1     -35.288  21.629   5.032  0.00  0.00    +0.063 C 
ATOM      9  C   UNL     1     -35.928  24.226   4.375  0.00  0.00    +0.073 C 
ATOM     10  C   UNL     1     -35.149  22.620   5.993  0.00  0.00    +0.016 C 
ATOM     11  C   UNL     1     -35.473  23.930   5.657  0.00  0.00    +0.005 C 
BRANCH   9  13
ATOM     12  O   UNL     1     -36.229  26.053   2.862  0.00  0.00    -0.245 OA
ATOM     13  C   UNL     1     -36.272  25.588   4.006  0.00  0.00    +0.336 C 
BRANCH  13  14
ATOM     14  O   UNL     1     -36.665  26.336   5.074  0.00  0.00    -0.477 OA
ATOM     15  H   UNL     1     -36.039  26.862   5.533  0.00  0.00    +0.295 HD
ENDBRANCH  13  14
ENDBRANCH   9  13
ENDBRANCH   5   6
BRANCH   2  16
ATOM     16  O   UNL     1     -36.919  18.951   0.857  0.00  0.00    -0.379 OA
ATOM     17  H   UNL     1     -36.157  18.424   0.570  0.00  0.00    +0.211 HD
ENDBRANCH   2  16
BRANCH   3  18
ATOM     18  O   UNL     1     -38.267  20.713   2.427  0.00  0.00    -0.378 OA
ATOM     19  H   UNL     1     -38.362  21.092   3.314  0.00  0.00    +0.211 HD
ENDBRANCH   3  18
BRANCH   4  20
ATOM     20  C   UNL     1     -34.730  21.760  -0.229  0.00  0.00    +0.186 C 
BRANCH  20  21
ATOM     21  O   UNL     1     -33.825  22.534   0.538  0.00  0.00    -0.269 OA
BRANCH  21  22
ATOM     22  P   UNL     1     -33.390  24.019   0.010  0.00  0.00    +0.503 P 
ATOM     23  O   UNL     1     -34.217  24.354  -1.213  0.00  0.00    -0.116 OA
ATOM     24  O   UNL     1     -31.881  24.126  -0.033  0.00  0.00    -0.225 OA
BRANCH  22  25
ATOM     25  O   UNL     1     -33.941  24.922   1.256  0.00  0.00    -0.301 OA
ATOM     26  H   UNL     1     -33.431  25.746   1.308  0.00  0.00    +0.222 HD
ENDBRANCH  22  25
ENDBRANCH  21  22
ENDBRANCH  20  21
ENDBRANCH   4  20
TORSDOF 9
ENDMDL
