MODEL 1
REMARK VINA RESULT:      -5.5      0.000      0.000
REMARK  Name = 195909
REMARK  5 active torsions:
REMARK  status: ('A' for Active; 'I' for Inactive)
REMARK    1  A    between atoms: N_1  and  C1*_14
REMARK    2  A    between atoms: N_5  and  C_9
REMARK    3  A    between atoms: C3*_16  and  O3*_18
REMARK    4  A    between atoms: C4*_17  and  C5*_20
REMARK    5  A    between atoms: C5*_20  and  O5*_21
REMARK                            x       y       z     vdW  Elec       q    Type
REMARK                         _______ _______ _______ _____ _____    ______ ____
ROOT
ATOM      1  N   UNL     1     -33.636  26.163   4.708  0.00  0.00    -0.212 NA
ATOM      2  N   UNL     1     -32.194  27.725   3.472  0.00  0.00    -0.234 NA
ATOM      3  N   UNL     1     -33.259  26.979   6.764  0.00  0.00    -0.251 NA
ATOM      4  N   UNL     1     -31.076  29.347   4.878  0.00  0.00    -0.236 NA
ATOM      5  C   UNL     1     -32.772  27.201   4.573  0.00  0.00    +0.167 C 
ATOM      6  C   UNL     1     -33.901  26.067   6.055  0.00  0.00    +0.204 C 
ATOM      7  C   UNL     1     -32.553  27.688   5.835  0.00  0.00    +0.118 C 
ATOM      8  C   UNL     1     -31.668  28.811   6.016  0.00  0.00    +0.157 C 
ATOM      9  C   UNL     1     -31.355  28.804   3.721  0.00  0.00    +0.204 C 
ATOM     10  C   UNL     1     -32.430  27.208   2.139  0.00  0.00    +0.093 C 
ENDROOT
BRANCH   1  12
ATOM     11  O4* UNL     1     -35.369  25.910   3.112  0.00  0.00    -0.338 OA
ATOM     12  C1* UNL     1     -34.207  25.283   3.688  0.00  0.00    +0.181 C 
ATOM     13  C2* UNL     1     -34.634  23.919   4.219  0.00  0.00    +0.079 C 
ATOM     14  C3* UNL     1     -36.138  24.046   4.326  0.00  0.00    +0.144 C 
ATOM     15  C4* UNL     1     -36.454  24.969   3.161  0.00  0.00    +0.173 C 
BRANCH  14  16
ATOM     16  O3* UNL     1     -36.769  22.788   4.199  0.00  0.00    -0.382 OA
ATOM     17  H3* UNL     1     -37.413  22.820   3.475  0.00  0.00    +0.210 HD
ENDBRANCH  14  16
BRANCH  15  18
ATOM     18  C5* UNL     1     -37.769  25.713   3.315  0.00  0.00    +0.169 C 
BRANCH  18  19
ATOM     19  O5* UNL     1     -38.665  24.899   4.052  0.00  0.00    -0.379 OA
ATOM     20  H5* UNL     1     -38.366  23.976   4.018  0.00  0.00    +0.211 HD
ENDBRANCH  18  19
ENDBRANCH  15  18
ENDBRANCH   1  12
BRANCH   8  21
ATOM     21  N   UNL     1     -31.432  29.300   7.187  0.00  0.00    -0.248 NA
ATOM     22  H   UNL     1     -32.139  29.301   7.871  0.00  0.00    +0.172 HD
ENDBRANCH   8  21
TORSDOF 5
ENDMDL
MODEL 2
REMARK VINA RESULT:      -5.5      3.897      7.005
REMARK  Name = 195909
REMARK  5 active torsions:
REMARK  status: ('A' for Active; 'I' for Inactive)
REMARK    1  A    between atoms: N_1  and  C1*_14
REMARK    2  A    between atoms: N_5  and  C_9
REMARK    3  A    between atoms: C3*_16  and  O3*_18
REMARK    4  A    between atoms: C4*_17  and  C5*_20
REMARK    5  A    between atoms: C5*_20  and  O5*_21
REMARK                            x       y       z     vdW  Elec       q    Type
REMARK                         _______ _______ _______ _____ _____    ______ ____
ROOT
ATOM      1  N   UNL     1     -37.008  24.321   3.665  0.00  0.00    -0.212 NA
ATOM      2  N   UNL     1     -39.240  24.538   2.658  0.00  0.00    -0.234 NA
ATOM      3  N   UNL     1     -36.618  22.196   3.059  0.00  0.00    -0.251 NA
ATOM      4  N   UNL     1     -40.006  22.538   1.532  0.00  0.00    -0.236 NA
ATOM      5  C   UNL     1     -38.097  23.896   2.976  0.00  0.00    +0.167 C 
ATOM      6  C   UNL     1     -36.139  23.254   3.689  0.00  0.00    +0.204 C 
ATOM      7  C   UNL     1     -37.844  22.600   2.613  0.00  0.00    +0.118 C 
ATOM      8  C   UNL     1     -38.830  21.871   1.857  0.00  0.00    +0.157 C 
ATOM      9  C   UNL     1     -40.145  23.777   1.929  0.00  0.00    +0.204 C 
ATOM     10  C   UNL     1     -39.504  25.911   3.043  0.00  0.00    +0.093 C 
ENDROOT
BRANCH   1  12
ATOM     11  O4* UNL     1     -35.996  26.443   3.365  0.00  0.00    -0.338 OA
ATOM     12  C1* UNL     1     -36.739  25.620   4.284  0.00  0.00    +0.181 C 
ATOM     13  C2* UNL     1     -35.939  25.533   5.578  0.00  0.00    +0.079 C 
ATOM     14  C3* UNL     1     -34.546  25.942   5.150  0.00  0.00    +0.144 C 
ATOM     15  C4* UNL     1     -34.843  26.953   4.055  0.00  0.00    +0.173 C 
BRANCH  14  16
ATOM     16  O3* UNL     1     -33.826  26.510   6.224  0.00  0.00    -0.382 OA
ATOM     17  H3* UNL     1     -34.351  26.445   7.037  0.00  0.00    +0.210 HD
ENDBRANCH  14  16
BRANCH  15  18
ATOM     18  C5* UNL     1     -33.700  27.137   3.073  0.00  0.00    +0.169 C 
BRANCH  18  19
ATOM     19  O5* UNL     1     -32.612  26.329   3.488  0.00  0.00    -0.379 OA
ATOM     20  H5* UNL     1     -32.495  26.414   4.448  0.00  0.00    +0.211 HD
ENDBRANCH  18  19
ENDBRANCH  15  18
ENDBRANCH   1  12
BRANCH   8  21
ATOM     21  N   UNL     1     -38.634  20.647   1.497  0.00  0.00    -0.248 NA
ATOM     22  H   UNL     1     -37.744  20.240   1.603  0.00  0.00    +0.172 HD
ENDBRANCH   8  21
TORSDOF 5
ENDMDL
MODEL 3
REMARK VINA RESULT:      -5.4      2.092      3.253
REMARK  Name = 195909
REMARK  5 active torsions:
REMARK  status: ('A' for Active; 'I' for Inactive)
REMARK    1  A    between atoms: N_1  and  C1*_14
REMARK    2  A    between atoms: N_5  and  C_9
REMARK    3  A    between atoms: C3*_16  and  O3*_18
REMARK    4  A    between atoms: C4*_17  and  C5*_20
REMARK    5  A    between atoms: C5*_20  and  O5*_21
REMARK                            x       y       z     vdW  Elec       q    Type
REMARK                         _______ _______ _______ _____ _____    ______ ____
ROOT
ATOM      1  N   UNL     1     -34.996  25.829   4.052  0.00  0.00    -0.212 NA
ATOM      2  N   UNL     1     -35.668  27.568   2.449  0.00  0.00    -0.234 NA
ATOM      3  N   UNL     1     -33.101  26.800   4.762  0.00  0.00    -0.251 NA
ATOM      4  N   UNL     1     -34.132  29.434   2.327  0.00  0.00    -0.236 NA
ATOM      5  C   UNL     1     -34.871  27.001   3.379  0.00  0.00    +0.167 C 
ATOM      6  C   UNL     1     -33.898  25.752   4.878  0.00  0.00    +0.204 C 
ATOM      7  C   UNL     1     -33.712  27.581   3.822  0.00  0.00    +0.118 C 
ATOM      8  C   UNL     1     -33.307  28.855   3.284  0.00  0.00    +0.157 C 
ATOM      9  C   UNL     1     -35.217  28.794   1.975  0.00  0.00    +0.204 C 
ATOM     10  C   UNL     1     -36.894  26.952   1.983  0.00  0.00    +0.093 C 
ENDROOT
BRANCH   1  12
ATOM     11  O4* UNL     1     -36.152  24.135   5.239  0.00  0.00    -0.338 OA
ATOM     12  C1* UNL     1     -36.043  24.810   3.971  0.00  0.00    +0.181 C 
ATOM     13  C2* UNL     1     -35.792  23.752   2.904  0.00  0.00    +0.079 C 
ATOM     14  C3* UNL     1     -35.308  22.562   3.705  0.00  0.00    +0.144 C 
ATOM     15  C4* UNL     1     -36.092  22.720   4.997  0.00  0.00    +0.173 C 
BRANCH  14  16
ATOM     16  O3* UNL     1     -35.599  21.347   3.045  0.00  0.00    -0.382 OA
ATOM     17  H3* UNL     1     -35.300  20.603   3.591  0.00  0.00    +0.210 HD
ENDBRANCH  14  16
BRANCH  15  18
ATOM     18  C5* UNL     1     -35.449  22.025   6.185  0.00  0.00    +0.169 C 
BRANCH  18  19
ATOM     19  O5* UNL     1     -35.245  20.662   5.855  0.00  0.00    -0.379 OA
ATOM     20  H5* UNL     1     -36.046  20.155   6.066  0.00  0.00    +0.211 HD
ENDBRANCH  18  19
ENDBRANCH  15  18
ENDBRANCH   1  12
BRANCH   8  21
ATOM     21  N   UNL     1     -32.222  29.436   3.672  0.00  0.00    -0.248 NA
ATOM     22  H   UNL     1     -31.518  28.913   4.120  0.00  0.00    +0.172 HD
ENDBRANCH   8  21
TORSDOF 5
ENDMDL
MODEL 4
REMARK VINA RESULT:      -5.4      5.222      8.025
REMARK  Name = 195909
REMARK  5 active torsions:
REMARK  status: ('A' for Active; 'I' for Inactive)
REMARK    1  A    between atoms: N_1  and  C1*_14
REMARK    2  A    between atoms: N_5  and  C_9
REMARK    3  A    between atoms: C3*_16  and  O3*_18
REMARK    4  A    between atoms: C4*_17  and  C5*_20
REMARK    5  A    between atoms: C5*_20  and  O5*_21
REMARK                            x       y       z     vdW  Elec       q    Type
REMARK                         _______ _______ _______ _____ _____    ______ ____
ROOT
ATOM      1  N   UNL     1     -37.383  22.745   2.341  0.00  0.00    -0.212 NA
ATOM      2  N   UNL     1     -37.047  20.852   0.808  0.00  0.00    -0.234 NA
ATOM      3  N   UNL     1     -39.614  22.889   2.145  0.00  0.00    -0.251 NA
ATOM      4  N   UNL     1     -39.092  20.016  -0.179  0.00  0.00    -0.236 NA
ATOM      5  C   UNL     1     -37.771  21.775   1.475  0.00  0.00    +0.167 C 
ATOM      6  C   UNL     1     -38.536  23.394   2.720  0.00  0.00    +0.204 C 
ATOM      7  C   UNL     1     -39.133  21.876   1.366  0.00  0.00    +0.118 C 
ATOM      8  C   UNL     1     -39.844  20.965   0.505  0.00  0.00    +0.157 C 
ATOM      9  C   UNL     1     -37.797  20.007  -0.002  0.00  0.00    +0.204 C 
ATOM     10  C   UNL     1     -35.606  20.747   0.927  0.00  0.00    +0.093 C 
ENDROOT
BRANCH   1  12
ATOM     11  O4* UNL     1     -35.643  22.152   3.836  0.00  0.00    -0.338 OA
ATOM     12  C1* UNL     1     -36.044  23.091   2.820  0.00  0.00    +0.181 C 
ATOM     13  C2* UNL     1     -35.946  24.489   3.418  0.00  0.00    +0.079 C 
ATOM     14  C3* UNL     1     -35.933  24.227   4.909  0.00  0.00    +0.144 C 
ATOM     15  C4* UNL     1     -35.201  22.898   4.982  0.00  0.00    +0.173 C 
BRANCH  14  16
ATOM     16  O3* UNL     1     -35.255  25.253   5.604  0.00  0.00    -0.382 OA
ATOM     17  H3* UNL     1     -34.849  24.887   6.405  0.00  0.00    +0.210 HD
ENDBRANCH  14  16
BRANCH  15  18
ATOM     18  C5* UNL     1     -35.495  22.112   6.248  0.00  0.00    +0.169 C 
BRANCH  18  19
ATOM     19  O5* UNL     1     -35.410  20.729   5.951  0.00  0.00    -0.379 OA
ATOM     20  H5* UNL     1     -34.944  20.273   6.670  0.00  0.00    +0.211 HD
ENDBRANCH  18  19
ENDBRANCH  15  18
ENDBRANCH   1  12
BRANCH   8  21
ATOM     21  N   UNL     1     -41.126  21.026   0.371  0.00  0.00    -0.248 NA
ATOM     22  H   UNL     1     -41.546  21.850   0.035  0.00  0.00    +0.172 HD
ENDBRANCH   8  21
TORSDOF 5
ENDMDL
MODEL 5
REMARK VINA RESULT:      -5.3      2.774      3.627
REMARK  Name = 195909
REMARK  5 active torsions:
REMARK  status: ('A' for Active; 'I' for Inactive)
REMARK    1  A    between atoms: N_1  and  C1*_14
REMARK    2  A    between atoms: N_5  and  C_9
REMARK    3  A    between atoms: C3*_16  and  O3*_18
REMARK    4  A    between atoms: C4*_17  and  C5*_20
REMARK    5  A    between atoms: C5*_20  and  O5*_21
REMARK                            x       y       z     vdW  Elec       q    Type
REMARK                         _______ _______ _______ _____ _____    ______ ____
ROOT
ATOM      1  N   UNL     1     -35.082  23.462   3.151  0.00  0.00    -0.212 NA
ATOM      2  N   UNL     1     -33.597  25.289   2.442  0.00  0.00    -0.234 NA
ATOM      3  N   UNL     1     -35.272  24.059   5.306  0.00  0.00    -0.251 NA
ATOM      4  N   UNL     1     -33.020  26.829   4.217  0.00  0.00    -0.236 NA
ATOM      5  C   UNL     1     -34.339  24.585   3.321  0.00  0.00    +0.167 C 
ATOM      6  C   UNL     1     -35.628  23.182   4.383  0.00  0.00    +0.204 C 
ATOM      7  C   UNL     1     -34.466  24.937   4.640  0.00  0.00    +0.118 C 
ATOM      8  C   UNL     1     -33.783  26.108   5.129  0.00  0.00    +0.157 C 
ATOM      9  C   UNL     1     -32.968  26.405   2.981  0.00  0.00    +0.204 C 
ATOM     10  C   UNL     1     -33.467  24.915   1.047  0.00  0.00    +0.093 C 
ENDROOT
BRANCH   1  12
ATOM     11  O4* UNL     1     -36.608  22.954   1.411  0.00  0.00    -0.338 OA
ATOM     12  C1* UNL     1     -35.304  22.661   1.947  0.00  0.00    +0.181 C 
ATOM     13  C2* UNL     1     -35.230  21.157   2.185  0.00  0.00    +0.079 C 
ATOM     14  C3* UNL     1     -36.684  20.738   2.200  0.00  0.00    +0.144 C 
ATOM     15  C4* UNL     1     -37.296  21.710   1.205  0.00  0.00    +0.173 C 
BRANCH  14  16
ATOM     16  O3* UNL     1     -36.834  19.392   1.798  0.00  0.00    -0.382 OA
ATOM     17  H3* UNL     1     -37.433  18.937   2.410  0.00  0.00    +0.210 HD
ENDBRANCH  14  16
BRANCH  15  18
ATOM     18  C5* UNL     1     -38.789  21.913   1.395  0.00  0.00    +0.169 C 
BRANCH  18  19
ATOM     19  O5* UNL     1     -39.262  20.951   2.321  0.00  0.00    -0.379 OA
ATOM     20  H5* UNL     1     -38.921  20.075   2.080  0.00  0.00    +0.211 HD
ENDBRANCH  18  19
ENDBRANCH  15  18
ENDBRANCH   1  12
BRANCH   8  21
ATOM     21  N   UNL     1     -33.873  26.473   6.364  0.00  0.00    -0.248 NA
ATOM     22  H   UNL     1     -33.188  26.188   7.011  0.00  0.00    +0.172 HD
ENDBRANCH   8  21
TORSDOF 5
ENDMDL
MODEL 6
REMARK VINA RESULT:      -5.3      4.871      7.803
REMARK  Name = 195909
REMARK  5 active torsions:
REMARK  status: ('A' for Active; 'I' for Inactive)
REMARK    1  A    between atoms: N_1  and  C1*_14
REMARK    2  A    between atoms: N_5  and  C_9
REMARK    3  A    between atoms: C3*_16  and  O3*_18
REMARK    4  A    between atoms: C4*_17  and  C5*_20
REMARK    5  A    between atoms: C5*_20  and  O5*_21
REMARK                            x       y       z     vdW  Elec       q    Type
REMARK                         _______ _______ _______ _____ _____    ______ ____
ROOT
ATOM      1  N   UNL     1     -37.622  22.873   2.817  0.00  0.00    -0.212 NA
ATOM      2  N   UNL     1     -37.563  20.836   1.442  0.00  0.00    -0.234 NA
ATOM      3  N   UNL     1     -39.598  23.657   2.096  0.00  0.00    -0.251 NA
ATOM      4  N   UNL     1     -39.499  20.560   0.016  0.00  0.00    -0.236 NA
ATOM      5  C   UNL     1     -38.093  21.989   1.901  0.00  0.00    +0.167 C 
ATOM      6  C   UNL     1     -38.570  23.868   2.900  0.00  0.00    +0.204 C 
ATOM      7  C   UNL     1     -39.297  22.480   1.472  0.00  0.00    +0.118 C 
ATOM      8  C   UNL     1     -40.049  21.748   0.485  0.00  0.00    +0.157 C 
ATOM      9  C   UNL     1     -38.342  20.182   0.494  0.00  0.00    +0.204 C 
ATOM     10  C   UNL     1     -36.290  20.318   1.900  0.00  0.00    +0.093 C 
ENDROOT
BRANCH   1  12
ATOM     11  O4* UNL     1     -36.559  23.602   4.805  0.00  0.00    -0.338 OA
ATOM     12  C1* UNL     1     -36.381  22.847   3.592  0.00  0.00    +0.181 C 
ATOM     13  C2* UNL     1     -35.182  23.432   2.855  0.00  0.00    +0.079 C 
ATOM     14  C3* UNL     1     -35.027  24.801   3.480  0.00  0.00    +0.144 C 
ATOM     15  C4* UNL     1     -35.477  24.541   4.908  0.00  0.00    +0.173 C 
BRANCH  14  16
ATOM     16  O3* UNL     1     -33.689  25.248   3.412  0.00  0.00    -0.382 OA
ATOM     17  H3* UNL     1     -33.386  25.222   2.491  0.00  0.00    +0.210 HD
ENDBRANCH  14  16
BRANCH  15  18
ATOM     18  C5* UNL     1     -35.951  25.789   5.632  0.00  0.00    +0.169 C 
BRANCH  18  19
ATOM     19  O5* UNL     1     -35.799  26.900   4.765  0.00  0.00    -0.379 OA
ATOM     20  H5* UNL     1     -35.199  26.664   4.040  0.00  0.00    +0.211 HD
ENDBRANCH  18  19
ENDBRANCH  15  18
ENDBRANCH   1  12
BRANCH   8  21
ATOM     21  N   UNL     1     -41.187  22.176   0.050  0.00  0.00    -0.248 NA
ATOM     22  H   UNL     1     -41.328  23.139  -0.090  0.00  0.00    +0.172 HD
ENDBRANCH   8  21
TORSDOF 5
ENDMDL
MODEL 7
REMARK VINA RESULT:      -5.3      3.371      5.837
REMARK  Name = 195909
REMARK  5 active torsions:
REMARK  status: ('A' for Active; 'I' for Inactive)
REMARK    1  A    between atoms: N_1  and  C1*_14
REMARK    2  A    between atoms: N_5  and  C_9
REMARK    3  A    between atoms: C3*_16  and  O3*_18
REMARK    4  A    between atoms: C4*_17  and  C5*_20
REMARK    5  A    between atoms: C5*_20  and  O5*_21
REMARK                            x       y       z     vdW  Elec       q    Type
REMARK                         _______ _______ _______ _____ _____    ______ ____
ROOT
ATOM      1  N   UNL     1     -34.784  24.804   3.553  0.00  0.00    -0.212 NA
ATOM      2  N   UNL     1     -35.133  22.774   2.210  0.00  0.00    -0.234 NA
ATOM      3  N   UNL     1     -34.931  23.845   5.577  0.00  0.00    -0.251 NA
ATOM      4  N   UNL     1     -35.458  20.771   3.528  0.00  0.00    -0.236 NA
ATOM      5  C   UNL     1     -35.008  23.480   3.353  0.00  0.00    +0.167 C 
ATOM      6  C   UNL     1     -34.746  24.976   4.918  0.00  0.00    +0.204 C 
ATOM      7  C   UNL     1     -35.095  22.910   4.595  0.00  0.00    +0.118 C 
ATOM      8  C   UNL     1     -35.330  21.493   4.709  0.00  0.00    +0.157 C 
ATOM      9  C   UNL     1     -35.358  21.415   2.394  0.00  0.00    +0.204 C 
ATOM     10  C   UNL     1     -35.039  23.381   0.897  0.00  0.00    +0.093 C 
ENDROOT
BRANCH   1  12
ATOM     11  O4* UNL     1     -33.280  26.421   2.694  0.00  0.00    -0.338 OA
ATOM     12  C1* UNL     1     -34.610  25.882   2.578  0.00  0.00    +0.181 C 
ATOM     13  C2* UNL     1     -35.593  27.034   2.752  0.00  0.00    +0.079 C 
ATOM     14  C3* UNL     1     -34.758  28.101   3.425  0.00  0.00    +0.144 C 
ATOM     15  C4* UNL     1     -33.387  27.849   2.819  0.00  0.00    +0.173 C 
BRANCH  14  16
ATOM     16  O3* UNL     1     -35.244  29.394   3.131  0.00  0.00    -0.382 OA
ATOM     17  H3* UNL     1     -36.189  29.344   2.915  0.00  0.00    +0.210 HD
ENDBRANCH  14  16
BRANCH  15  18
ATOM     18  C5* UNL     1     -32.243  28.375   3.667  0.00  0.00    +0.169 C 
BRANCH  18  19
ATOM     19  O5* UNL     1     -32.782  28.990   4.824  0.00  0.00    -0.379 OA
ATOM     20  H5* UNL     1     -33.189  29.837   4.580  0.00  0.00    +0.211 HD
ENDBRANCH  18  19
ENDBRANCH  15  18
ENDBRANCH   1  12
BRANCH   8  21
ATOM     21  N   UNL     1     -35.422  20.915   5.860  0.00  0.00    -0.248 NA
ATOM     22  H   UNL     1     -34.685  20.350   6.186  0.00  0.00    +0.172 HD
ENDBRANCH   8  21
TORSDOF 5
ENDMDL
MODEL 8
REMARK VINA RESULT:      -5.2      1.383      2.845
REMARK  Name = 195909
REMARK  5 active torsions:
REMARK  status: ('A' for Active; 'I' for Inactive)
REMARK    1  A    between atoms: N_1  and  C1*_14
REMARK    2  A    between atoms: N_5  and  C_9
REMARK    3  A    between atoms: C3*_16  and  O3*_18
REMARK    4  A    between atoms: C4*_17  and  C5*_20
REMARK    5  A    between atoms: C5*_20  and  O5*_21
REMARK                            x       y       z     vdW  Elec       q    Type
REMARK                         _______ _______ _______ _____ _____    ______ ____
ROOT
ATOM      1  N   UNL     1     -33.566  26.433   4.398  0.00  0.00    -0.212 NA
ATOM      2  N   UNL     1     -32.089  27.679   5.917  0.00  0.00    -0.234 NA
ATOM      3  N   UNL     1     -32.630  27.096   2.469  0.00  0.00    -0.251 NA
ATOM      4  N   UNL     1     -30.392  28.981   4.785  0.00  0.00    -0.236 NA
ATOM      5  C   UNL     1     -32.543  27.265   4.716  0.00  0.00    +0.167 C 
ATOM      6  C   UNL     1     -33.579  26.362   3.023  0.00  0.00    +0.204 C 
ATOM      7  C   UNL     1     -31.982  27.661   3.530  0.00  0.00    +0.118 C 
ATOM      8  C   UNL     1     -30.855  28.559   3.544  0.00  0.00    +0.157 C 
ATOM      9  C   UNL     1     -31.002  28.543   5.856  0.00  0.00    +0.204 C 
ATOM     10  C   UNL     1     -32.684  27.258   7.170  0.00  0.00    +0.093 C 
ENDROOT
BRANCH   1  12
ATOM     11  O4* UNL     1     -34.430  24.311   5.003  0.00  0.00    -0.338 OA
ATOM     12  C1* UNL     1     -34.502  25.724   5.271  0.00  0.00    +0.181 C 
ATOM     13  C2* UNL     1     -35.954  26.154   5.096  0.00  0.00    +0.079 C 
ATOM     14  C3* UNL     1     -36.551  25.030   4.277  0.00  0.00    +0.144 C 
ATOM     15  C4* UNL     1     -35.767  23.831   4.782  0.00  0.00    +0.173 C 
BRANCH  14  16
ATOM     16  O3* UNL     1     -37.938  24.903   4.515  0.00  0.00    -0.382 OA
ATOM     17  H3* UNL     1     -38.148  25.246   5.398  0.00  0.00    +0.210 HD
ENDBRANCH  14  16
BRANCH  15  18
ATOM     18  C5* UNL     1     -35.737  22.670   3.803  0.00  0.00    +0.169 C 
BRANCH  18  19
ATOM     19  O5* UNL     1     -37.067  22.239   3.572  0.00  0.00    -0.379 OA
ATOM     20  H5* UNL     1     -37.345  21.650   4.291  0.00  0.00    +0.211 HD
ENDBRANCH  18  19
ENDBRANCH  15  18
ENDBRANCH   1  12
BRANCH   8  21
ATOM     21  N   UNL     1     -30.298  28.958   2.451  0.00  0.00    -0.248 NA
ATOM     22  H   UNL     1     -30.448  29.877   2.130  0.00  0.00    +0.172 HD
ENDBRANCH   8  21
TORSDOF 5
ENDMDL
MODEL 9
REMARK VINA RESULT:      -5.1      1.634      2.107
REMARK  Name = 195909
REMARK  5 active torsions:
REMARK  status: ('A' for Active; 'I' for Inactive)
REMARK    1  A    between atoms: N_1  and  C1*_14
REMARK    2  A    between atoms: N_5  and  C_9
REMARK    3  A    between atoms: C3*_16  and  O3*_18
REMARK    4  A    between atoms: C4*_17  and  C5*_20
REMARK    5  A    between atoms: C5*_20  and  O5*_21
REMARK                            x       y       z     vdW  Elec       q    Type
REMARK                         _______ _______ _______ _____ _____    ______ ____
ROOT
ATOM      1  N   UNL     1     -35.196  24.989   3.869  0.00  0.00    -0.212 NA
ATOM      2  N   UNL     1     -33.474  26.554   3.075  0.00  0.00    -0.234 NA
ATOM      3  N   UNL     1     -34.889  25.306   6.069  0.00  0.00    -0.251 NA
ATOM      4  N   UNL     1     -32.280  27.681   4.853  0.00  0.00    -0.236 NA
ATOM      5  C   UNL     1     -34.201  25.902   4.005  0.00  0.00    +0.167 C 
ATOM      6  C   UNL     1     -35.580  24.658   5.148  0.00  0.00    +0.204 C 
ATOM      7  C   UNL     1     -34.026  26.084   5.352  0.00  0.00    +0.118 C 
ATOM      8  C   UNL     1     -33.025  27.011   5.816  0.00  0.00    +0.157 C 
ATOM      9  C   UNL     1     -32.529  27.431   3.593  0.00  0.00    +0.204 C 
ATOM     10  C   UNL     1     -33.663  26.359   1.651  0.00  0.00    +0.093 C 
ENDROOT
BRANCH   1  12
ATOM     11  O4* UNL     1     -37.109  24.970   2.470  0.00  0.00    -0.338 OA
ATOM     12  C1* UNL     1     -35.788  24.425   2.655  0.00  0.00    +0.181 C 
ATOM     13  C2* UNL     1     -35.914  22.906   2.679  0.00  0.00    +0.079 C 
ATOM     14  C3* UNL     1     -37.383  22.687   2.970  0.00  0.00    +0.144 C 
ATOM     15  C4* UNL     1     -38.018  23.876   2.270  0.00  0.00    +0.173 C 
BRANCH  14  16
ATOM     16  O3* UNL     1     -37.831  21.453   2.447  0.00  0.00    -0.382 OA
ATOM     17  H3* UNL     1     -37.098  21.009   1.992  0.00  0.00    +0.210 HD
ENDBRANCH  14  16
BRANCH  15  18
ATOM     18  C5* UNL     1     -39.387  24.243   2.817  0.00  0.00    +0.169 C 
BRANCH  18  19
ATOM     19  O5* UNL     1     -39.212  24.998   4.003  0.00  0.00    -0.379 OA
ATOM     20  H5* UNL     1     -38.338  25.421   3.991  0.00  0.00    +0.211 HD
ENDBRANCH  18  19
ENDBRANCH  15  18
ENDBRANCH   1  12
BRANCH   8  21
ATOM     21  N   UNL     1     -32.826  27.212   7.076  0.00  0.00    -0.248 NA
ATOM     22  H   UNL     1     -33.400  27.841   7.570  0.00  0.00    +0.172 HD
ENDBRANCH   8  21
TORSDOF 5
ENDMDL
