MODEL 1
REMARK VINA RESULT:      -4.6      0.000      0.000
REMARK  Name = 20849151
REMARK  10 active torsions:
REMARK  status: ('A' for Active; 'I' for Inactive)
REMARK    1  A    between atoms: C_1  and  N_3
REMARK    2  A    between atoms: C_1  and  C_8
REMARK    3  A    between atoms: C_1  and  C_11
REMARK    4  A    between atoms: C_8  and  O_9
REMARK    5  A    between atoms: C_11  and  S_12
REMARK    6  A    between atoms: S_12  and  C_13
REMARK    7  A    between atoms: C_13  and  C_14
REMARK    8  A    between atoms: C_14  and  C_16
REMARK    9  A    between atoms: C_16  and  C_18
REMARK   10  A    between atoms: C_18  and  O_19
REMARK                            x       y       z     vdW  Elec       q    Type
REMARK                         _______ _______ _______ _____ _____    ______ ____
ROOT
ATOM      1  C   UNK A   1     -35.696  22.881   4.636  0.00  0.00    +0.182 C 
ENDROOT
BRANCH   1   3
ATOM      2  O   UNK A   0     -35.526  22.008   1.873  0.00  0.00    -0.275 OA
ATOM      3  N   UNK A   1     -36.769  22.401   3.802  0.00  0.00    -0.296 N 
ATOM      4  C   UNK A   0     -36.590  22.004   2.486  0.00  0.00    +0.223 C 
ATOM      5  C   UNK A   0     -37.869  21.522   1.854  0.00  0.00    +0.095 C 
ATOM      6  H   UNK A   1     -37.674  22.352   4.186  0.00  0.00    +0.150 HD
ENDBRANCH   1   3
BRANCH   1   8
ATOM      7  O   UNK A   1     -35.317  22.272   6.952  0.00  0.00    -0.248 OA
ATOM      8  C   UNK A   1     -35.395  21.926   5.779  0.00  0.00    +0.333 C 
BRANCH   8   9
ATOM      9  O   UNK A   1     -35.204  20.648   5.373  0.00  0.00    -0.479 OA
ATOM     10  H   UNK A   1     -34.443  20.178   5.652  0.00  0.00    +0.295 HD
ENDBRANCH   8   9
ENDBRANCH   1   8
BRANCH   1  11
ATOM     11  C   UNK A   1     -35.944  24.311   5.121  0.00  0.00    +0.089 C 
BRANCH  11  12
ATOM     12  S   UNK A   1     -34.741  25.509   4.502  0.00  0.00    -0.137 S 
BRANCH  12  13
ATOM     13  C   UNK A   1     -35.253  25.514   2.756  0.00  0.00    +0.066 C 
BRANCH  13  14
ATOM     14  C   UNK A   1     -36.511  26.346   2.531  0.00  0.00    +0.088 C 
BRANCH  14  16
ATOM     15  O   UNK A   1     -37.861  24.995   1.010  0.00  0.00    -0.284 OA
ATOM     16  C   UNK A   1     -37.708  25.527   2.100  0.00  0.00    +0.249 C 
BRANCH  16  18
ATOM     17  O   UNK A   1     -39.167  24.285   3.512  0.00  0.00    -0.242 OA
ATOM     18  C   UNK A   1     -38.817  25.373   3.101  0.00  0.00    +0.373 C 
BRANCH  18  19
ATOM     19  O   UNK A   1     -39.345  26.569   3.388  0.00  0.00    -0.475 OA
ATOM     20  H   UNK A   1     -40.268  26.653   3.529  0.00  0.00    +0.295 HD
ENDBRANCH  18  19
ENDBRANCH  16  18
ENDBRANCH  14  16
ENDBRANCH  13  14
ENDBRANCH  12  13
ENDBRANCH  11  12
ENDBRANCH   1  11
TORSDOF 10
ENDMDL
MODEL 2
REMARK VINA RESULT:      -4.6      3.322      4.311
REMARK  Name = 20849151
REMARK  10 active torsions:
REMARK  status: ('A' for Active; 'I' for Inactive)
REMARK    1  A    between atoms: C_1  and  N_3
REMARK    2  A    between atoms: C_1  and  C_8
REMARK    3  A    between atoms: C_1  and  C_11
REMARK    4  A    between atoms: C_8  and  O_9
REMARK    5  A    between atoms: C_11  and  S_12
REMARK    6  A    between atoms: S_12  and  C_13
REMARK    7  A    between atoms: C_13  and  C_14
REMARK    8  A    between atoms: C_14  and  C_16
REMARK    9  A    between atoms: C_16  and  C_18
REMARK   10  A    between atoms: C_18  and  O_19
REMARK                            x       y       z     vdW  Elec       q    Type
REMARK                         _______ _______ _______ _____ _____    ______ ____
ROOT
ATOM      1  C   UNK A   1     -35.430  23.066   4.704  0.00  0.00    +0.182 C 
ENDROOT
BRANCH   1   3
ATOM      2  O   UNK A   0     -36.557  21.842   2.326  0.00  0.00    -0.275 OA
ATOM      3  N   UNK A   1     -36.690  23.373   4.075  0.00  0.00    -0.296 N 
ATOM      4  C   UNK A   0     -37.146  22.731   2.935  0.00  0.00    +0.223 C 
ATOM      5  C   UNK A   0     -38.501  23.226   2.503  0.00  0.00    +0.095 C 
ATOM      6  H   UNK A   1     -37.254  24.073   4.475  0.00  0.00    +0.150 HD
ENDBRANCH   1   3
BRANCH   1   8
ATOM      7  O   UNK A   1     -36.060  22.079   6.827  0.00  0.00    -0.248 OA
ATOM      8  C   UNK A   1     -35.560  21.941   5.717  0.00  0.00    +0.333 C 
BRANCH   8   9
ATOM      9  O   UNK A   1     -35.055  20.763   5.278  0.00  0.00    -0.479 OA
ATOM     10  H   UNK A   1     -35.233  19.973   5.750  0.00  0.00    +0.295 HD
ENDBRANCH   8   9
ENDBRANCH   1   8
BRANCH   1  11
ATOM     11  C   UNK A   1     -34.768  24.312   5.299  0.00  0.00    +0.089 C 
BRANCH  11  12
ATOM     12  S   UNK A   1     -35.806  25.790   5.233  0.00  0.00    -0.137 S 
BRANCH  12  13
ATOM     13  C   UNK A   1     -34.879  26.702   3.962  0.00  0.00    +0.066 C 
BRANCH  13  14
ATOM     14  C   UNK A   1     -33.373  26.639   4.196  0.00  0.00    +0.088 C 
BRANCH  14  16
ATOM     15  O   UNK A   1     -32.802  28.953   4.725  0.00  0.00    -0.284 OA
ATOM     16  C   UNK A   1     -32.846  27.774   5.045  0.00  0.00    +0.249 C 
BRANCH  16  18
ATOM     17  O   UNK A   1     -33.018  26.948   7.271  0.00  0.00    -0.242 OA
ATOM     18  C   UNK A   1     -32.309  27.411   6.400  0.00  0.00    +0.373 C 
BRANCH  18  19
ATOM     19  O   UNK A   1     -31.010  27.728   6.478  0.00  0.00    -0.475 OA
ATOM     20  H   UNK A   1     -30.689  28.499   6.054  0.00  0.00    +0.295 HD
ENDBRANCH  18  19
ENDBRANCH  16  18
ENDBRANCH  14  16
ENDBRANCH  13  14
ENDBRANCH  12  13
ENDBRANCH  11  12
ENDBRANCH   1  11
TORSDOF 10
ENDMDL
MODEL 3
REMARK VINA RESULT:      -4.6      2.626      3.918
REMARK  Name = 20849151
REMARK  10 active torsions:
REMARK  status: ('A' for Active; 'I' for Inactive)
REMARK    1  A    between atoms: C_1  and  N_3
REMARK    2  A    between atoms: C_1  and  C_8
REMARK    3  A    between atoms: C_1  and  C_11
REMARK    4  A    between atoms: C_8  and  O_9
REMARK    5  A    between atoms: C_11  and  S_12
REMARK    6  A    between atoms: S_12  and  C_13
REMARK    7  A    between atoms: C_13  and  C_14
REMARK    8  A    between atoms: C_14  and  C_16
REMARK    9  A    between atoms: C_16  and  C_18
REMARK   10  A    between atoms: C_18  and  O_19
REMARK                            x       y       z     vdW  Elec       q    Type
REMARK                         _______ _______ _______ _____ _____    ______ ____
ROOT
ATOM      1  C   UNK A   1     -36.186  22.049   2.568  0.00  0.00    +0.182 C 
ENDROOT
BRANCH   1   3
ATOM      2  O   UNK A   0     -36.488  23.461   5.086  0.00  0.00    -0.275 OA
ATOM      3  N   UNK A   1     -35.602  21.705   3.840  0.00  0.00    -0.296 N 
ATOM      4  C   UNK A   0     -35.805  22.445   4.995  0.00  0.00    +0.223 C 
ATOM      5  C   UNK A   0     -35.100  21.851   6.186  0.00  0.00    +0.095 C 
ATOM      6  H   UNK A   1     -35.031  20.905   3.892  0.00  0.00    +0.150 HD
ENDBRANCH   1   3
BRANCH   1   8
ATOM      7  O   UNK A   1     -37.764  21.010   1.048  0.00  0.00    -0.248 OA
ATOM      8  C   UNK A   1     -36.966  20.889   1.970  0.00  0.00    +0.333 C 
BRANCH   8   9
ATOM      9  O   UNK A   1     -36.705  19.703   2.569  0.00  0.00    -0.479 OA
ATOM     10  H   UNK A   1     -36.066  19.124   2.201  0.00  0.00    +0.295 HD
ENDBRANCH   8   9
ENDBRANCH   1   8
BRANCH   1  11
ATOM     11  C   UNK A   1     -35.150  22.617   1.596  0.00  0.00    +0.089 C 
BRANCH  11  12
ATOM     12  S   UNK A   1     -35.624  24.203   0.871  0.00  0.00    -0.137 S 
BRANCH  12  13
ATOM     13  C   UNK A   1     -34.247  25.204   1.512  0.00  0.00    +0.066 C 
BRANCH  13  14
ATOM     14  C   UNK A   1     -34.230  25.244   3.037  0.00  0.00    +0.088 C 
BRANCH  14  16
ATOM     15  O   UNK A   1     -35.289  27.443   2.990  0.00  0.00    -0.284 OA
ATOM     16  C   UNK A   1     -34.906  26.465   3.617  0.00  0.00    +0.249 C 
BRANCH  16  18
ATOM     17  O   UNK A   1     -34.174  26.462   5.883  0.00  0.00    -0.242 OA
ATOM     18  C   UNK A   1     -35.107  26.484   5.106  0.00  0.00    +0.373 C 
BRANCH  18  19
ATOM     19  O   UNK A   1     -36.415  26.469   5.392  0.00  0.00    -0.475 OA
ATOM     20  H   UNK A   1     -36.898  25.668   5.339  0.00  0.00    +0.295 HD
ENDBRANCH  18  19
ENDBRANCH  16  18
ENDBRANCH  14  16
ENDBRANCH  13  14
ENDBRANCH  12  13
ENDBRANCH  11  12
ENDBRANCH   1  11
TORSDOF 10
ENDMDL
MODEL 4
REMARK VINA RESULT:      -4.6      2.272      3.563
REMARK  Name = 20849151
REMARK  10 active torsions:
REMARK  status: ('A' for Active; 'I' for Inactive)
REMARK    1  A    between atoms: C_1  and  N_3
REMARK    2  A    between atoms: C_1  and  C_8
REMARK    3  A    between atoms: C_1  and  C_11
REMARK    4  A    between atoms: C_8  and  O_9
REMARK    5  A    between atoms: C_11  and  S_12
REMARK    6  A    between atoms: S_12  and  C_13
REMARK    7  A    between atoms: C_13  and  C_14
REMARK    8  A    between atoms: C_14  and  C_16
REMARK    9  A    between atoms: C_16  and  C_18
REMARK   10  A    between atoms: C_18  and  O_19
REMARK                            x       y       z     vdW  Elec       q    Type
REMARK                         _______ _______ _______ _____ _____    ______ ____
ROOT
ATOM      1  C   UNK A   1     -34.289  25.116   4.149  0.00  0.00    +0.182 C 
ENDROOT
BRANCH   1   3
ATOM      2  O   UNK A   0     -36.417  23.811   5.630  0.00  0.00    -0.275 OA
ATOM      3  N   UNK A   1     -34.238  23.837   4.812  0.00  0.00    -0.296 N 
ATOM      4  C   UNK A   0     -35.312  23.293   5.498  0.00  0.00    +0.223 C 
ATOM      5  C   UNK A   0     -34.997  21.938   6.073  0.00  0.00    +0.095 C 
ATOM      6  H   UNK A   1     -33.399  23.324   4.774  0.00  0.00    +0.150 HD
ENDBRANCH   1   3
BRANCH   1   8
ATOM      7  O   UNK A   1     -33.941  26.661   5.986  0.00  0.00    -0.248 OA
ATOM      8  C   UNK A   1     -34.677  26.234   5.104  0.00  0.00    +0.333 C 
BRANCH   8   9
ATOM      9  O   UNK A   1     -35.928  26.707   4.895  0.00  0.00    -0.479 OA
ATOM     10  H   UNK A   1     -36.110  27.235   4.142  0.00  0.00    +0.295 HD
ENDBRANCH   8   9
ENDBRANCH   1   8
BRANCH   1  11
ATOM     11  C   UNK A   1     -35.176  25.082   2.902  0.00  0.00    +0.089 C 
BRANCH  11  12
ATOM     12  S   UNK A   1     -34.954  23.599   1.893  0.00  0.00    -0.137 S 
BRANCH  12  13
ATOM     13  C   UNK A   1     -36.679  23.391   1.354  0.00  0.00    +0.066 C 
BRANCH  13  14
ATOM     14  C   UNK A   1     -37.556  22.804   2.454  0.00  0.00    +0.088 C 
BRANCH  14  16
ATOM     15  O   UNK A   1     -39.991  22.927   2.322  0.00  0.00    -0.284 OA
ATOM     16  C   UNK A   1     -38.916  23.459   2.558  0.00  0.00    +0.249 C 
BRANCH  16  18
ATOM     17  O   UNK A   1     -39.338  25.778   2.229  0.00  0.00    -0.242 OA
ATOM     18  C   UNK A   1     -38.940  24.903   2.971  0.00  0.00    +0.373 C 
BRANCH  18  19
ATOM     19  O   UNK A   1     -38.422  25.037   4.198  0.00  0.00    -0.475 OA
ATOM     20  H   UNK A   1     -37.605  24.631   4.409  0.00  0.00    +0.295 HD
ENDBRANCH  18  19
ENDBRANCH  16  18
ENDBRANCH  14  16
ENDBRANCH  13  14
ENDBRANCH  12  13
ENDBRANCH  11  12
ENDBRANCH   1  11
TORSDOF 10
ENDMDL
MODEL 5
REMARK VINA RESULT:      -4.5      2.842      4.453
REMARK  Name = 20849151
REMARK  10 active torsions:
REMARK  status: ('A' for Active; 'I' for Inactive)
REMARK    1  A    between atoms: C_1  and  N_3
REMARK    2  A    between atoms: C_1  and  C_8
REMARK    3  A    between atoms: C_1  and  C_11
REMARK    4  A    between atoms: C_8  and  O_9
REMARK    5  A    between atoms: C_11  and  S_12
REMARK    6  A    between atoms: S_12  and  C_13
REMARK    7  A    between atoms: C_13  and  C_14
REMARK    8  A    between atoms: C_14  and  C_16
REMARK    9  A    between atoms: C_16  and  C_18
REMARK   10  A    between atoms: C_18  and  O_19
REMARK                            x       y       z     vdW  Elec       q    Type
REMARK                         _______ _______ _______ _____ _____    ______ ____
ROOT
ATOM      1  C   UNK A   1     -36.771  23.899   3.404  0.00  0.00    +0.182 C 
ENDROOT
BRANCH   1   3
ATOM      2  O   UNK A   0     -34.683  24.021   5.416  0.00  0.00    -0.275 OA
ATOM      3  N   UNK A   1     -36.527  22.960   4.470  0.00  0.00    -0.296 N 
ATOM      4  C   UNK A   0     -35.498  23.103   5.388  0.00  0.00    +0.223 C 
ATOM      5  C   UNK A   0     -35.485  21.996   6.409  0.00  0.00    +0.095 C 
ATOM      6  H   UNK A   1     -37.119  22.179   4.550  0.00  0.00    +0.150 HD
ENDBRANCH   1   3
BRANCH   1   8
ATOM      7  O   UNK A   1     -39.102  24.525   3.645  0.00  0.00    -0.248 OA
ATOM      8  C   UNK A   1     -37.921  24.839   3.729  0.00  0.00    +0.333 C 
BRANCH   8   9
ATOM      9  O   UNK A   1     -37.512  26.074   4.109  0.00  0.00    -0.479 OA
ATOM     10  H   UNK A   1     -36.895  26.168   4.808  0.00  0.00    +0.295 HD
ENDBRANCH   8   9
ENDBRANCH   1   8
BRANCH   1  11
ATOM     11  C   UNK A   1     -36.954  23.200   2.055  0.00  0.00    +0.089 C 
BRANCH  11  12
ATOM     12  S   UNK A   1     -35.790  23.751   0.787  0.00  0.00    -0.137 S 
BRANCH  12  13
ATOM     13  C   UNK A   1     -34.450  24.305   1.886  0.00  0.00    +0.066 C 
BRANCH  13  14
ATOM     14  C   UNK A   1     -34.240  25.814   1.817  0.00  0.00    +0.088 C 
BRANCH  14  16
ATOM     15  O   UNK A   1     -32.263  26.030   3.234  0.00  0.00    -0.284 OA
ATOM     16  C   UNK A   1     -33.407  26.360   2.955  0.00  0.00    +0.249 C 
BRANCH  16  18
ATOM     17  O   UNK A   1     -33.767  28.568   3.770  0.00  0.00    -0.242 OA
ATOM     18  C   UNK A   1     -34.057  27.390   3.835  0.00  0.00    +0.373 C 
BRANCH  18  19
ATOM     19  O   UNK A   1     -34.910  26.798   4.680  0.00  0.00    -0.475 OA
ATOM     20  H   UNK A   1     -34.639  26.596   5.554  0.00  0.00    +0.295 HD
ENDBRANCH  18  19
ENDBRANCH  16  18
ENDBRANCH  14  16
ENDBRANCH  13  14
ENDBRANCH  12  13
ENDBRANCH  11  12
ENDBRANCH   1  11
TORSDOF 10
ENDMDL
MODEL 6
REMARK VINA RESULT:      -4.5      3.112      6.090
REMARK  Name = 20849151
REMARK  10 active torsions:
REMARK  status: ('A' for Active; 'I' for Inactive)
REMARK    1  A    between atoms: C_1  and  N_3
REMARK    2  A    between atoms: C_1  and  C_8
REMARK    3  A    between atoms: C_1  and  C_11
REMARK    4  A    between atoms: C_8  and  O_9
REMARK    5  A    between atoms: C_11  and  S_12
REMARK    6  A    between atoms: S_12  and  C_13
REMARK    7  A    between atoms: C_13  and  C_14
REMARK    8  A    between atoms: C_14  and  C_16
REMARK    9  A    between atoms: C_16  and  C_18
REMARK   10  A    between atoms: C_18  and  O_19
REMARK                            x       y       z     vdW  Elec       q    Type
REMARK                         _______ _______ _______ _____ _____    ______ ____
ROOT
ATOM      1  C   UNK A   1     -36.909  23.440   3.277  0.00  0.00    +0.182 C 
ENDROOT
BRANCH   1   3
ATOM      2  O   UNK A   0     -34.483  23.661   4.855  0.00  0.00    -0.275 OA
ATOM      3  N   UNK A   1     -36.592  22.742   4.498  0.00  0.00    -0.296 N 
ATOM      4  C   UNK A   0     -35.400  22.914   5.184  0.00  0.00    +0.223 C 
ATOM      5  C   UNK A   0     -35.337  22.084   6.439  0.00  0.00    +0.095 C 
ATOM      6  H   UNK A   1     -37.254  22.112   4.863  0.00  0.00    +0.150 HD
ENDBRANCH   1   3
BRANCH   1   8
ATOM      7  O   UNK A   1     -36.927  25.862   3.386  0.00  0.00    -0.248 OA
ATOM      8  C   UNK A   1     -37.523  24.804   3.547  0.00  0.00    +0.333 C 
BRANCH   8   9
ATOM      9  O   UNK A   1     -38.798  24.738   4.000  0.00  0.00    -0.479 OA
ATOM     10  H   UNK A   1     -39.254  23.919   3.996  0.00  0.00    +0.295 HD
ENDBRANCH   8   9
ENDBRANCH   1   8
BRANCH   1  11
ATOM     11  C   UNK A   1     -37.768  22.590   2.338  0.00  0.00    +0.089 C 
BRANCH  11  12
ATOM     12  S   UNK A   1     -36.821  21.744   1.052  0.00  0.00    -0.137 S 
BRANCH  12  13
ATOM     13  C   UNK A   1     -36.298  20.298   2.023  0.00  0.00    +0.066 C 
BRANCH  13  14
ATOM     14  C   UNK A   1     -34.779  20.162   2.076  0.00  0.00    +0.088 C 
BRANCH  14  16
ATOM     15  O   UNK A   1     -34.871  18.550   0.245  0.00  0.00    -0.284 OA
ATOM     16  C   UNK A   1     -34.228  19.159   1.087  0.00  0.00    +0.249 C 
BRANCH  16  18
ATOM     17  O   UNK A   1     -32.318  17.881   1.708  0.00  0.00    -0.242 OA
ATOM     18  C   UNK A   1     -32.755  18.875   1.164  0.00  0.00    +0.373 C 
BRANCH  18  19
ATOM     19  O   UNK A   1     -32.064  19.880   0.612  0.00  0.00    -0.475 OA
ATOM     20  H   UNK A   1     -32.513  20.641   0.298  0.00  0.00    +0.295 HD
ENDBRANCH  18  19
ENDBRANCH  16  18
ENDBRANCH  14  16
ENDBRANCH  13  14
ENDBRANCH  12  13
ENDBRANCH  11  12
ENDBRANCH   1  11
TORSDOF 10
ENDMDL
MODEL 7
REMARK VINA RESULT:      -4.4      2.123      3.201
REMARK  Name = 20849151
REMARK  10 active torsions:
REMARK  status: ('A' for Active; 'I' for Inactive)
REMARK    1  A    between atoms: C_1  and  N_3
REMARK    2  A    between atoms: C_1  and  C_8
REMARK    3  A    between atoms: C_1  and  C_11
REMARK    4  A    between atoms: C_8  and  O_9
REMARK    5  A    between atoms: C_11  and  S_12
REMARK    6  A    between atoms: S_12  and  C_13
REMARK    7  A    between atoms: C_13  and  C_14
REMARK    8  A    between atoms: C_14  and  C_16
REMARK    9  A    between atoms: C_16  and  C_18
REMARK   10  A    between atoms: C_18  and  O_19
REMARK                            x       y       z     vdW  Elec       q    Type
REMARK                         _______ _______ _______ _____ _____    ______ ____
ROOT
ATOM      1  C   UNK A   1     -35.577  22.897   4.505  0.00  0.00    +0.182 C 
ENDROOT
BRANCH   1   3
ATOM      2  O   UNK A   0     -36.254  25.529   5.523  0.00  0.00    -0.275 OA
ATOM      3  N   UNK A   1     -34.675  23.986   4.784  0.00  0.00    -0.296 N 
ATOM      4  C   UNK A   0     -35.095  25.214   5.271  0.00  0.00    +0.223 C 
ATOM      5  C   UNK A   0     -33.947  26.162   5.497  0.00  0.00    +0.095 C 
ATOM      6  H   UNK A   1     -33.714  23.852   4.620  0.00  0.00    +0.150 HD
ENDBRANCH   1   3
BRANCH   1   8
ATOM      7  O   UNK A   1     -36.005  22.098   6.754  0.00  0.00    -0.248 OA
ATOM      8  C   UNK A   1     -35.588  21.869   5.625  0.00  0.00    +0.333 C 
BRANCH   8   9
ATOM      9  O   UNK A   1     -35.076  20.670   5.258  0.00  0.00    -0.479 OA
ATOM     10  H   UNK A   1     -34.346  20.311   5.723  0.00  0.00    +0.295 HD
ENDBRANCH   8   9
ENDBRANCH   1   8
BRANCH   1  11
ATOM     11  C   UNK A   1     -35.307  22.265   3.137  0.00  0.00    +0.089 C 
BRANCH  11  12
ATOM     12  S   UNK A   1     -36.807  21.796   2.244  0.00  0.00    -0.137 S 
BRANCH  12  13
ATOM     13  C   UNK A   1     -37.598  23.433   2.186  0.00  0.00    +0.066 C 
BRANCH  13  14
ATOM     14  C   UNK A   1     -36.762  24.445   1.409  0.00  0.00    +0.088 C 
BRANCH  14  16
ATOM     15  O   UNK A   1     -35.882  26.584   2.192  0.00  0.00    -0.284 OA
ATOM     16  C   UNK A   1     -36.832  25.846   1.973  0.00  0.00    +0.249 C 
BRANCH  16  18
ATOM     17  O   UNK A   1     -38.967  26.769   1.462  0.00  0.00    -0.242 OA
ATOM     18  C   UNK A   1     -38.199  26.370   2.314  0.00  0.00    +0.373 C 
BRANCH  18  19
ATOM     19  O   UNK A   1     -38.372  26.369   3.642  0.00  0.00    -0.475 OA
ATOM     20  H   UNK A   1     -37.644  26.205   4.209  0.00  0.00    +0.295 HD
ENDBRANCH  18  19
ENDBRANCH  16  18
ENDBRANCH  14  16
ENDBRANCH  13  14
ENDBRANCH  12  13
ENDBRANCH  11  12
ENDBRANCH   1  11
TORSDOF 10
ENDMDL
MODEL 8
REMARK VINA RESULT:      -4.4      2.295      5.136
REMARK  Name = 20849151
REMARK  10 active torsions:
REMARK  status: ('A' for Active; 'I' for Inactive)
REMARK    1  A    between atoms: C_1  and  N_3
REMARK    2  A    between atoms: C_1  and  C_8
REMARK    3  A    between atoms: C_1  and  C_11
REMARK    4  A    between atoms: C_8  and  O_9
REMARK    5  A    between atoms: C_11  and  S_12
REMARK    6  A    between atoms: S_12  and  C_13
REMARK    7  A    between atoms: C_13  and  C_14
REMARK    8  A    between atoms: C_14  and  C_16
REMARK    9  A    between atoms: C_16  and  C_18
REMARK   10  A    between atoms: C_18  and  O_19
REMARK                            x       y       z     vdW  Elec       q    Type
REMARK                         _______ _______ _______ _____ _____    ______ ____
ROOT
ATOM      1  C   UNK A   1     -36.675  24.224   3.418  0.00  0.00    +0.182 C 
ENDROOT
BRANCH   1   3
ATOM      2  O   UNK A   0     -34.635  24.226   5.482  0.00  0.00    -0.275 OA
ATOM      3  N   UNK A   1     -36.448  23.219   4.425  0.00  0.00    -0.296 N 
ATOM      4  C   UNK A   0     -35.443  23.308   5.375  0.00  0.00    +0.223 C 
ATOM      5  C   UNK A   0     -35.445  22.136   6.321  0.00  0.00    +0.095 C 
ATOM      6  H   UNK A   1     -37.037  22.430   4.440  0.00  0.00    +0.150 HD
ENDBRANCH   1   3
BRANCH   1   8
ATOM      7  O   UNK A   1     -39.087  24.431   3.560  0.00  0.00    -0.248 OA
ATOM      8  C   UNK A   1     -37.986  24.962   3.637  0.00  0.00    +0.333 C 
BRANCH   8   9
ATOM      9  O   UNK A   1     -37.820  26.278   3.915  0.00  0.00    -0.479 OA
ATOM     10  H   UNK A   1     -38.304  26.921   3.435  0.00  0.00    +0.295 HD
ENDBRANCH   8   9
ENDBRANCH   1   8
BRANCH   1  11
ATOM     11  C   UNK A   1     -36.558  23.654   2.002  0.00  0.00    +0.089 C 
BRANCH  11  12
ATOM     12  S   UNK A   1     -34.871  23.660   1.353  0.00  0.00    -0.137 S 
BRANCH  12  13
ATOM     13  C   UNK A   1     -34.993  22.182   0.299  0.00  0.00    +0.066 C 
BRANCH  13  14
ATOM     14  C   UNK A   1     -33.890  21.172   0.600  0.00  0.00    +0.088 C 
BRANCH  14  16
ATOM     15  O   UNK A   1     -33.668  19.059   1.803  0.00  0.00    -0.284 OA
ATOM     16  C   UNK A   1     -34.350  20.013   1.456  0.00  0.00    +0.249 C 
BRANCH  16  18
ATOM     17  O   UNK A   1     -36.696  19.747   1.153  0.00  0.00    -0.242 OA
ATOM     18  C   UNK A   1     -35.784  20.030   1.903  0.00  0.00    +0.373 C 
BRANCH  18  19
ATOM     19  O   UNK A   1     -35.863  20.444   3.174  0.00  0.00    -0.475 OA
ATOM     20  H   UNK A   1     -36.182  19.864   3.838  0.00  0.00    +0.295 HD
ENDBRANCH  18  19
ENDBRANCH  16  18
ENDBRANCH  14  16
ENDBRANCH  13  14
ENDBRANCH  12  13
ENDBRANCH  11  12
ENDBRANCH   1  11
TORSDOF 10
ENDMDL
MODEL 9
REMARK VINA RESULT:      -4.4      1.941      3.335
REMARK  Name = 20849151
REMARK  10 active torsions:
REMARK  status: ('A' for Active; 'I' for Inactive)
REMARK    1  A    between atoms: C_1  and  N_3
REMARK    2  A    between atoms: C_1  and  C_8
REMARK    3  A    between atoms: C_1  and  C_11
REMARK    4  A    between atoms: C_8  and  O_9
REMARK    5  A    between atoms: C_11  and  S_12
REMARK    6  A    between atoms: S_12  and  C_13
REMARK    7  A    between atoms: C_13  and  C_14
REMARK    8  A    between atoms: C_14  and  C_16
REMARK    9  A    between atoms: C_16  and  C_18
REMARK   10  A    between atoms: C_18  and  O_19
REMARK                            x       y       z     vdW  Elec       q    Type
REMARK                         _______ _______ _______ _____ _____    ______ ____
ROOT
ATOM      1  C   UNK A   1     -36.384  22.160   2.785  0.00  0.00    +0.182 C 
ENDROOT
BRANCH   1   3
ATOM      2  O   UNK A   0     -36.277  23.835   5.153  0.00  0.00    -0.275 OA
ATOM      3  N   UNK A   1     -35.832  21.822   4.073  0.00  0.00    -0.296 N 
ATOM      4  C   UNK A   0     -35.827  22.693   5.150  0.00  0.00    +0.223 C 
ATOM      5  C   UNK A   0     -35.214  22.078   6.380  0.00  0.00    +0.095 C 
ATOM      6  H   UNK A   1     -35.440  20.927   4.193  0.00  0.00    +0.150 HD
ENDBRANCH   1   3
BRANCH   1   8
ATOM      7  O   UNK A   1     -36.478  20.092   1.523  0.00  0.00    -0.248 OA
ATOM      8  C   UNK A   1     -37.073  20.973   2.132  0.00  0.00    +0.333 C 
BRANCH   8   9
ATOM      9  O   UNK A   1     -38.419  20.988   2.277  0.00  0.00    -0.479 OA
ATOM     10  H   UNK A   1     -38.962  21.279   1.570  0.00  0.00    +0.295 HD
ENDBRANCH   8   9
ENDBRANCH   1   8
BRANCH   1  11
ATOM     11  C   UNK A   1     -35.343  22.806   1.867  0.00  0.00    +0.089 C 
BRANCH  11  12
ATOM     12  S   UNK A   1     -35.796  24.464   1.307  0.00  0.00    -0.137 S 
BRANCH  12  13
ATOM     13  C   UNK A   1     -37.270  24.018   0.339  0.00  0.00    +0.066 C 
BRANCH  13  14
ATOM     14  C   UNK A   1     -38.357  25.084   0.429  0.00  0.00    +0.088 C 
BRANCH  14  16
ATOM     15  O   UNK A   1     -38.465  26.670   2.282  0.00  0.00    -0.284 OA
ATOM     16  C   UNK A   1     -38.639  25.543   1.842  0.00  0.00    +0.249 C 
BRANCH  16  18
ATOM     17  O   UNK A   1     -39.911  23.621   2.438  0.00  0.00    -0.242 OA
ATOM     18  C   UNK A   1     -39.164  24.508   2.796  0.00  0.00    +0.373 C 
BRANCH  18  19
ATOM     19  O   UNK A   1     -38.730  24.767   4.036  0.00  0.00    -0.475 OA
ATOM     20  H   UNK A   1     -39.095  25.481   4.521  0.00  0.00    +0.295 HD
ENDBRANCH  18  19
ENDBRANCH  16  18
ENDBRANCH  14  16
ENDBRANCH  13  14
ENDBRANCH  12  13
ENDBRANCH  11  12
ENDBRANCH   1  11
TORSDOF 10
ENDMDL
