MODEL 1
REMARK VINA RESULT:      -5.2      0.000      0.000
REMARK  Name = 60852
REMARK  14 active torsions:
REMARK  status: ('A' for Active; 'I' for Inactive)
REMARK    1  A    between atoms: C_1  and  P_2
REMARK    2  A    between atoms: C_1  and  P_8
REMARK    3  A    between atoms: C_1  and  O_14
REMARK    4  A    between atoms: C_1  and  C_16
REMARK    5  A    between atoms: P_2  and  O_4
REMARK    6  A    between atoms: P_2  and  O_6
REMARK    7  A    between atoms: P_8  and  O_10
REMARK    8  A    between atoms: P_8  and  O_12
REMARK    9  A    between atoms: C_16  and  C_17
REMARK   10  A    between atoms: C_17  and  N_18
REMARK   11  A    between atoms: N_18  and  C_21
REMARK   12  A    between atoms: C_21  and  C_22
REMARK   13  A    between atoms: C_22  and  C_23
REMARK   14  A    between atoms: C_23  and  C_24
REMARK                            x       y       z     vdW  Elec       q    Type
REMARK                         _______ _______ _______ _____ _____    ______ ____
ROOT
ATOM      1  C   UNL     1     -35.891  25.797   4.478  0.00  0.00    +0.273 C 
ENDROOT
BRANCH   1   2
ATOM      2  P   UNL     1     -34.541  26.865   3.838  0.00  0.00    +0.372 P 
ATOM      3  O   UNL     1     -33.762  26.277   2.700  0.00  0.00    -0.255 OA
BRANCH   2   4
ATOM      4  O   UNL     1     -33.674  27.241   5.150  0.00  0.00    -0.322 OA
ATOM      5  H   UNL     1     -33.548  26.447   5.692  0.00  0.00    +0.220 HD
ENDBRANCH   2   4
BRANCH   2   6
ATOM      6  O   UNL     1     -35.301  28.249   3.487  0.00  0.00    -0.322 OA
ATOM      7  H   UNL     1     -34.654  28.904   3.180  0.00  0.00    +0.220 HD
ENDBRANCH   2   6
ENDBRANCH   1   2
BRANCH   1   8
ATOM      8  P   UNL     1     -37.227  25.275   3.335  0.00  0.00    +0.372 P 
ATOM      9  O   UNL     1     -38.095  24.177   3.874  0.00  0.00    -0.255 OA
BRANCH   8  10
ATOM     10  O   UNL     1     -36.470  24.933   1.949  0.00  0.00    -0.322 OA
ATOM     11  H   UNL     1     -35.762  25.579   1.799  0.00  0.00    +0.220 HD
ENDBRANCH   8  10
BRANCH   8  12
ATOM     12  O   UNL     1     -38.012  26.651   3.017  0.00  0.00    -0.322 OA
ATOM     13  H   UNL     1     -38.208  26.698   2.068  0.00  0.00    +0.220 HD
ENDBRANCH   8  12
ENDBRANCH   1   8
BRANCH   1  14
ATOM     14  O   UNL     1     -36.609  26.685   5.346  0.00  0.00    -0.367 OA
ATOM     15  H   UNL     1     -37.157  27.284   4.816  0.00  0.00    +0.212 HD
ENDBRANCH   1  14
BRANCH   1  16
ATOM     16  C   UNL     1     -35.352  24.659   5.371  0.00  0.00    +0.028 C 
BRANCH  16  17
ATOM     17  C   UNL     1     -34.870  23.424   4.617  0.00  0.00    -0.074 C 
BRANCH  17  18
ATOM     18  N   UNL     1     -35.743  22.289   4.907  0.00  0.00    +0.386 N 
ATOM     19  C   UNL     1     -35.645  21.914   6.317  0.00  0.00    -0.101 C 
ATOM     20  H   UNL     1     -36.705  22.566   4.711  0.00  0.00    -0.080 HD
BRANCH  18  21
ATOM     21  C   UNL     1     -35.405  21.150   4.052  0.00  0.00    -0.077 C 
BRANCH  21  22
ATOM     22  C   UNL     1     -35.967  21.356   2.647  0.00  0.00    -0.023 C 
BRANCH  22  23
ATOM     23  C   UNL     1     -34.882  21.173   1.584  0.00  0.00    -0.002 C 
BRANCH  23  24
ATOM     24  C   UNL     1     -34.383  19.729   1.540  0.00  0.00    -0.000 C 
ATOM     25  C   UNL     1     -33.029  19.627   0.855  0.00  0.00    -0.000 C 
ENDBRANCH  23  24
ENDBRANCH  22  23
ENDBRANCH  21  22
ENDBRANCH  18  21
ENDBRANCH  17  18
ENDBRANCH  16  17
ENDBRANCH   1  16
TORSDOF 14
ENDMDL
MODEL 2
REMARK VINA RESULT:      -4.9      0.319      1.557
REMARK  Name = 60852
REMARK  14 active torsions:
REMARK  status: ('A' for Active; 'I' for Inactive)
REMARK    1  A    between atoms: C_1  and  P_2
REMARK    2  A    between atoms: C_1  and  P_8
REMARK    3  A    between atoms: C_1  and  O_14
REMARK    4  A    between atoms: C_1  and  C_16
REMARK    5  A    between atoms: P_2  and  O_4
REMARK    6  A    between atoms: P_2  and  O_6
REMARK    7  A    between atoms: P_8  and  O_10
REMARK    8  A    between atoms: P_8  and  O_12
REMARK    9  A    between atoms: C_16  and  C_17
REMARK   10  A    between atoms: C_17  and  N_18
REMARK   11  A    between atoms: N_18  and  C_21
REMARK   12  A    between atoms: C_21  and  C_22
REMARK   13  A    between atoms: C_22  and  C_23
REMARK   14  A    between atoms: C_23  and  C_24
REMARK                            x       y       z     vdW  Elec       q    Type
REMARK                         _______ _______ _______ _____ _____    ______ ____
ROOT
ATOM      1  C   UNL     1     -35.861  25.775   4.450  0.00  0.00    +0.273 C 
ENDROOT
BRANCH   1   2
ATOM      2  P   UNL     1     -34.440  26.775   3.855  0.00  0.00    +0.372 P 
ATOM      3  O   UNL     1     -34.732  28.233   3.673  0.00  0.00    -0.255 OA
BRANCH   2   4
ATOM      4  O   UNL     1     -33.934  25.998   2.529  0.00  0.00    -0.322 OA
ATOM      5  H   UNL     1     -33.015  25.716   2.651  0.00  0.00    +0.220 HD
ENDBRANCH   2   4
BRANCH   2   6
ATOM      6  O   UNL     1     -33.282  26.451   4.938  0.00  0.00    -0.322 OA
ATOM      7  H   UNL     1     -33.689  26.133   5.760  0.00  0.00    +0.220 HD
ENDBRANCH   2   6
ENDBRANCH   1   2
BRANCH   1   8
ATOM      8  P   UNL     1     -37.188  25.327   3.267  0.00  0.00    +0.372 P 
ATOM      9  O   UNL     1     -36.698  25.063   1.874  0.00  0.00    -0.255 OA
BRANCH   8  10
ATOM     10  O   UNL     1     -38.272  26.518   3.397  0.00  0.00    -0.322 OA
ATOM     11  H   UNL     1     -39.156  26.138   3.517  0.00  0.00    +0.220 HD
ENDBRANCH   8  10
BRANCH   8  12
ATOM     12  O   UNL     1     -37.913  24.066   3.970  0.00  0.00    -0.322 OA
ATOM     13  H   UNL     1     -37.850  24.154   4.934  0.00  0.00    +0.220 HD
ENDBRANCH   8  12
ENDBRANCH   1   8
BRANCH   1  14
ATOM     14  O   UNL     1     -36.557  26.695   5.303  0.00  0.00    -0.367 OA
ATOM     15  H   UNL     1     -36.674  27.540   4.840  0.00  0.00    +0.212 HD
ENDBRANCH   1  14
BRANCH   1  16
ATOM     16  C   UNL     1     -35.408  24.607   5.353  0.00  0.00    +0.028 C 
BRANCH  16  17
ATOM     17  C   UNL     1     -34.840  23.402   4.608  0.00  0.00    -0.074 C 
BRANCH  17  18
ATOM     18  N   UNL     1     -35.662  22.223   4.868  0.00  0.00    +0.386 N 
ATOM     19  C   UNL     1     -35.510  21.788   6.256  0.00  0.00    -0.101 C 
ATOM     20  H   UNL     1     -36.639  22.471   4.711  0.00  0.00    -0.080 HD
BRANCH  18  21
ATOM     21  C   UNL     1     -35.306  21.139   3.952  0.00  0.00    -0.077 C 
BRANCH  21  22
ATOM     22  C   UNL     1     -35.851  21.424   2.554  0.00  0.00    -0.023 C 
BRANCH  22  23
ATOM     23  C   UNL     1     -34.798  21.141   1.481  0.00  0.00    -0.002 C 
BRANCH  23  24
ATOM     24  C   UNL     1     -34.481  19.649   1.391  0.00  0.00    -0.000 C 
ATOM     25  C   UNL     1     -33.035  19.409   0.986  0.00  0.00    -0.000 C 
ENDBRANCH  23  24
ENDBRANCH  22  23
ENDBRANCH  21  22
ENDBRANCH  18  21
ENDBRANCH  17  18
ENDBRANCH  16  17
ENDBRANCH   1  16
TORSDOF 14
ENDMDL
MODEL 3
REMARK VINA RESULT:      -4.9      3.795      6.032
REMARK  Name = 60852
REMARK  14 active torsions:
REMARK  status: ('A' for Active; 'I' for Inactive)
REMARK    1  A    between atoms: C_1  and  P_2
REMARK    2  A    between atoms: C_1  and  P_8
REMARK    3  A    between atoms: C_1  and  O_14
REMARK    4  A    between atoms: C_1  and  C_16
REMARK    5  A    between atoms: P_2  and  O_4
REMARK    6  A    between atoms: P_2  and  O_6
REMARK    7  A    between atoms: P_8  and  O_10
REMARK    8  A    between atoms: P_8  and  O_12
REMARK    9  A    between atoms: C_16  and  C_17
REMARK   10  A    between atoms: C_17  and  N_18
REMARK   11  A    between atoms: N_18  and  C_21
REMARK   12  A    between atoms: C_21  and  C_22
REMARK   13  A    between atoms: C_22  and  C_23
REMARK   14  A    between atoms: C_23  and  C_24
REMARK                            x       y       z     vdW  Elec       q    Type
REMARK                         _______ _______ _______ _____ _____    ______ ____
ROOT
ATOM      1  C   UNL     1     -36.696  22.294   2.409  0.00  0.00    +0.273 C 
ENDROOT
BRANCH   1   2
ATOM      2  P   UNL     1     -38.312  22.249   1.540  0.00  0.00    +0.372 P 
ATOM      3  O   UNL     1     -38.960  23.587   1.351  0.00  0.00    -0.255 OA
BRANCH   2   4
ATOM      4  O   UNL     1     -39.182  21.169   2.373  0.00  0.00    -0.322 OA
ATOM      5  H   UNL     1     -39.083  21.338   3.322  0.00  0.00    +0.220 HD
ENDBRANCH   2   4
BRANCH   2   6
ATOM      6  O   UNL     1     -37.970  21.467   0.165  0.00  0.00    -0.322 OA
ATOM      7  H   UNL     1     -37.462  22.052  -0.420  0.00  0.00    +0.220 HD
ENDBRANCH   2   6
ENDBRANCH   1   2
BRANCH   1   8
ATOM      8  P   UNL     1     -35.720  20.748   2.551  0.00  0.00    +0.372 P 
ATOM      9  O   UNL     1     -34.545  20.682   1.622  0.00  0.00    -0.255 OA
BRANCH   8  10
ATOM     10  O   UNL     1     -36.804  19.562   2.370  0.00  0.00    -0.322 OA
ATOM     11  H   UNL     1     -37.552  19.715   2.967  0.00  0.00    +0.220 HD
ENDBRANCH   8  10
BRANCH   8  12
ATOM     12  O   UNL     1     -35.336  20.684   4.119  0.00  0.00    -0.322 OA
ATOM     13  H   UNL     1     -36.097  20.969   4.649  0.00  0.00    +0.220 HD
ENDBRANCH   8  12
ENDBRANCH   1   8
BRANCH   1  14
ATOM     14  O   UNL     1     -37.080  22.498   3.777  0.00  0.00    -0.367 OA
ATOM     15  H   UNL     1     -38.018  22.739   3.817  0.00  0.00    +0.212 HD
ENDBRANCH   1  14
BRANCH   1  16
ATOM     16  C   UNL     1     -35.858  23.527   2.007  0.00  0.00    +0.028 C 
BRANCH  16  17
ATOM     17  C   UNL     1     -35.333  24.356   3.175  0.00  0.00    -0.074 C 
BRANCH  17  18
ATOM     18  N   UNL     1     -36.351  25.311   3.606  0.00  0.00    +0.386 N 
ATOM     19  C   UNL     1     -36.353  26.486   2.736  0.00  0.00    -0.101 C 
ATOM     20  H   UNL     1     -37.264  24.859   3.542  0.00  0.00    -0.080 HD
BRANCH  18  21
ATOM     21  C   UNL     1     -36.127  25.707   4.997  0.00  0.00    -0.077 C 
BRANCH  21  22
ATOM     22  C   UNL     1     -34.781  25.178   5.489  0.00  0.00    -0.023 C 
BRANCH  22  23
ATOM     23  C   UNL     1     -33.877  26.319   5.962  0.00  0.00    -0.002 C 
BRANCH  23  24
ATOM     24  C   UNL     1     -33.243  27.053   4.781  0.00  0.00    -0.000 C 
ATOM     25  C   UNL     1     -32.257  28.112   5.247  0.00  0.00    -0.000 C 
ENDBRANCH  23  24
ENDBRANCH  22  23
ENDBRANCH  21  22
ENDBRANCH  18  21
ENDBRANCH  17  18
ENDBRANCH  16  17
ENDBRANCH   1  16
TORSDOF 14
ENDMDL
MODEL 4
REMARK VINA RESULT:      -4.8      4.465      6.323
REMARK  Name = 60852
REMARK  14 active torsions:
REMARK  status: ('A' for Active; 'I' for Inactive)
REMARK    1  A    between atoms: C_1  and  P_2
REMARK    2  A    between atoms: C_1  and  P_8
REMARK    3  A    between atoms: C_1  and  O_14
REMARK    4  A    between atoms: C_1  and  C_16
REMARK    5  A    between atoms: P_2  and  O_4
REMARK    6  A    between atoms: P_2  and  O_6
REMARK    7  A    between atoms: P_8  and  O_10
REMARK    8  A    between atoms: P_8  and  O_12
REMARK    9  A    between atoms: C_16  and  C_17
REMARK   10  A    between atoms: C_17  and  N_18
REMARK   11  A    between atoms: N_18  and  C_21
REMARK   12  A    between atoms: C_21  and  C_22
REMARK   13  A    between atoms: C_22  and  C_23
REMARK   14  A    between atoms: C_23  and  C_24
REMARK                            x       y       z     vdW  Elec       q    Type
REMARK                         _______ _______ _______ _____ _____    ______ ____
ROOT
ATOM      1  C   UNL     1     -36.506  20.674   1.618  0.00  0.00    +0.273 C 
ENDROOT
BRANCH   1   2
ATOM      2  P   UNL     1     -38.179  21.067   0.970  0.00  0.00    +0.372 P 
ATOM      3  O   UNL     1     -38.242  22.282   0.095  0.00  0.00    -0.255 OA
BRANCH   2   4
ATOM      4  O   UNL     1     -39.116  21.111   2.288  0.00  0.00    -0.322 OA
ATOM      5  H   UNL     1     -38.670  21.619   2.983  0.00  0.00    +0.220 HD
ENDBRANCH   2   4
BRANCH   2   6
ATOM      6  O   UNL     1     -38.625  19.692   0.244  0.00  0.00    -0.322 OA
ATOM      7  H   UNL     1     -39.588  19.688   0.125  0.00  0.00    +0.220 HD
ENDBRANCH   2   6
ENDBRANCH   1   2
BRANCH   1   8
ATOM      8  P   UNL     1     -35.398  19.604   0.623  0.00  0.00    +0.372 P 
ATOM      9  O   UNL     1     -34.929  20.235  -0.655  0.00  0.00    -0.255 OA
BRANCH   8  10
ATOM     10  O   UNL     1     -36.214  18.221   0.445  0.00  0.00    -0.322 OA
ATOM     11  H   UNL     1     -36.806  18.095   1.203  0.00  0.00    +0.220 HD
ENDBRANCH   8  10
BRANCH   8  12
ATOM     12  O   UNL     1     -34.213  19.223   1.653  0.00  0.00    -0.322 OA
ATOM     13  H   UNL     1     -33.433  18.933   1.155  0.00  0.00    +0.220 HD
ENDBRANCH   8  12
ENDBRANCH   1   8
BRANCH   1  14
ATOM     14  O   UNL     1     -36.793  19.809   2.726  0.00  0.00    -0.367 OA
ATOM     15  H   UNL     1     -36.161  19.074   2.735  0.00  0.00    +0.212 HD
ENDBRANCH   1  14
BRANCH   1  16
ATOM     16  C   UNL     1     -35.809  21.918   2.209  0.00  0.00    +0.028 C 
BRANCH  16  17
ATOM     17  C   UNL     1     -35.523  21.843   3.706  0.00  0.00    -0.074 C 
BRANCH  17  18
ATOM     18  N   UNL     1     -36.438  22.720   4.433  0.00  0.00    +0.386 N 
ATOM     19  C   UNL     1     -37.034  23.702   3.527  0.00  0.00    -0.101 C 
ATOM     20  H   UNL     1     -37.184  22.149   4.829  0.00  0.00    -0.080 HD
BRANCH  18  21
ATOM     21  C   UNL     1     -35.739  23.396   5.527  0.00  0.00    -0.077 C 
BRANCH  21  22
ATOM     22  C   UNL     1     -35.769  24.909   5.322  0.00  0.00    -0.023 C 
BRANCH  22  23
ATOM     23  C   UNL     1     -34.461  25.556   5.785  0.00  0.00    -0.002 C 
BRANCH  23  24
ATOM     24  C   UNL     1     -33.790  26.327   4.649  0.00  0.00    -0.000 C 
ATOM     25  C   UNL     1     -33.806  25.535   3.351  0.00  0.00    -0.000 C 
ENDBRANCH  23  24
ENDBRANCH  22  23
ENDBRANCH  21  22
ENDBRANCH  18  21
ENDBRANCH  17  18
ENDBRANCH  16  17
ENDBRANCH   1  16
TORSDOF 14
ENDMDL
MODEL 5
REMARK VINA RESULT:      -4.8      1.769      2.614
REMARK  Name = 60852
REMARK  14 active torsions:
REMARK  status: ('A' for Active; 'I' for Inactive)
REMARK    1  A    between atoms: C_1  and  P_2
REMARK    2  A    between atoms: C_1  and  P_8
REMARK    3  A    between atoms: C_1  and  O_14
REMARK    4  A    between atoms: C_1  and  C_16
REMARK    5  A    between atoms: P_2  and  O_4
REMARK    6  A    between atoms: P_2  and  O_6
REMARK    7  A    between atoms: P_8  and  O_10
REMARK    8  A    between atoms: P_8  and  O_12
REMARK    9  A    between atoms: C_16  and  C_17
REMARK   10  A    between atoms: C_17  and  N_18
REMARK   11  A    between atoms: N_18  and  C_21
REMARK   12  A    between atoms: C_21  and  C_22
REMARK   13  A    between atoms: C_22  and  C_23
REMARK   14  A    between atoms: C_23  and  C_24
REMARK                            x       y       z     vdW  Elec       q    Type
REMARK                         _______ _______ _______ _____ _____    ______ ____
ROOT
ATOM      1  C   UNL     1     -36.246  24.739   3.727  0.00  0.00    +0.273 C 
ENDROOT
BRANCH   1   2
ATOM      2  P   UNL     1     -35.470  25.943   4.877  0.00  0.00    +0.372 P 
ATOM      3  O   UNL     1     -34.395  25.370   5.751  0.00  0.00    -0.255 OA
BRANCH   2   4
ATOM      4  O   UNL     1     -36.719  26.608   5.659  0.00  0.00    -0.322 OA
ATOM      5  H   UNL     1     -36.542  26.605   6.612  0.00  0.00    +0.220 HD
ENDBRANCH   2   4
BRANCH   2   6
ATOM      6  O   UNL     1     -34.975  27.127   3.892  0.00  0.00    -0.322 OA
ATOM      7  H   UNL     1     -34.045  26.981   3.653  0.00  0.00    +0.220 HD
ENDBRANCH   2   6
ENDBRANCH   1   2
BRANCH   1   8
ATOM      8  P   UNL     1     -37.812  25.195   2.890  0.00  0.00    +0.372 P 
ATOM      9  O   UNL     1     -38.079  24.421   1.633  0.00  0.00    -0.255 OA
BRANCH   8  10
ATOM     10  O   UNL     1     -37.724  26.798   2.701  0.00  0.00    -0.322 OA
ATOM     11  H   UNL     1     -36.858  27.112   3.003  0.00  0.00    +0.220 HD
ENDBRANCH   8  10
BRANCH   8  12
ATOM     12  O   UNL     1     -38.928  25.003   4.042  0.00  0.00    -0.322 OA
ATOM     13  H   UNL     1     -39.173  24.066   4.100  0.00  0.00    +0.220 HD
ENDBRANCH   8  12
ENDBRANCH   1   8
BRANCH   1  14
ATOM     14  O   UNL     1     -36.703  23.708   4.613  0.00  0.00    -0.367 OA
ATOM     15  H   UNL     1     -37.456  24.035   5.129  0.00  0.00    +0.212 HD
ENDBRANCH   1  14
BRANCH   1  16
ATOM     16  C   UNL     1     -35.207  24.080   2.794  0.00  0.00    +0.028 C 
BRANCH  16  17
ATOM     17  C   UNL     1     -35.262  22.556   2.747  0.00  0.00    -0.074 C 
BRANCH  17  18
ATOM     18  N   UNL     1     -35.956  22.118   1.539  0.00  0.00    +0.386 N 
ATOM     19  C   UNL     1     -36.753  20.922   1.811  0.00  0.00    -0.101 C 
ATOM     20  H   UNL     1     -36.583  22.865   1.241  0.00  0.00    -0.080 HD
BRANCH  18  21
ATOM     21  C   UNL     1     -34.998  21.859   0.463  0.00  0.00    -0.077 C 
BRANCH  21  22
ATOM     22  C   UNL     1     -34.710  20.363   0.359  0.00  0.00    -0.023 C 
BRANCH  22  23
ATOM     23  C   UNL     1     -33.259  20.051   0.735  0.00  0.00    -0.002 C 
BRANCH  23  24
ATOM     24  C   UNL     1     -33.148  18.712   1.464  0.00  0.00    -0.000 C 
ATOM     25  C   UNL     1     -31.834  18.014   1.151  0.00  0.00    -0.000 C 
ENDBRANCH  23  24
ENDBRANCH  22  23
ENDBRANCH  21  22
ENDBRANCH  18  21
ENDBRANCH  17  18
ENDBRANCH  16  17
ENDBRANCH   1  16
TORSDOF 14
ENDMDL
MODEL 6
REMARK VINA RESULT:      -4.7      1.236      1.727
REMARK  Name = 60852
REMARK  14 active torsions:
REMARK  status: ('A' for Active; 'I' for Inactive)
REMARK    1  A    between atoms: C_1  and  P_2
REMARK    2  A    between atoms: C_1  and  P_8
REMARK    3  A    between atoms: C_1  and  O_14
REMARK    4  A    between atoms: C_1  and  C_16
REMARK    5  A    between atoms: P_2  and  O_4
REMARK    6  A    between atoms: P_2  and  O_6
REMARK    7  A    between atoms: P_8  and  O_10
REMARK    8  A    between atoms: P_8  and  O_12
REMARK    9  A    between atoms: C_16  and  C_17
REMARK   10  A    between atoms: C_17  and  N_18
REMARK   11  A    between atoms: N_18  and  C_21
REMARK   12  A    between atoms: C_21  and  C_22
REMARK   13  A    between atoms: C_22  and  C_23
REMARK   14  A    between atoms: C_23  and  C_24
REMARK                            x       y       z     vdW  Elec       q    Type
REMARK                         _______ _______ _______ _____ _____    ______ ____
ROOT
ATOM      1  C   UNL     1     -36.652  25.797   3.226  0.00  0.00    +0.273 C 
ENDROOT
BRANCH   1   2
ATOM      2  P   UNL     1     -35.745  27.195   2.454  0.00  0.00    +0.372 P 
ATOM      3  O   UNL     1     -34.666  26.790   1.496  0.00  0.00    -0.255 OA
BRANCH   2   4
ATOM      4  O   UNL     1     -35.257  28.093   3.708  0.00  0.00    -0.322 OA
ATOM      5  H   UNL     1     -34.484  27.678   4.121  0.00  0.00    +0.220 HD
ENDBRANCH   2   4
BRANCH   2   6
ATOM      6  O   UNL     1     -36.926  28.085   1.799  0.00  0.00    -0.322 OA
ATOM      7  H   UNL     1     -37.398  27.556   1.136  0.00  0.00    +0.220 HD
ENDBRANCH   2   6
ENDBRANCH   1   2
BRANCH   1   8
ATOM      8  P   UNL     1     -38.345  25.407   2.639  0.00  0.00    +0.372 P 
ATOM      9  O   UNL     1     -39.264  26.592   2.598  0.00  0.00    -0.255 OA
BRANCH   8  10
ATOM     10  O   UNL     1     -38.836  24.191   3.583  0.00  0.00    -0.322 OA
ATOM     11  H   UNL     1     -38.236  23.436   3.476  0.00  0.00    +0.220 HD
ENDBRANCH   8  10
BRANCH   8  12
ATOM     12  O   UNL     1     -38.096  24.705   1.205  0.00  0.00    -0.322 OA
ATOM     13  H   UNL     1     -38.950  24.470   0.809  0.00  0.00    +0.220 HD
ENDBRANCH   8  12
ENDBRANCH   1   8
BRANCH   1  14
ATOM     14  O   UNL     1     -36.930  26.292   4.544  0.00  0.00    -0.367 OA
ATOM     15  H   UNL     1     -37.125  27.241   4.499  0.00  0.00    +0.212 HD
ENDBRANCH   1  14
BRANCH   1  16
ATOM     16  C   UNL     1     -35.752  24.556   3.410  0.00  0.00    +0.028 C 
BRANCH  16  17
ATOM     17  C   UNL     1     -35.824  23.910   4.790  0.00  0.00    -0.074 C 
BRANCH  17  18
ATOM     18  N   UNL     1     -36.194  22.503   4.664  0.00  0.00    +0.386 N 
ATOM     19  C   UNL     1     -35.329  21.669   5.498  0.00  0.00    -0.101 C 
ATOM     20  H   UNL     1     -37.156  22.394   4.985  0.00  0.00    -0.080 HD
BRANCH  18  21
ATOM     21  C   UNL     1     -36.120  22.077   3.266  0.00  0.00    -0.077 C 
BRANCH  21  22
ATOM     22  C   UNL     1     -35.218  20.852   3.132  0.00  0.00    -0.023 C 
BRANCH  22  23
ATOM     23  C   UNL     1     -35.013  20.473   1.664  0.00  0.00    -0.002 C 
BRANCH  23  24
ATOM     24  C   UNL     1     -33.982  19.354   1.516  0.00  0.00    -0.000 C 
ATOM     25  C   UNL     1     -32.784  19.804   0.695  0.00  0.00    -0.000 C 
ENDBRANCH  23  24
ENDBRANCH  22  23
ENDBRANCH  21  22
ENDBRANCH  18  21
ENDBRANCH  17  18
ENDBRANCH  16  17
ENDBRANCH   1  16
TORSDOF 14
ENDMDL
MODEL 7
REMARK VINA RESULT:      -4.7      3.712      6.173
REMARK  Name = 60852
REMARK  14 active torsions:
REMARK  status: ('A' for Active; 'I' for Inactive)
REMARK    1  A    between atoms: C_1  and  P_2
REMARK    2  A    between atoms: C_1  and  P_8
REMARK    3  A    between atoms: C_1  and  O_14
REMARK    4  A    between atoms: C_1  and  C_16
REMARK    5  A    between atoms: P_2  and  O_4
REMARK    6  A    between atoms: P_2  and  O_6
REMARK    7  A    between atoms: P_8  and  O_10
REMARK    8  A    between atoms: P_8  and  O_12
REMARK    9  A    between atoms: C_16  and  C_17
REMARK   10  A    between atoms: C_17  and  N_18
REMARK   11  A    between atoms: N_18  and  C_21
REMARK   12  A    between atoms: C_21  and  C_22
REMARK   13  A    between atoms: C_22  and  C_23
REMARK   14  A    between atoms: C_23  and  C_24
REMARK                            x       y       z     vdW  Elec       q    Type
REMARK                         _______ _______ _______ _____ _____    ______ ____
ROOT
ATOM      1  C   UNL     1     -35.922  23.813   4.083  0.00  0.00    +0.273 C 
ENDROOT
BRANCH   1   2
ATOM      2  P   UNL     1     -37.271  24.994   3.685  0.00  0.00    +0.372 P 
ATOM      3  O   UNL     1     -38.638  24.383   3.616  0.00  0.00    -0.255 OA
BRANCH   2   4
ATOM      4  O   UNL     1     -36.771  25.728   2.333  0.00  0.00    -0.322 OA
ATOM      5  H   UNL     1     -37.503  26.239   1.953  0.00  0.00    +0.220 HD
ENDBRANCH   2   4
BRANCH   2   6
ATOM      6  O   UNL     1     -37.104  26.140   4.814  0.00  0.00    -0.322 OA
ATOM      7  H   UNL     1     -36.242  26.040   5.250  0.00  0.00    +0.220 HD
ENDBRANCH   2   6
ENDBRANCH   1   2
BRANCH   1   8
ATOM      8  P   UNL     1     -35.884  22.190   3.233  0.00  0.00    +0.372 P 
ATOM      9  O   UNL     1     -34.948  22.137   2.062  0.00  0.00    -0.255 OA
BRANCH   8  10
ATOM     10  O   UNL     1     -37.430  21.870   2.889  0.00  0.00    -0.322 OA
ATOM     11  H   UNL     1     -37.992  22.170   3.621  0.00  0.00    +0.220 HD
ENDBRANCH   8  10
BRANCH   8  12
ATOM     12  O   UNL     1     -35.530  21.149   4.418  0.00  0.00    -0.322 OA
ATOM     13  H   UNL     1     -34.754  20.624   4.164  0.00  0.00    +0.220 HD
ENDBRANCH   8  12
ENDBRANCH   1   8
BRANCH   1  14
ATOM     14  O   UNL     1     -36.242  23.410   5.422  0.00  0.00    -0.367 OA
ATOM     15  H   UNL     1     -37.166  23.635   5.615  0.00  0.00    +0.212 HD
ENDBRANCH   1  14
BRANCH   1  16
ATOM     16  C   UNL     1     -34.547  24.512   4.159  0.00  0.00    +0.028 C 
BRANCH  16  17
ATOM     17  C   UNL     1     -34.186  25.074   5.530  0.00  0.00    -0.074 C 
BRANCH  17  18
ATOM     18  N   UNL     1     -34.043  26.525   5.453  0.00  0.00    +0.386 N 
ATOM     19  C   UNL     1     -33.750  26.939   4.082  0.00  0.00    -0.101 C 
ATOM     20  H   UNL     1     -34.925  26.951   5.739  0.00  0.00    -0.080 HD
BRANCH  18  21
ATOM     21  C   UNL     1     -32.991  26.985   6.361  0.00  0.00    -0.077 C 
BRANCH  21  22
ATOM     22  C   UNL     1     -32.154  28.074   5.693  0.00  0.00    -0.023 C 
BRANCH  22  23
ATOM     23  C   UNL     1     -31.752  29.157   6.697  0.00  0.00    -0.002 C 
BRANCH  23  24
ATOM     24  C   UNL     1     -30.480  29.880   6.257  0.00  0.00    -0.000 C 
ATOM     25  C   UNL     1     -29.259  29.365   7.002  0.00  0.00    -0.000 C 
ENDBRANCH  23  24
ENDBRANCH  22  23
ENDBRANCH  21  22
ENDBRANCH  18  21
ENDBRANCH  17  18
ENDBRANCH  16  17
ENDBRANCH   1  16
TORSDOF 14
ENDMDL
MODEL 8
REMARK VINA RESULT:      -4.7      3.263      4.781
REMARK  Name = 60852
REMARK  14 active torsions:
REMARK  status: ('A' for Active; 'I' for Inactive)
REMARK    1  A    between atoms: C_1  and  P_2
REMARK    2  A    between atoms: C_1  and  P_8
REMARK    3  A    between atoms: C_1  and  O_14
REMARK    4  A    between atoms: C_1  and  C_16
REMARK    5  A    between atoms: P_2  and  O_4
REMARK    6  A    between atoms: P_2  and  O_6
REMARK    7  A    between atoms: P_8  and  O_10
REMARK    8  A    between atoms: P_8  and  O_12
REMARK    9  A    between atoms: C_16  and  C_17
REMARK   10  A    between atoms: C_17  and  N_18
REMARK   11  A    between atoms: N_18  and  C_21
REMARK   12  A    between atoms: C_21  and  C_22
REMARK   13  A    between atoms: C_22  and  C_23
REMARK   14  A    between atoms: C_23  and  C_24
REMARK                            x       y       z     vdW  Elec       q    Type
REMARK                         _______ _______ _______ _____ _____    ______ ____
ROOT
ATOM      1  C   UNL     1     -38.162  23.752   2.309  0.00  0.00    +0.273 C 
ENDROOT
BRANCH   1   2
ATOM      2  P   UNL     1     -39.284  25.179   2.593  0.00  0.00    +0.372 P 
ATOM      3  O   UNL     1     -38.652  26.523   2.389  0.00  0.00    -0.255 OA
BRANCH   2   4
ATOM      4  O   UNL     1     -39.896  24.916   4.067  0.00  0.00    -0.322 OA
ATOM      5  H   UNL     1     -39.500  25.537   4.696  0.00  0.00    +0.220 HD
ENDBRANCH   2   4
BRANCH   2   6
ATOM      6  O   UNL     1     -40.531  24.867   1.611  0.00  0.00    -0.322 OA
ATOM      7  H   UNL     1     -40.379  24.025   1.153  0.00  0.00    +0.220 HD
ENDBRANCH   2   6
ENDBRANCH   1   2
BRANCH   1   8
ATOM      8  P   UNL     1     -38.881  22.146   1.795  0.00  0.00    +0.372 P 
ATOM      9  O   UNL     1     -40.337  21.997   2.126  0.00  0.00    -0.255 OA
BRANCH   8  10
ATOM     10  O   UNL     1     -37.911  21.033   2.453  0.00  0.00    -0.322 OA
ATOM     11  H   UNL     1     -38.427  20.240   2.664  0.00  0.00    +0.220 HD
ENDBRANCH   8  10
BRANCH   8  12
ATOM     12  O   UNL     1     -38.544  22.067   0.217  0.00  0.00    -0.322 OA
ATOM     13  H   UNL     1     -38.088  21.232   0.026  0.00  0.00    +0.220 HD
ENDBRANCH   8  12
ENDBRANCH   1   8
BRANCH   1  14
ATOM     14  O   UNL     1     -37.714  23.437   3.635  0.00  0.00    -0.367 OA
ATOM     15  H   UNL     1     -37.465  22.500   3.678  0.00  0.00    +0.212 HD
ENDBRANCH   1  14
BRANCH   1  16
ATOM     16  C   UNL     1     -36.903  24.157   1.512  0.00  0.00    +0.028 C 
BRANCH  16  17
ATOM     17  C   UNL     1     -35.626  24.264   2.339  0.00  0.00    -0.074 C 
BRANCH  17  18
ATOM     18  N   UNL     1     -35.571  25.562   3.007  0.00  0.00    +0.386 N 
ATOM     19  C   UNL     1     -35.169  26.607   2.065  0.00  0.00    -0.101 C 
ATOM     20  H   UNL     1     -36.503  25.783   3.358  0.00  0.00    -0.080 HD
BRANCH  18  21
ATOM     21  C   UNL     1     -34.648  25.517   4.142  0.00  0.00    -0.077 C 
BRANCH  21  22
ATOM     22  C   UNL     1     -34.453  24.076   4.610  0.00  0.00    -0.023 C 
BRANCH  22  23
ATOM     23  C   UNL     1     -35.212  23.809   5.912  0.00  0.00    -0.002 C 
BRANCH  23  24
ATOM     24  C   UNL     1     -35.203  22.323   6.267  0.00  0.00    -0.000 C 
ATOM     25  C   UNL     1     -35.141  21.453   5.022  0.00  0.00    -0.000 C 
ENDBRANCH  23  24
ENDBRANCH  22  23
ENDBRANCH  21  22
ENDBRANCH  18  21
ENDBRANCH  17  18
ENDBRANCH  16  17
ENDBRANCH   1  16
TORSDOF 14
ENDMDL
MODEL 9
REMARK VINA RESULT:      -4.7      1.776      2.537
REMARK  Name = 60852
REMARK  14 active torsions:
REMARK  status: ('A' for Active; 'I' for Inactive)
REMARK    1  A    between atoms: C_1  and  P_2
REMARK    2  A    between atoms: C_1  and  P_8
REMARK    3  A    between atoms: C_1  and  O_14
REMARK    4  A    between atoms: C_1  and  C_16
REMARK    5  A    between atoms: P_2  and  O_4
REMARK    6  A    between atoms: P_2  and  O_6
REMARK    7  A    between atoms: P_8  and  O_10
REMARK    8  A    between atoms: P_8  and  O_12
REMARK    9  A    between atoms: C_16  and  C_17
REMARK   10  A    between atoms: C_17  and  N_18
REMARK   11  A    between atoms: N_18  and  C_21
REMARK   12  A    between atoms: C_21  and  C_22
REMARK   13  A    between atoms: C_22  and  C_23
REMARK   14  A    between atoms: C_23  and  C_24
REMARK                            x       y       z     vdW  Elec       q    Type
REMARK                         _______ _______ _______ _____ _____    ______ ____
ROOT
ATOM      1  C   UNL     1     -35.320  25.469   3.361  0.00  0.00    +0.273 C 
ENDROOT
BRANCH   1   2
ATOM      2  P   UNL     1     -35.672  27.001   2.411  0.00  0.00    +0.372 P 
ATOM      3  O   UNL     1     -35.068  27.041   1.040  0.00  0.00    -0.255 OA
BRANCH   2   4
ATOM      4  O   UNL     1     -35.221  28.196   3.403  0.00  0.00    -0.322 OA
ATOM      5  H   UNL     1     -35.996  28.531   3.879  0.00  0.00    +0.220 HD
ENDBRANCH   2   4
BRANCH   2   6
ATOM      6  O   UNL     1     -37.287  27.087   2.437  0.00  0.00    -0.322 OA
ATOM      7  H   UNL     1     -37.648  26.624   1.664  0.00  0.00    +0.220 HD
ENDBRANCH   2   6
ENDBRANCH   1   2
BRANCH   1   8
ATOM      8  P   UNL     1     -36.351  25.075   4.824  0.00  0.00    +0.372 P 
ATOM      9  O   UNL     1     -35.807  23.963   5.672  0.00  0.00    -0.255 OA
BRANCH   8  10
ATOM     10  O   UNL     1     -37.831  24.819   4.226  0.00  0.00    -0.322 OA
ATOM     11  H   UNL     1     -37.865  25.126   3.307  0.00  0.00    +0.220 HD
ENDBRANCH   8  10
BRANCH   8  12
ATOM     12  O   UNL     1     -36.484  26.493   5.588  0.00  0.00    -0.322 OA
ATOM     13  H   UNL     1     -35.602  26.803   5.847  0.00  0.00    +0.220 HD
ENDBRANCH   8  12
ENDBRANCH   1   8
BRANCH   1  14
ATOM     14  O   UNL     1     -34.064  25.770   3.988  0.00  0.00    -0.367 OA
ATOM     15  H   UNL     1     -34.048  25.387   4.879  0.00  0.00    +0.212 HD
ENDBRANCH   1  14
BRANCH   1  16
ATOM     16  C   UNL     1     -35.062  24.261   2.434  0.00  0.00    +0.028 C 
BRANCH  16  17
ATOM     17  C   UNL     1     -36.259  23.832   1.591  0.00  0.00    -0.074 C 
BRANCH  17  18
ATOM     18  N   UNL     1     -36.458  22.389   1.705  0.00  0.00    +0.386 N 
ATOM     19  C   UNL     1     -37.848  22.089   2.047  0.00  0.00    -0.101 C 
ATOM     20  H   UNL     1     -36.246  21.963   0.803  0.00  0.00    -0.080 HD
BRANCH  18  21
ATOM     21  C   UNL     1     -35.553  21.825   2.708  0.00  0.00    -0.077 C 
BRANCH  21  22
ATOM     22  C   UNL     1     -35.146  20.406   2.317  0.00  0.00    -0.023 C 
BRANCH  22  23
ATOM     23  C   UNL     1     -34.663  20.348   0.866  0.00  0.00    -0.002 C 
BRANCH  23  24
ATOM     24  C   UNL     1     -33.205  19.896   0.782  0.00  0.00    -0.000 C 
ATOM     25  C   UNL     1     -33.003  18.542   1.443  0.00  0.00    -0.000 C 
ENDBRANCH  23  24
ENDBRANCH  22  23
ENDBRANCH  21  22
ENDBRANCH  18  21
ENDBRANCH  17  18
ENDBRANCH  16  17
ENDBRANCH   1  16
TORSDOF 14
ENDMDL
