MODEL 1
REMARK VINA RESULT:      -6.5      0.000      0.000
REMARK  Name = 195782
REMARK  8 active torsions:
REMARK  status: ('A' for Active; 'I' for Inactive)
REMARK    1  A    between atoms: C_2  and  O_20
REMARK    2  A    between atoms: C_3  and  O_22
REMARK    3  A    between atoms: C_4  and  N_8
REMARK    4  A    between atoms: C_5  and  C_24
REMARK    5  A    between atoms: C_24  and  O_25
REMARK    6  A    between atoms: O_25  and  P_26
REMARK    7  A    between atoms: P_26  and  N_28
REMARK    8  A    between atoms: P_26  and  O_34
REMARK                            x       y       z     vdW  Elec       q    Type
REMARK                         _______ _______ _______ _____ _____    ______ ____
ROOT
ATOM      1  O   UNL     1     -36.136  24.951   4.880  0.00  0.00    -0.331 OA
ATOM      2  C   UNL     1     -36.263  22.959   3.604  0.00  0.00    +0.190 C 
ATOM      3  C   UNL     1     -35.334  22.725   4.777  0.00  0.00    +0.171 C 
ATOM      4  C   UNL     1     -37.030  24.191   4.050  0.00  0.00    +0.239 C 
ATOM      5  C   UNL     1     -34.977  24.145   5.190  0.00  0.00    +0.177 C 
ENDROOT
BRANCH   4   8
ATOM      6  O   UNL     1     -35.353  25.034   1.899  0.00  0.00    -0.246 OA
ATOM      7  O   UNL     1     -38.737  27.374  -0.212  0.00  0.00    -0.266 OA
ATOM      8  N   UNL     1     -37.447  25.007   2.946  0.00  0.00    -0.243 N 
ATOM      9  N   UNL     1     -37.062  26.189   0.874  0.00  0.00    -0.273 N 
ATOM     10  N   UNL     1     -39.775  25.211   3.737  0.00  0.00    -0.302 N 
ATOM     11  N   UNL     1     -40.520  26.484   2.062  0.00  0.00    -0.310 N 
ATOM     12  C   UNL     1     -38.768  25.467   2.846  0.00  0.00    +0.134 A 
ATOM     13  C   UNL     1     -36.538  25.380   1.913  0.00  0.00    +0.333 A 
ATOM     14  C   UNL     1     -39.201  26.248   1.805  0.00  0.00    +0.133 A 
ATOM     15  C   UNL     1     -38.370  26.674   0.727  0.00  0.00    +0.277 A 
ATOM     16  C   UNL     1     -40.819  25.839   3.235  0.00  0.00    +0.183 C 
ATOM     17  H   UNL     1     -36.427  26.442   0.164  0.00  0.00    +0.173 HD
ATOM     18  H   UNL     1     -39.729  24.680   4.564  0.00  0.00    +0.150 HD
ATOM     19  H   UNL     1     -41.139  27.015   1.511  0.00  0.00    +0.149 HD
ENDBRANCH   4   8
BRANCH   2  20
ATOM     20  O   UNL     1     -37.107  21.852   3.359  0.00  0.00    -0.378 OA
ATOM     21  H   UNL     1     -38.033  22.141   3.386  0.00  0.00    +0.211 HD
ENDBRANCH   2  20
BRANCH   3  22
ATOM     22  O   UNL     1     -36.044  22.118   5.856  0.00  0.00    -0.379 OA
ATOM     23  H   UNL     1     -36.665  22.759   6.236  0.00  0.00    +0.211 HD
ENDBRANCH   3  22
BRANCH   5  24
ATOM     24  C   UNL     1     -33.787  24.714   4.426  0.00  0.00    +0.185 C 
BRANCH  24  25
ATOM     25  O   UNL     1     -33.416  25.947   5.018  0.00  0.00    -0.277 OA
BRANCH  25  26
ATOM     26  P   UNL     1     -33.370  27.295   4.130  0.00  0.00    +0.433 P 
ATOM     27  O   UNL     1     -32.588  27.242   2.853  0.00  0.00    -0.236 OA
BRANCH  26  28
ATOM     28  N   UNL     1     -32.576  28.423   5.088  0.00  0.00    -0.190 N 
ATOM     29  N   UNL     1     -31.698  30.383   5.786  0.00  0.00    -0.231 NA
ATOM     30  C   UNL     1     -32.355  29.771   4.825  0.00  0.00    +0.121 C 
ATOM     31  C   UNL     1     -31.992  28.201   6.329  0.00  0.00    +0.097 C 
ATOM     32  C   UNL     1     -31.468  29.409   6.726  0.00  0.00    +0.117 C 
ATOM     33  C   UNL     1     -32.842  30.385   3.574  0.00  0.00    +0.070 C 
ENDBRANCH  26  28
BRANCH  26  34
ATOM     34  O   UNL     1     -34.897  27.807   4.027  0.00  0.00    -0.309 OA
ATOM     35  H   UNL     1     -35.494  27.044   4.050  0.00  0.00    +0.221 HD
ENDBRANCH  26  34
ENDBRANCH  25  26
ENDBRANCH  24  25
ENDBRANCH   5  24
TORSDOF 8
ENDMDL
MODEL 2
REMARK VINA RESULT:      -6.5      4.117      6.904
REMARK  Name = 195782
REMARK  8 active torsions:
REMARK  status: ('A' for Active; 'I' for Inactive)
REMARK    1  A    between atoms: C_2  and  O_20
REMARK    2  A    between atoms: C_3  and  O_22
REMARK    3  A    between atoms: C_4  and  N_8
REMARK    4  A    between atoms: C_5  and  C_24
REMARK    5  A    between atoms: C_24  and  O_25
REMARK    6  A    between atoms: O_25  and  P_26
REMARK    7  A    between atoms: P_26  and  N_28
REMARK    8  A    between atoms: P_26  and  O_34
REMARK                            x       y       z     vdW  Elec       q    Type
REMARK                         _______ _______ _______ _____ _____    ______ ____
ROOT
ATOM      1  O   UNL     1     -37.669  21.655   2.397  0.00  0.00    -0.331 OA
ATOM      2  C   UNL     1     -39.313  23.075   1.453  0.00  0.00    +0.190 C 
ATOM      3  C   UNL     1     -39.450  21.699   0.836  0.00  0.00    +0.171 C 
ATOM      4  C   UNL     1     -38.507  22.781   2.706  0.00  0.00    +0.239 C 
ATOM      5  C   UNL     1     -38.096  21.076   1.144  0.00  0.00    +0.177 C 
ENDROOT
BRANCH   4   8
ATOM      6  O   UNL     1     -38.729  25.444   1.701  0.00  0.00    -0.246 OA
ATOM      7  O   UNL     1     -35.232  27.024   4.281  0.00  0.00    -0.266 OA
ATOM      8  N   UNL     1     -37.678  23.884   3.096  0.00  0.00    -0.243 N 
ATOM      9  N   UNL     1     -36.984  26.198   3.001  0.00  0.00    -0.273 N 
ATOM     10  N   UNL     1     -36.333  22.554   4.679  0.00  0.00    -0.302 N 
ATOM     11  N   UNL     1     -34.991  24.206   5.351  0.00  0.00    -0.310 N 
ATOM     12  C   UNL     1     -36.656  23.721   4.041  0.00  0.00    +0.134 A 
ATOM     13  C   UNL     1     -37.862  25.185   2.540  0.00  0.00    +0.333 A 
ATOM     14  C   UNL     1     -35.844  24.754   4.438  0.00  0.00    +0.133 A 
ATOM     15  C   UNL     1     -35.948  26.087   3.941  0.00  0.00    +0.277 A 
ATOM     16  C   UNL     1     -35.325  22.880   5.463  0.00  0.00    +0.183 C 
ATOM     17  H   UNL     1     -37.117  27.092   2.612  0.00  0.00    +0.173 HD
ATOM     18  H   UNL     1     -36.757  21.672   4.576  0.00  0.00    +0.150 HD
ATOM     19  H   UNL     1     -34.274  24.673   5.837  0.00  0.00    +0.149 HD
ENDBRANCH   4   8
BRANCH   2  20
ATOM     20  O   UNL     1     -40.567  23.661   1.739  0.00  0.00    -0.378 OA
ATOM     21  H   UNL     1     -40.691  24.446   1.183  0.00  0.00    +0.211 HD
ENDBRANCH   2  20
BRANCH   3  22
ATOM     22  O   UNL     1     -40.448  20.945   1.524  0.00  0.00    -0.379 OA
ATOM     23  H   UNL     1     -41.323  21.166   1.167  0.00  0.00    +0.211 HD
ENDBRANCH   3  22
BRANCH   5  24
ATOM     24  C   UNL     1     -37.037  21.386   0.094  0.00  0.00    +0.185 C 
BRANCH  24  25
ATOM     25  O   UNL     1     -35.787  21.542   0.743  0.00  0.00    -0.277 OA
BRANCH  25  26
ATOM     26  P   UNL     1     -35.001  20.254   1.319  0.00  0.00    +0.433 P 
ATOM     27  O   UNL     1     -34.785  20.196   2.800  0.00  0.00    -0.236 OA
BRANCH  26  28
ATOM     28  N   UNL     1     -33.463  20.344   0.651  0.00  0.00    -0.190 N 
ATOM     29  N   UNL     1     -31.350  19.783   0.088  0.00  0.00    -0.231 NA
ATOM     30  C   UNL     1     -32.437  19.408   0.724  0.00  0.00    +0.121 C 
ATOM     31  C   UNL     1     -32.941  21.387  -0.103  0.00  0.00    +0.097 C 
ATOM     32  C   UNL     1     -31.657  21.017  -0.430  0.00  0.00    +0.117 C 
ATOM     33  C   UNL     1     -32.625  18.140   1.458  0.00  0.00    +0.070 C 
ENDBRANCH  26  28
BRANCH  26  34
ATOM     34  O   UNL     1     -35.700  18.970   0.636  0.00  0.00    -0.309 OA
ATOM     35  H   UNL     1     -35.359  18.859  -0.265  0.00  0.00    +0.221 HD
ENDBRANCH  26  34
ENDBRANCH  25  26
ENDBRANCH  24  25
ENDBRANCH   5  24
TORSDOF 8
ENDMDL
MODEL 3
REMARK VINA RESULT:      -6.5      2.925      3.640
REMARK  Name = 195782
REMARK  8 active torsions:
REMARK  status: ('A' for Active; 'I' for Inactive)
REMARK    1  A    between atoms: C_2  and  O_20
REMARK    2  A    between atoms: C_3  and  O_22
REMARK    3  A    between atoms: C_4  and  N_8
REMARK    4  A    between atoms: C_5  and  C_24
REMARK    5  A    between atoms: C_24  and  O_25
REMARK    6  A    between atoms: O_25  and  P_26
REMARK    7  A    between atoms: P_26  and  N_28
REMARK    8  A    between atoms: P_26  and  O_34
REMARK                            x       y       z     vdW  Elec       q    Type
REMARK                         _______ _______ _______ _____ _____    ______ ____
ROOT
ATOM      1  O   UNL     1     -36.758  24.087   4.458  0.00  0.00    -0.331 OA
ATOM      2  C   UNL     1     -35.453  22.147   4.079  0.00  0.00    +0.190 C 
ATOM      3  C   UNL     1     -35.252  22.593   5.512  0.00  0.00    +0.171 C 
ATOM      4  C   UNL     1     -36.736  22.865   3.702  0.00  0.00    +0.239 C 
ATOM      5  C   UNL     1     -35.722  24.040   5.464  0.00  0.00    +0.177 C 
ENDROOT
BRANCH   4   8
ATOM      6  O   UNL     1     -34.499  23.576   2.076  0.00  0.00    -0.246 OA
ATOM      7  O   UNL     1     -37.060  24.091  -1.739  0.00  0.00    -0.266 OA
ATOM      8  N   UNL     1     -36.796  23.183   2.304  0.00  0.00    -0.243 N 
ATOM      9  N   UNL     1     -35.804  23.822   0.195  0.00  0.00    -0.273 N 
ATOM     10  N   UNL     1     -39.237  22.859   2.145  0.00  0.00    -0.302 N 
ATOM     11  N   UNL     1     -39.434  23.337  -0.026  0.00  0.00    -0.310 N 
ATOM     12  C   UNL     1     -38.015  23.165   1.611  0.00  0.00    +0.134 A 
ATOM     13  C   UNL     1     -35.623  23.527   1.569  0.00  0.00    +0.333 A 
ATOM     14  C   UNL     1     -38.109  23.463   0.275  0.00  0.00    +0.133 A 
ATOM     15  C   UNL     1     -36.996  23.819  -0.544  0.00  0.00    +0.277 A 
ATOM     16  C   UNL     1     -40.072  22.973   1.133  0.00  0.00    +0.183 C 
ATOM     17  H   UNL     1     -34.989  24.059  -0.305  0.00  0.00    +0.173 HD
ATOM     18  H   UNL     1     -39.444  22.611   3.075  0.00  0.00    +0.150 HD
ATOM     19  H   UNL     1     -39.852  23.481  -0.904  0.00  0.00    +0.149 HD
ENDBRANCH   4   8
BRANCH   2  20
ATOM     20  O   UNL     1     -35.563  20.742   3.966  0.00  0.00    -0.378 OA
ATOM     21  H   UNL     1     -35.210  20.325   4.767  0.00  0.00    +0.211 HD
ENDBRANCH   2  20
BRANCH   3  22
ATOM     22  O   UNL     1     -36.127  21.875   6.382  0.00  0.00    -0.379 OA
ATOM     23  H   UNL     1     -36.708  22.499   6.844  0.00  0.00    +0.211 HD
ENDBRANCH   3  22
BRANCH   5  24
ATOM     24  C   UNL     1     -34.624  25.017   5.059  0.00  0.00    +0.185 C 
BRANCH  24  25
ATOM     25  O   UNL     1     -35.230  26.203   4.574  0.00  0.00    -0.277 OA
BRANCH  25  26
ATOM     26  P   UNL     1     -34.534  27.046   3.385  0.00  0.00    +0.433 P 
ATOM     27  O   UNL     1     -34.178  28.471   3.681  0.00  0.00    -0.236 OA
BRANCH  26  28
ATOM     28  N   UNL     1     -35.687  27.121   2.168  0.00  0.00    -0.190 N 
ATOM     29  N   UNL     1     -36.625  27.453   0.141  0.00  0.00    -0.231 NA
ATOM     30  C   UNL     1     -35.515  27.506   0.842  0.00  0.00    +0.121 C 
ATOM     31  C   UNL     1     -37.035  26.806   2.275  0.00  0.00    +0.097 C 
ATOM     32  C   UNL     1     -37.578  27.017   1.029  0.00  0.00    +0.117 C 
ATOM     33  C   UNL     1     -34.187  27.918   0.344  0.00  0.00    +0.070 C 
ENDBRANCH  26  28
BRANCH  26  34
ATOM     34  O   UNL     1     -33.353  26.106   2.813  0.00  0.00    -0.309 OA
ATOM     35  H   UNL     1     -33.636  25.179   2.844  0.00  0.00    +0.221 HD
ENDBRANCH  26  34
ENDBRANCH  25  26
ENDBRANCH  24  25
ENDBRANCH   5  24
TORSDOF 8
ENDMDL
MODEL 4
REMARK VINA RESULT:      -6.5      3.418      6.562
REMARK  Name = 195782
REMARK  8 active torsions:
REMARK  status: ('A' for Active; 'I' for Inactive)
REMARK    1  A    between atoms: C_2  and  O_20
REMARK    2  A    between atoms: C_3  and  O_22
REMARK    3  A    between atoms: C_4  and  N_8
REMARK    4  A    between atoms: C_5  and  C_24
REMARK    5  A    between atoms: C_24  and  O_25
REMARK    6  A    between atoms: O_25  and  P_26
REMARK    7  A    between atoms: P_26  and  N_28
REMARK    8  A    between atoms: P_26  and  O_34
REMARK                            x       y       z     vdW  Elec       q    Type
REMARK                         _______ _______ _______ _____ _____    ______ ____
ROOT
ATOM      1  O   UNL     1     -35.428  24.499   2.882  0.00  0.00    -0.331 OA
ATOM      2  C   UNL     1     -36.461  25.513   4.757  0.00  0.00    +0.190 C 
ATOM      3  C   UNL     1     -35.500  24.452   5.248  0.00  0.00    +0.171 C 
ATOM      4  C   UNL     1     -35.973  25.748   3.338  0.00  0.00    +0.239 C 
ATOM      5  C   UNL     1     -35.304  23.598   4.004  0.00  0.00    +0.177 C 
ENDROOT
BRANCH   4   8
ATOM      6  O   UNL     1     -35.684  27.520   1.118  0.00  0.00    -0.246 OA
ATOM      7  O   UNL     1     -40.147  27.248  -0.058  0.00  0.00    -0.266 OA
ATOM      8  N   UNL     1     -37.030  26.146   2.453  0.00  0.00    -0.243 N 
ATOM      9  N   UNL     1     -37.912  27.360   0.559  0.00  0.00    -0.273 N 
ATOM     10  N   UNL     1     -38.752  24.811   3.610  0.00  0.00    -0.302 N 
ATOM     11  N   UNL     1     -40.462  25.370   2.290  0.00  0.00    -0.310 N 
ATOM     12  C   UNL     1     -38.337  25.669   2.629  0.00  0.00    +0.134 A 
ATOM     13  C   UNL     1     -36.792  27.038   1.366  0.00  0.00    +0.333 A 
ATOM     14  C   UNL     1     -39.371  26.028   1.802  0.00  0.00    +0.133 A 
ATOM     15  C   UNL     1     -39.235  26.913   0.691  0.00  0.00    +0.277 A 
ATOM     16  C   UNL     1     -40.039  24.650   3.378  0.00  0.00    +0.183 C 
ATOM     17  H   UNL     1     -37.739  27.976  -0.189  0.00  0.00    +0.173 HD
ATOM     18  H   UNL     1     -38.211  24.405   4.326  0.00  0.00    +0.150 HD
ATOM     19  H   UNL     1     -41.377  25.405   1.930  0.00  0.00    +0.149 HD
ENDBRANCH   4   8
BRANCH   2  20
ATOM     20  O   UNL     1     -36.417  26.684   5.547  0.00  0.00    -0.378 OA
ATOM     21  H   UNL     1     -36.279  27.455   4.974  0.00  0.00    +0.211 HD
ENDBRANCH   2  20
BRANCH   3  22
ATOM     22  O   UNL     1     -34.242  25.039   5.582  0.00  0.00    -0.379 OA
ATOM     23  H   UNL     1     -33.525  24.459   5.282  0.00  0.00    +0.211 HD
ENDBRANCH   3  22
BRANCH   5  24
ATOM     24  C   UNL     1     -36.354  22.504   3.852  0.00  0.00    +0.185 C 
BRANCH  24  25
ATOM     25  O   UNL     1     -36.805  22.493   2.509  0.00  0.00    -0.277 OA
BRANCH  25  26
ATOM     26  P   UNL     1     -36.713  21.141   1.630  0.00  0.00    +0.433 P 
ATOM     27  O   UNL     1     -35.699  21.114   0.527  0.00  0.00    -0.236 OA
BRANCH  26  28
ATOM     28  N   UNL     1     -38.202  21.014   0.864  0.00  0.00    -0.190 N 
ATOM     29  N   UNL     1     -39.860  20.227  -0.451  0.00  0.00    -0.231 NA
ATOM     30  C   UNL     1     -38.629  20.039  -0.031  0.00  0.00    +0.121 C 
ATOM     31  C   UNL     1     -39.284  21.875   0.995  0.00  0.00    +0.097 C 
ATOM     32  C   UNL     1     -40.275  21.371   0.185  0.00  0.00    +0.117 C 
ATOM     33  C   UNL     1     -37.734  18.931  -0.422  0.00  0.00    +0.070 C 
ENDBRANCH  26  28
BRANCH  26  34
ATOM     34  O   UNL     1     -36.663  19.928   2.693  0.00  0.00    -0.309 OA
ATOM     35  H   UNL     1     -37.118  20.194   3.507  0.00  0.00    +0.221 HD
ENDBRANCH  26  34
ENDBRANCH  25  26
ENDBRANCH  24  25
ENDBRANCH   5  24
TORSDOF 8
ENDMDL
MODEL 5
REMARK VINA RESULT:      -6.4      4.061      7.663
REMARK  Name = 195782
REMARK  8 active torsions:
REMARK  status: ('A' for Active; 'I' for Inactive)
REMARK    1  A    between atoms: C_2  and  O_20
REMARK    2  A    between atoms: C_3  and  O_22
REMARK    3  A    between atoms: C_4  and  N_8
REMARK    4  A    between atoms: C_5  and  C_24
REMARK    5  A    between atoms: C_24  and  O_25
REMARK    6  A    between atoms: O_25  and  P_26
REMARK    7  A    between atoms: P_26  and  N_28
REMARK    8  A    between atoms: P_26  and  O_34
REMARK                            x       y       z     vdW  Elec       q    Type
REMARK                         _______ _______ _______ _____ _____    ______ ____
ROOT
ATOM      1  O   UNL     1     -38.244  22.357   2.377  0.00  0.00    -0.331 OA
ATOM      2  C   UNL     1     -39.061  24.257   1.224  0.00  0.00    +0.190 C 
ATOM      3  C   UNL     1     -39.464  23.016   0.457  0.00  0.00    +0.171 C 
ATOM      4  C   UNL     1     -38.733  23.690   2.594  0.00  0.00    +0.239 C 
ATOM      5  C   UNL     1     -38.500  21.974   1.008  0.00  0.00    +0.177 C 
ENDROOT
BRANCH   4   8
ATOM      6  O   UNL     1     -38.557  26.540   2.621  0.00  0.00    -0.246 OA
ATOM      7  O   UNL     1     -34.771  26.575   5.276  0.00  0.00    -0.266 OA
ATOM      8  N   UNL     1     -37.726  24.451   3.276  0.00  0.00    -0.243 N 
ATOM      9  N   UNL     1     -36.673  26.521   3.945  0.00  0.00    -0.273 N 
ATOM     10  N   UNL     1     -36.562  22.464   4.161  0.00  0.00    -0.302 N 
ATOM     11  N   UNL     1     -34.952  23.557   5.254  0.00  0.00    -0.310 N 
ATOM     12  C   UNL     1     -36.713  23.816   4.008  0.00  0.00    +0.134 A 
ATOM     13  C   UNL     1     -37.717  25.877   3.235  0.00  0.00    +0.333 A 
ATOM     14  C   UNL     1     -35.735  24.512   4.672  0.00  0.00    +0.133 A 
ATOM     15  C   UNL     1     -35.639  25.935   4.690  0.00  0.00    +0.277 A 
ATOM     16  C   UNL     1     -35.490  22.341   4.917  0.00  0.00    +0.183 C 
ATOM     17  H   UNL     1     -36.674  27.505   3.912  0.00  0.00    +0.173 HD
ATOM     18  H   UNL     1     -37.125  21.748   3.789  0.00  0.00    +0.150 HD
ATOM     19  H   UNL     1     -34.154  23.711   5.808  0.00  0.00    +0.149 HD
ENDBRANCH   4   8
BRANCH   2  20
ATOM     20  O   UNL     1     -40.095  25.220   1.268  0.00  0.00    -0.378 OA
ATOM     21  H   UNL     1     -40.514  25.204   2.143  0.00  0.00    +0.211 HD
ENDBRANCH   2  20
BRANCH   3  22
ATOM     22  O   UNL     1     -40.789  22.622   0.814  0.00  0.00    -0.379 OA
ATOM     23  H   UNL     1     -40.752  22.000   1.558  0.00  0.00    +0.211 HD
ENDBRANCH   3  22
BRANCH   5  24
ATOM     24  C   UNL     1     -37.167  21.936   0.270  0.00  0.00    +0.185 C 
BRANCH  24  25
ATOM     25  O   UNL     1     -36.139  21.664   1.206  0.00  0.00    -0.277 OA
BRANCH  25  26
ATOM     26  P   UNL     1     -35.744  20.139   1.562  0.00  0.00    +0.433 P 
ATOM     27  O   UNL     1     -34.307  19.868   1.890  0.00  0.00    -0.236 OA
BRANCH  26  28
ATOM     28  N   UNL     1     -36.050  19.268   0.160  0.00  0.00    -0.190 N 
ATOM     29  N   UNL     1     -35.849  18.489  -1.949  0.00  0.00    -0.231 NA
ATOM     30  C   UNL     1     -35.350  19.299  -1.042  0.00  0.00    +0.121 C 
ATOM     31  C   UNL     1     -37.071  18.349  -0.045  0.00  0.00    +0.097 C 
ATOM     32  C   UNL     1     -36.923  17.894  -1.334  0.00  0.00    +0.117 C 
ATOM     33  C   UNL     1     -34.174  20.175  -1.207  0.00  0.00    +0.070 C 
ENDBRANCH  26  28
BRANCH  26  34
ATOM     34  O   UNL     1     -36.840  19.641   2.636  0.00  0.00    -0.309 OA
ATOM     35  H   UNL     1     -36.681  20.079   3.486  0.00  0.00    +0.221 HD
ENDBRANCH  26  34
ENDBRANCH  25  26
ENDBRANCH  24  25
ENDBRANCH   5  24
TORSDOF 8
ENDMDL
MODEL 6
REMARK VINA RESULT:      -6.4      1.706      2.731
REMARK  Name = 195782
REMARK  8 active torsions:
REMARK  status: ('A' for Active; 'I' for Inactive)
REMARK    1  A    between atoms: C_2  and  O_20
REMARK    2  A    between atoms: C_3  and  O_22
REMARK    3  A    between atoms: C_4  and  N_8
REMARK    4  A    between atoms: C_5  and  C_24
REMARK    5  A    between atoms: C_24  and  O_25
REMARK    6  A    between atoms: O_25  and  P_26
REMARK    7  A    between atoms: P_26  and  N_28
REMARK    8  A    between atoms: P_26  and  O_34
REMARK                            x       y       z     vdW  Elec       q    Type
REMARK                         _______ _______ _______ _____ _____    ______ ____
ROOT
ATOM      1  O   UNL     1     -36.406  23.681   4.980  0.00  0.00    -0.331 OA
ATOM      2  C   UNL     1     -35.513  21.864   3.751  0.00  0.00    +0.190 C 
ATOM      3  C   UNL     1     -34.976  21.803   5.165  0.00  0.00    +0.171 C 
ATOM      4  C   UNL     1     -36.718  22.774   3.910  0.00  0.00    +0.239 C 
ATOM      5  C   UNL     1     -35.217  23.221   5.660  0.00  0.00    +0.177 C 
ENDROOT
BRANCH   4   8
ATOM      6  O   UNL     1     -39.228  23.973   3.267  0.00  0.00    -0.246 OA
ATOM      7  O   UNL     1     -37.706  25.708  -0.740  0.00  0.00    -0.266 OA
ATOM      8  N   UNL     1     -36.993  23.532   2.723  0.00  0.00    -0.243 N 
ATOM      9  N   UNL     1     -38.437  24.824   1.278  0.00  0.00    -0.273 N 
ATOM     10  N   UNL     1     -34.715  23.281   1.811  0.00  0.00    -0.302 N 
ATOM     11  N   UNL     1     -35.045  24.442  -0.066  0.00  0.00    -0.310 N 
ATOM     12  C   UNL     1     -36.002  23.743   1.755  0.00  0.00    +0.134 A 
ATOM     13  C   UNL     1     -38.281  24.096   2.485  0.00  0.00    +0.333 A 
ATOM     14  C   UNL     1     -36.231  24.462   0.609  0.00  0.00    +0.133 A 
ATOM     15  C   UNL     1     -37.481  25.064   0.280  0.00  0.00    +0.277 A 
ATOM     16  C   UNL     1     -34.164  23.720   0.698  0.00  0.00    +0.183 C 
ATOM     17  H   UNL     1     -39.329  25.211   1.122  0.00  0.00    +0.173 HD
ATOM     18  H   UNL     1     -34.297  22.743   2.522  0.00  0.00    +0.150 HD
ATOM     19  H   UNL     1     -34.857  24.866  -0.934  0.00  0.00    +0.149 HD
ENDBRANCH   4   8
BRANCH   2  20
ATOM     20  O   UNL     1     -35.858  20.587   3.253  0.00  0.00    -0.378 OA
ATOM     21  H   UNL     1     -36.792  20.409   3.443  0.00  0.00    +0.211 HD
ENDBRANCH   2  20
BRANCH   3  22
ATOM     22  O   UNL     1     -35.769  20.919   5.958  0.00  0.00    -0.379 OA
ATOM     23  H   UNL     1     -35.195  20.267   6.388  0.00  0.00    +0.211 HD
ENDBRANCH   3  22
BRANCH   5  24
ATOM     24  C   UNL     1     -34.079  24.178   5.324  0.00  0.00    +0.185 C 
BRANCH  24  25
ATOM     25  O   UNL     1     -34.586  25.501   5.323  0.00  0.00    -0.277 OA
BRANCH  25  26
ATOM     26  P   UNL     1     -34.125  26.549   4.183  0.00  0.00    +0.433 P 
ATOM     27  O   UNL     1     -33.411  25.987   2.991  0.00  0.00    -0.236 OA
BRANCH  26  28
ATOM     28  N   UNL     1     -33.009  27.553   4.935  0.00  0.00    -0.190 N 
ATOM     29  N   UNL     1     -31.542  29.237   5.262  0.00  0.00    -0.231 NA
ATOM     30  C   UNL     1     -32.360  28.665   4.408  0.00  0.00    +0.121 C 
ATOM     31  C   UNL     1     -32.534  27.446   6.235  0.00  0.00    +0.097 C 
ATOM     32  C   UNL     1     -31.645  28.481   6.404  0.00  0.00    +0.117 C 
ATOM     33  C   UNL     1     -32.617  29.100   3.020  0.00  0.00    +0.070 C 
ENDBRANCH  26  28
BRANCH  26  34
ATOM     34  O   UNL     1     -35.416  27.472   3.887  0.00  0.00    -0.309 OA
ATOM     35  H   UNL     1     -35.283  27.956   3.057  0.00  0.00    +0.221 HD
ENDBRANCH  26  34
ENDBRANCH  25  26
ENDBRANCH  24  25
ENDBRANCH   5  24
TORSDOF 8
ENDMDL
MODEL 7
REMARK VINA RESULT:      -6.3      3.314      6.548
REMARK  Name = 195782
REMARK  8 active torsions:
REMARK  status: ('A' for Active; 'I' for Inactive)
REMARK    1  A    between atoms: C_2  and  O_20
REMARK    2  A    between atoms: C_3  and  O_22
REMARK    3  A    between atoms: C_4  and  N_8
REMARK    4  A    between atoms: C_5  and  C_24
REMARK    5  A    between atoms: C_24  and  O_25
REMARK    6  A    between atoms: O_25  and  P_26
REMARK    7  A    between atoms: P_26  and  N_28
REMARK    8  A    between atoms: P_26  and  O_34
REMARK                            x       y       z     vdW  Elec       q    Type
REMARK                         _______ _______ _______ _____ _____    ______ ____
ROOT
ATOM      1  O   UNL     1     -37.365  23.463   2.758  0.00  0.00    -0.331 OA
ATOM      2  C   UNL     1     -38.346  25.616   2.662  0.00  0.00    +0.190 C 
ATOM      3  C   UNL     1     -39.049  24.719   1.665  0.00  0.00    +0.171 C 
ATOM      4  C   UNL     1     -37.669  24.607   3.572  0.00  0.00    +0.239 C 
ATOM      5  C   UNL     1     -38.045  23.590   1.489  0.00  0.00    +0.177 C 
ENDROOT
BRANCH   4   8
ATOM      6  O   UNL     1     -36.220  23.391   5.711  0.00  0.00    -0.246 OA
ATOM      7  O   UNL     1     -32.931  26.640   5.723  0.00  0.00    -0.266 OA
ATOM      8  N   UNL     1     -36.451  25.111   4.139  0.00  0.00    -0.243 N 
ATOM      9  N   UNL     1     -34.598  25.026   5.689  0.00  0.00    -0.273 N 
ATOM     10  N   UNL     1     -36.347  27.070   2.643  0.00  0.00    -0.302 N 
ATOM     11  N   UNL     1     -34.457  27.934   3.457  0.00  0.00    -0.310 N 
ATOM     12  C   UNL     1     -35.864  26.290   3.658  0.00  0.00    +0.134 A 
ATOM     13  C   UNL     1     -35.794  24.435   5.209  0.00  0.00    +0.333 A 
ATOM     14  C   UNL     1     -34.700  26.800   4.176  0.00  0.00    +0.133 A 
ATOM     15  C   UNL     1     -33.971  26.199   5.245  0.00  0.00    +0.277 A 
ATOM     16  C   UNL     1     -35.476  28.054   2.546  0.00  0.00    +0.183 C 
ATOM     17  H   UNL     1     -34.151  24.552   6.427  0.00  0.00    +0.173 HD
ATOM     18  H   UNL     1     -37.161  26.928   2.107  0.00  0.00    +0.150 HD
ATOM     19  H   UNL     1     -33.697  28.549   3.570  0.00  0.00    +0.149 HD
ENDBRANCH   4   8
BRANCH   2  20
ATOM     20  O   UNL     1     -39.247  26.456   3.356  0.00  0.00    -0.378 OA
ATOM     21  H   UNL     1     -40.120  26.034   3.391  0.00  0.00    +0.211 HD
ENDBRANCH   2  20
BRANCH   3  22
ATOM     22  O   UNL     1     -40.233  24.170   2.243  0.00  0.00    -0.379 OA
ATOM     23  H   UNL     1     -39.991  23.492   2.893  0.00  0.00    +0.211 HD
ENDBRANCH   3  22
BRANCH   5  24
ATOM     24  C   UNL     1     -36.999  23.874   0.418  0.00  0.00    +0.185 C 
BRANCH  24  25
ATOM     25  O   UNL     1     -36.142  22.751   0.312  0.00  0.00    -0.277 OA
BRANCH  25  26
ATOM     26  P   UNL     1     -34.557  22.906   0.582  0.00  0.00    +0.433 P 
ATOM     27  O   UNL     1     -33.736  23.506  -0.518  0.00  0.00    -0.236 OA
BRANCH  26  28
ATOM     28  N   UNL     1     -33.987  21.337   0.756  0.00  0.00    -0.190 N 
ATOM     29  N   UNL     1     -33.796  19.209   1.487  0.00  0.00    -0.231 NA
ATOM     30  C   UNL     1     -34.469  20.333   1.590  0.00  0.00    +0.121 C 
ATOM     31  C   UNL     1     -32.916  20.759   0.085  0.00  0.00    +0.097 C 
ATOM     32  C   UNL     1     -32.825  19.468   0.550  0.00  0.00    +0.117 C 
ATOM     33  C   UNL     1     -35.626  20.579   2.473  0.00  0.00    +0.070 C 
ENDBRANCH  26  28
BRANCH  26  34
ATOM     34  O   UNL     1     -34.424  23.584   2.040  0.00  0.00    -0.309 OA
ATOM     35  H   UNL     1     -35.303  23.846   2.355  0.00  0.00    +0.221 HD
ENDBRANCH  26  34
ENDBRANCH  25  26
ENDBRANCH  24  25
ENDBRANCH   5  24
TORSDOF 8
ENDMDL
MODEL 8
REMARK VINA RESULT:      -6.3      3.340      5.444
REMARK  Name = 195782
REMARK  8 active torsions:
REMARK  status: ('A' for Active; 'I' for Inactive)
REMARK    1  A    between atoms: C_2  and  O_20
REMARK    2  A    between atoms: C_3  and  O_22
REMARK    3  A    between atoms: C_4  and  N_8
REMARK    4  A    between atoms: C_5  and  C_24
REMARK    5  A    between atoms: C_24  and  O_25
REMARK    6  A    between atoms: O_25  and  P_26
REMARK    7  A    between atoms: P_26  and  N_28
REMARK    8  A    between atoms: P_26  and  O_34
REMARK                            x       y       z     vdW  Elec       q    Type
REMARK                         _______ _______ _______ _____ _____    ______ ____
ROOT
ATOM      1  O   UNL     1     -35.108  24.568   3.080  0.00  0.00    -0.331 OA
ATOM      2  C   UNL     1     -36.434  25.494   4.811  0.00  0.00    +0.190 C 
ATOM      3  C   UNL     1     -35.428  24.544   5.427  0.00  0.00    +0.171 C 
ATOM      4  C   UNL     1     -35.823  25.760   3.447  0.00  0.00    +0.239 C 
ATOM      5  C   UNL     1     -35.014  23.699   4.230  0.00  0.00    +0.177 C 
ENDROOT
BRANCH   4   8
ATOM      6  O   UNL     1     -35.349  27.144   0.995  0.00  0.00    -0.246 OA
ATOM      7  O   UNL     1     -39.745  26.791  -0.396  0.00  0.00    -0.266 OA
ATOM      8  N   UNL     1     -36.814  26.034   2.447  0.00  0.00    -0.243 N 
ATOM      9  N   UNL     1     -37.546  26.949   0.333  0.00  0.00    -0.273 N 
ATOM     10  N   UNL     1     -38.642  24.943   3.693  0.00  0.00    -0.302 N 
ATOM     11  N   UNL     1     -40.255  25.322   2.197  0.00  0.00    -0.310 N 
ATOM     12  C   UNL     1     -38.144  25.623   2.615  0.00  0.00    +0.134 A 
ATOM     13  C   UNL     1     -36.486  26.734   1.248  0.00  0.00    +0.333 A 
ATOM     14  C   UNL     1     -39.117  25.868   1.679  0.00  0.00    +0.133 A 
ATOM     15  C   UNL     1     -38.889  26.559   0.452  0.00  0.00    +0.277 A 
ATOM     16  C   UNL     1     -39.918  24.777   3.411  0.00  0.00    +0.183 C 
ATOM     17  H   UNL     1     -37.311  27.433  -0.492  0.00  0.00    +0.173 HD
ATOM     18  H   UNL     1     -38.157  24.646   4.496  0.00  0.00    +0.150 HD
ATOM     19  H   UNL     1     -41.146  25.320   1.781  0.00  0.00    +0.149 HD
ENDBRANCH   4   8
BRANCH   2  20
ATOM     20  O   UNL     1     -36.594  26.673   5.574  0.00  0.00    -0.378 OA
ATOM     21  H   UNL     1     -37.238  27.254   5.139  0.00  0.00    +0.211 HD
ENDBRANCH   2  20
BRANCH   3  22
ATOM     22  O   UNL     1     -34.280  25.263   5.877  0.00  0.00    -0.379 OA
ATOM     23  H   UNL     1     -34.457  25.640   6.753  0.00  0.00    +0.211 HD
ENDBRANCH   3  22
BRANCH   5  24
ATOM     24  C   UNL     1     -35.925  22.501   3.995  0.00  0.00    +0.185 C 
BRANCH  24  25
ATOM     25  O   UNL     1     -35.153  21.444   3.451  0.00  0.00    -0.277 OA
BRANCH  25  26
ATOM     26  P   UNL     1     -35.695  20.610   2.179  0.00  0.00    +0.433 P 
ATOM     27  O   UNL     1     -34.683  19.830   1.396  0.00  0.00    -0.236 OA
BRANCH  26  28
ATOM     28  N   UNL     1     -36.282  21.767   1.113  0.00  0.00    -0.190 N 
ATOM     29  N   UNL     1     -36.324  23.446  -0.396  0.00  0.00    -0.231 NA
ATOM     30  C   UNL     1     -35.560  22.669   0.339  0.00  0.00    +0.121 C 
ATOM     31  C   UNL     1     -37.614  22.027   0.815  0.00  0.00    +0.097 C 
ATOM     32  C   UNL     1     -37.607  23.051  -0.104  0.00  0.00    +0.117 C 
ATOM     33  C   UNL     1     -34.084  22.691   0.388  0.00  0.00    +0.070 C 
ENDBRANCH  26  28
BRANCH  26  34
ATOM     34  O   UNL     1     -36.989  19.800   2.703  0.00  0.00    -0.309 OA
ATOM     35  H   UNL     1     -37.044  19.870   3.668  0.00  0.00    +0.221 HD
ENDBRANCH  26  34
ENDBRANCH  25  26
ENDBRANCH  24  25
ENDBRANCH   5  24
TORSDOF 8
ENDMDL
MODEL 9
REMARK VINA RESULT:      -6.3      2.939      5.993
REMARK  Name = 195782
REMARK  8 active torsions:
REMARK  status: ('A' for Active; 'I' for Inactive)
REMARK    1  A    between atoms: C_2  and  O_20
REMARK    2  A    between atoms: C_3  and  O_22
REMARK    3  A    between atoms: C_4  and  N_8
REMARK    4  A    between atoms: C_5  and  C_24
REMARK    5  A    between atoms: C_24  and  O_25
REMARK    6  A    between atoms: O_25  and  P_26
REMARK    7  A    between atoms: P_26  and  N_28
REMARK    8  A    between atoms: P_26  and  O_34
REMARK                            x       y       z     vdW  Elec       q    Type
REMARK                         _______ _______ _______ _____ _____    ______ ____
ROOT
ATOM      1  O   UNL     1     -36.569  23.211   1.545  0.00  0.00    -0.331 OA
ATOM      2  C   UNL     1     -36.019  21.410   2.981  0.00  0.00    +0.190 C 
ATOM      3  C   UNL     1     -37.008  20.919   1.945  0.00  0.00    +0.171 C 
ATOM      4  C   UNL     1     -35.495  22.682   2.339  0.00  0.00    +0.239 C 
ATOM      5  C   UNL     1     -37.615  22.220   1.442  0.00  0.00    +0.177 C 
ENDROOT
BRANCH   4   8
ATOM      6  O   UNL     1     -36.354  22.743   5.061  0.00  0.00    -0.246 OA
ATOM      7  O   UNL     1     -33.927  26.553   6.050  0.00  0.00    -0.266 OA
ATOM      8  N   UNL     1     -35.104  23.665   3.308  0.00  0.00    -0.243 N 
ATOM      9  N   UNL     1     -35.132  24.640   5.520  0.00  0.00    -0.273 N 
ATOM     10  N   UNL     1     -33.676  24.918   1.736  0.00  0.00    -0.302 N 
ATOM     11  N   UNL     1     -33.011  26.494   3.169  0.00  0.00    -0.310 N 
ATOM     12  C   UNL     1     -34.235  24.710   2.967  0.00  0.00    +0.134 A 
ATOM     13  C   UNL     1     -35.584  23.616   4.651  0.00  0.00    +0.333 A 
ATOM     14  C   UNL     1     -33.841  25.667   3.868  0.00  0.00    +0.133 A 
ATOM     15  C   UNL     1     -34.265  25.705   5.230  0.00  0.00    +0.277 A 
ATOM     16  C   UNL     1     -32.943  26.002   1.890  0.00  0.00    +0.183 C 
ATOM     17  H   UNL     1     -35.467  24.599   6.444  0.00  0.00    +0.173 HD
ATOM     18  H   UNL     1     -33.794  24.380   0.920  0.00  0.00    +0.150 HD
ATOM     19  H   UNL     1     -32.549  27.291   3.516  0.00  0.00    +0.149 HD
ENDBRANCH   4   8
BRANCH   2  20
ATOM     20  O   UNL     1     -34.997  20.468   3.235  0.00  0.00    -0.378 OA
ATOM     21  H   UNL     1     -35.260  19.603   2.884  0.00  0.00    +0.211 HD
ENDBRANCH   2  20
BRANCH   3  22
ATOM     22  O   UNL     1     -36.319  20.304   0.856  0.00  0.00    -0.379 OA
ATOM     23  H   UNL     1     -36.121  19.381   1.079  0.00  0.00    +0.211 HD
ENDBRANCH   3  22
BRANCH   5  24
ATOM     24  C   UNL     1     -38.800  22.694   2.274  0.00  0.00    +0.185 C 
BRANCH  24  25
ATOM     25  O   UNL     1     -39.267  23.921   1.741  0.00  0.00    -0.277 OA
BRANCH  25  26
ATOM     26  P   UNL     1     -39.294  25.251   2.657  0.00  0.00    +0.433 P 
ATOM     27  O   UNL     1     -40.600  25.979   2.760  0.00  0.00    -0.236 OA
BRANCH  26  28
ATOM     28  N   UNL     1     -38.247  26.325   1.903  0.00  0.00    -0.190 N 
ATOM     29  N   UNL     1     -37.408  27.768   0.383  0.00  0.00    -0.231 NA
ATOM     30  C   UNL     1     -38.422  26.992   0.695  0.00  0.00    +0.121 C 
ATOM     31  C   UNL     1     -37.003  26.739   2.362  0.00  0.00    +0.097 C 
ATOM     32  C   UNL     1     -36.519  27.615   1.419  0.00  0.00    +0.117 C 
ATOM     33  C   UNL     1     -39.652  26.801  -0.100  0.00  0.00    +0.070 C 
ENDBRANCH  26  28
BRANCH  26  34
ATOM     34  O   UNL     1     -38.579  24.843   4.045  0.00  0.00    -0.309 OA
ATOM     35  H   UNL     1     -37.633  24.694   3.888  0.00  0.00    +0.221 HD
ENDBRANCH  26  34
ENDBRANCH  25  26
ENDBRANCH  24  25
ENDBRANCH   5  24
TORSDOF 8
ENDMDL
