MODEL 1
REMARK VINA RESULT:      -5.6      0.000      0.000
REMARK  Name = 54430084
REMARK  9 active torsions:
REMARK  status: ('A' for Active; 'I' for Inactive)
REMARK    1  A    between atoms: CA_1  and  N_3
REMARK    2  A    between atoms: CA_1  and  C_13
REMARK    3  A    between atoms: CA_1  and  CB_16
REMARK    4  A    between atoms: C_4  and  C_6
REMARK    5  A    between atoms: C_6  and  C_7
REMARK    6  A    between atoms: C_7  and  N_8
REMARK    7  A    between atoms: C_13  and  O_14
REMARK    8  A    between atoms: CB_16  and  CG_17
REMARK    9  A    between atoms: CZ_22  and  OH_23
REMARK                            x       y       z     vdW  Elec       q    Type
REMARK                         _______ _______ _______ _____ _____    ______ ____
ROOT
ATOM      1  CA  TYR A   1     -36.075  21.985   2.980  0.00  0.00    +0.176 C 
ENDROOT
BRANCH   1   3
ATOM      2  O   UNK A   0     -37.399  24.050   1.499  0.00  0.00    -0.275 OA
ATOM      3  N   TYR A   1     -37.488  22.272   2.989  0.00  0.00    -0.297 N 
ATOM      4  C   UNK A   0     -38.036  23.299   2.233  0.00  0.00    +0.221 C 
ATOM      5  H   TYR A   1     -38.083  21.724   3.550  0.00  0.00    +0.150 HD
BRANCH   4   6
ATOM      6  C   UNK A   0     -39.540  23.393   2.420  0.00  0.00    +0.061 C 
BRANCH   6   7
ATOM      7  C   UNK A   0     -39.954  24.660   3.160  0.00  0.00    -0.077 C 
BRANCH   7   8
ATOM      8  N   UNK A   0     -38.839  25.177   3.944  0.00  0.00    +0.381 N 
ATOM      9  H   UNK A   0     -39.165  25.428   4.876  0.00  0.00    -0.089 HD
ATOM     10  H   UNK A   0     -38.454  26.003   3.484  0.00  0.00    -0.089 HD
ATOM     11  H   UNK A   0     -38.114  24.463   4.017  0.00  0.00    -0.089 HD
ENDBRANCH   7   8
ENDBRANCH   6   7
ENDBRANCH   4   6
ENDBRANCH   1   3
BRANCH   1  13
ATOM     12  OXT TYR A   1     -34.701  20.112   2.306  0.00  0.00    -0.248 OA
ATOM     13  C   TYR A   1     -35.813  20.534   2.606  0.00  0.00    +0.332 C 
BRANCH  13  14
ATOM     14  O   TYR A   1     -36.906  19.734   2.632  0.00  0.00    -0.479 OA
ATOM     15  H   TYR A   1     -36.821  18.819   2.454  0.00  0.00    +0.295 HD
ENDBRANCH  13  14
ENDBRANCH   1  13
BRANCH   1  16
ATOM     16  CB  TYR A   1     -35.437  22.298   4.340  0.00  0.00    +0.057 C 
BRANCH  16  17
ATOM     17  CG  TYR A   1     -34.943  23.721   4.445  0.00  0.00    -0.020 C 
ATOM     18  CD1 TYR A   1     -35.006  24.393   5.666  0.00  0.00    -0.001 C 
ATOM     19  CD2 TYR A   1     -34.423  24.363   3.321  0.00  0.00    -0.001 C 
ATOM     20  CE1 TYR A   1     -34.550  25.708   5.762  0.00  0.00    +0.036 C 
ATOM     21  CE2 TYR A   1     -33.967  25.678   3.418  0.00  0.00    +0.036 C 
ATOM     22  CZ  TYR A   1     -34.030  26.350   4.638  0.00  0.00    +0.134 C 
BRANCH  22  23
ATOM     23  OH  TYR A   1     -33.584  27.632   4.733  0.00  0.00    -0.506 OA
ATOM     24  HH  TYR A   1     -34.152  28.344   4.513  0.00  0.00    +0.292 HD
ENDBRANCH  22  23
ENDBRANCH  16  17
ENDBRANCH   1  16
TORSDOF 9
ENDMDL
MODEL 2
REMARK VINA RESULT:      -5.5      3.546      6.888
REMARK  Name = 54430084
REMARK  9 active torsions:
REMARK  status: ('A' for Active; 'I' for Inactive)
REMARK    1  A    between atoms: CA_1  and  N_3
REMARK    2  A    between atoms: CA_1  and  C_13
REMARK    3  A    between atoms: CA_1  and  CB_16
REMARK    4  A    between atoms: C_4  and  C_6
REMARK    5  A    between atoms: C_6  and  C_7
REMARK    6  A    between atoms: C_7  and  N_8
REMARK    7  A    between atoms: C_13  and  O_14
REMARK    8  A    between atoms: CB_16  and  CG_17
REMARK    9  A    between atoms: CZ_22  and  OH_23
REMARK                            x       y       z     vdW  Elec       q    Type
REMARK                         _______ _______ _______ _____ _____    ______ ____
ROOT
ATOM      1  CA  TYR A   1     -33.805  26.515   4.888  0.00  0.00    +0.176 C 
ENDROOT
BRANCH   1   3
ATOM      2  O   UNK A   0     -31.246  27.775   4.615  0.00  0.00    -0.275 OA
ATOM      3  N   TYR A   1     -33.229  27.487   5.786  0.00  0.00    -0.297 N 
ATOM      4  C   UNK A   0     -31.976  28.041   5.565  0.00  0.00    +0.221 C 
ATOM      5  H   TYR A   1     -33.740  27.765   6.580  0.00  0.00    +0.150 HD
BRANCH   4   6
ATOM      6  C   UNK A   0     -31.601  29.034   6.652  0.00  0.00    +0.061 C 
BRANCH   6   7
ATOM      7  C   UNK A   0     -30.102  29.303   6.698  0.00  0.00    -0.077 C 
BRANCH   7   8
ATOM      8  N   UNK A   0     -29.371  28.065   6.945  0.00  0.00    +0.381 N 
ATOM      9  H   UNK A   0     -28.687  28.215   7.686  0.00  0.00    -0.089 HD
ATOM     10  H   UNK A   0     -28.891  27.778   6.092  0.00  0.00    -0.089 HD
ATOM     11  H   UNK A   0     -30.025  27.335   7.228  0.00  0.00    -0.089 HD
ENDBRANCH   7   8
ENDBRANCH   6   7
ENDBRANCH   4   6
ENDBRANCH   1   3
BRANCH   1  13
ATOM     12  OXT TYR A   1     -33.679  26.990   2.520  0.00  0.00    -0.248 OA
ATOM     13  C   TYR A   1     -34.253  27.168   3.589  0.00  0.00    +0.332 C 
BRANCH  13  14
ATOM     14  O   TYR A   1     -35.344  27.963   3.699  0.00  0.00    -0.479 OA
ATOM     15  H   TYR A   1     -36.127  27.632   4.091  0.00  0.00    +0.295 HD
ENDBRANCH  13  14
ENDBRANCH   1  13
BRANCH   1  16
ATOM     16  CB  TYR A   1     -34.987  25.789   5.544  0.00  0.00    +0.057 C 
BRANCH  16  17
ATOM     17  CG  TYR A   1     -35.150  24.370   5.055  0.00  0.00    -0.020 C 
ATOM     18  CD1 TYR A   1     -35.110  23.310   5.961  0.00  0.00    -0.001 C 
ATOM     19  CD2 TYR A   1     -35.342  24.118   3.696  0.00  0.00    -0.001 C 
ATOM     20  CE1 TYR A   1     -35.260  22.000   5.509  0.00  0.00    +0.036 C 
ATOM     21  CE2 TYR A   1     -35.492  22.807   3.244  0.00  0.00    +0.036 C 
ATOM     22  CZ  TYR A   1     -35.452  21.748   4.150  0.00  0.00    +0.134 C 
BRANCH  22  23
ATOM     23  OH  TYR A   1     -35.600  20.469   3.710  0.00  0.00    -0.506 OA
ATOM     24  HH  TYR A   1     -36.405  20.201   3.312  0.00  0.00    +0.292 HD
ENDBRANCH  22  23
ENDBRANCH  16  17
ENDBRANCH   1  16
TORSDOF 9
ENDMDL
MODEL 3
REMARK VINA RESULT:      -5.5      3.137      6.655
REMARK  Name = 54430084
REMARK  9 active torsions:
REMARK  status: ('A' for Active; 'I' for Inactive)
REMARK    1  A    between atoms: CA_1  and  N_3
REMARK    2  A    between atoms: CA_1  and  C_13
REMARK    3  A    between atoms: CA_1  and  CB_16
REMARK    4  A    between atoms: C_4  and  C_6
REMARK    5  A    between atoms: C_6  and  C_7
REMARK    6  A    between atoms: C_7  and  N_8
REMARK    7  A    between atoms: C_13  and  O_14
REMARK    8  A    between atoms: CB_16  and  CG_17
REMARK    9  A    between atoms: CZ_22  and  OH_23
REMARK                            x       y       z     vdW  Elec       q    Type
REMARK                         _______ _______ _______ _____ _____    ______ ____
ROOT
ATOM      1  CA  TYR A   1     -33.931  26.393   4.899  0.00  0.00    +0.176 C 
ENDROOT
BRANCH   1   3
ATOM      2  O   UNK A   0     -31.420  27.734   4.573  0.00  0.00    -0.275 OA
ATOM      3  N   TYR A   1     -33.356  27.362   5.800  0.00  0.00    -0.297 N 
ATOM      4  C   UNK A   0     -32.128  27.958   5.552  0.00  0.00    +0.221 C 
ATOM      5  H   TYR A   1     -33.848  27.607   6.616  0.00  0.00    +0.150 HD
BRANCH   4   6
ATOM      6  C   UNK A   0     -31.747  28.938   6.648  0.00  0.00    +0.061 C 
BRANCH   6   7
ATOM      7  C   UNK A   0     -31.837  30.388   6.186  0.00  0.00    -0.077 C 
BRANCH   7   8
ATOM      8  N   UNK A   0     -32.711  30.497   5.023  0.00  0.00    +0.381 N 
ATOM      9  H   UNK A   0     -33.562  29.960   5.186  0.00  0.00    -0.089 HD
ATOM     10  H   UNK A   0     -32.230  30.130   4.202  0.00  0.00    -0.089 HD
ATOM     11  H   UNK A   0     -32.949  31.476   4.868  0.00  0.00    -0.089 HD
ENDBRANCH   7   8
ENDBRANCH   6   7
ENDBRANCH   4   6
ENDBRANCH   1   3
BRANCH   1  13
ATOM     12  OXT TYR A   1     -33.908  26.788   2.513  0.00  0.00    -0.248 OA
ATOM     13  C   TYR A   1     -34.394  27.051   3.608  0.00  0.00    +0.332 C 
BRANCH  13  14
ATOM     14  O   TYR A   1     -35.393  27.953   3.757  0.00  0.00    -0.479 OA
ATOM     15  H   TYR A   1     -35.524  28.618   3.111  0.00  0.00    +0.295 HD
ENDBRANCH  13  14
ENDBRANCH   1  13
BRANCH   1  16
ATOM     16  CB  TYR A   1     -35.103  25.653   5.558  0.00  0.00    +0.057 C 
BRANCH  16  17
ATOM     17  CG  TYR A   1     -35.288  24.252   5.027  0.00  0.00    -0.020 C 
ATOM     18  CD1 TYR A   1     -35.769  24.054   3.732  0.00  0.00    -0.001 C 
ATOM     19  CD2 TYR A   1     -34.978  23.155   5.831  0.00  0.00    -0.001 C 
ATOM     20  CE1 TYR A   1     -35.940  22.760   3.242  0.00  0.00    +0.036 C 
ATOM     21  CE2 TYR A   1     -35.150  21.860   5.341  0.00  0.00    +0.036 C 
ATOM     22  CZ  TYR A   1     -35.630  21.662   4.047  0.00  0.00    +0.134 C 
BRANCH  22  23
ATOM     23  OH  TYR A   1     -35.795  20.400   3.567  0.00  0.00    -0.506 OA
ATOM     24  HH  TYR A   1     -35.328  20.123   2.803  0.00  0.00    +0.292 HD
ENDBRANCH  22  23
ENDBRANCH  16  17
ENDBRANCH   1  16
TORSDOF 9
ENDMDL
MODEL 4
REMARK VINA RESULT:      -5.5      3.016      6.060
REMARK  Name = 54430084
REMARK  9 active torsions:
REMARK  status: ('A' for Active; 'I' for Inactive)
REMARK    1  A    between atoms: CA_1  and  N_3
REMARK    2  A    between atoms: CA_1  and  C_13
REMARK    3  A    between atoms: CA_1  and  CB_16
REMARK    4  A    between atoms: C_4  and  C_6
REMARK    5  A    between atoms: C_6  and  C_7
REMARK    6  A    between atoms: C_7  and  N_8
REMARK    7  A    between atoms: C_13  and  O_14
REMARK    8  A    between atoms: CB_16  and  CG_17
REMARK    9  A    between atoms: CZ_22  and  OH_23
REMARK                            x       y       z     vdW  Elec       q    Type
REMARK                         _______ _______ _______ _____ _____    ______ ____
ROOT
ATOM      1  CA  TYR A   1     -35.327  26.657   3.147  0.00  0.00    +0.176 C 
ENDROOT
BRANCH   1   3
ATOM      2  O   UNK A   0     -32.668  26.245   4.133  0.00  0.00    -0.275 OA
ATOM      3  N   TYR A   1     -34.471  27.654   3.741  0.00  0.00    -0.297 N 
ATOM      4  C   UNK A   0     -33.193  27.354   4.190  0.00  0.00    +0.221 C 
ATOM      5  H   TYR A   1     -34.803  28.576   3.832  0.00  0.00    +0.150 HD
BRANCH   4   6
ATOM      6  C   UNK A   0     -32.500  28.574   4.772  0.00  0.00    +0.061 C 
BRANCH   6   7
ATOM      7  C   UNK A   0     -31.762  28.258   6.068  0.00  0.00    -0.077 C 
BRANCH   7   8
ATOM      8  N   UNK A   0     -32.620  27.495   6.967  0.00  0.00    +0.381 N 
ATOM      9  H   UNK A   0     -33.331  28.109   7.362  0.00  0.00    -0.089 HD
ATOM     10  H   UNK A   0     -32.056  27.099   7.720  0.00  0.00    -0.089 HD
ATOM     11  H   UNK A   0     -33.070  26.740   6.449  0.00  0.00    -0.089 HD
ENDBRANCH   7   8
ENDBRANCH   6   7
ENDBRANCH   4   6
ENDBRANCH   1   3
BRANCH   1  13
ATOM     12  OXT TYR A   1     -35.616  27.691   0.979  0.00  0.00    -0.248 OA
ATOM     13  C   TYR A   1     -36.133  27.241   1.996  0.00  0.00    +0.332 C 
BRANCH  13  14
ATOM     14  O   TYR A   1     -37.475  27.224   2.176  0.00  0.00    -0.479 OA
ATOM     15  H   TYR A   1     -38.022  27.801   1.681  0.00  0.00    +0.295 HD
ENDBRANCH  13  14
ENDBRANCH   1  13
BRANCH   1  16
ATOM     16  CB  TYR A   1     -36.272  26.046   4.190  0.00  0.00    +0.057 C 
BRANCH  16  17
ATOM     17  CG  TYR A   1     -35.959  24.601   4.493  0.00  0.00    -0.020 C 
ATOM     18  CD1 TYR A   1     -36.206  23.617   3.535  0.00  0.00    -0.001 C 
ATOM     19  CD2 TYR A   1     -35.421  24.249   5.732  0.00  0.00    -0.001 C 
ATOM     20  CE1 TYR A   1     -35.917  22.282   3.816  0.00  0.00    +0.036 C 
ATOM     21  CE2 TYR A   1     -35.132  22.913   6.012  0.00  0.00    +0.036 C 
ATOM     22  CZ  TYR A   1     -35.379  21.930   5.055  0.00  0.00    +0.134 C 
BRANCH  22  23
ATOM     23  OH  TYR A   1     -35.096  20.627   5.327  0.00  0.00    -0.506 OA
ATOM     24  HH  TYR A   1     -34.309  20.405   5.785  0.00  0.00    +0.292 HD
ENDBRANCH  22  23
ENDBRANCH  16  17
ENDBRANCH   1  16
TORSDOF 9
ENDMDL
MODEL 5
REMARK VINA RESULT:      -5.4      1.246      1.848
REMARK  Name = 54430084
REMARK  9 active torsions:
REMARK  status: ('A' for Active; 'I' for Inactive)
REMARK    1  A    between atoms: CA_1  and  N_3
REMARK    2  A    between atoms: CA_1  and  C_13
REMARK    3  A    between atoms: CA_1  and  CB_16
REMARK    4  A    between atoms: C_4  and  C_6
REMARK    5  A    between atoms: C_6  and  C_7
REMARK    6  A    between atoms: C_7  and  N_8
REMARK    7  A    between atoms: C_13  and  O_14
REMARK    8  A    between atoms: CB_16  and  CG_17
REMARK    9  A    between atoms: CZ_22  and  OH_23
REMARK                            x       y       z     vdW  Elec       q    Type
REMARK                         _______ _______ _______ _____ _____    ______ ____
ROOT
ATOM      1  CA  TYR A   1     -35.719  22.768   4.120  0.00  0.00    +0.176 C 
ENDROOT
BRANCH   1   3
ATOM      2  O   UNK A   0     -36.818  24.145   1.860  0.00  0.00    -0.275 OA
ATOM      3  N   TYR A   1     -37.120  22.963   3.835  0.00  0.00    -0.297 N 
ATOM      4  C   UNK A   0     -37.554  23.647   2.709  0.00  0.00    +0.221 C 
ATOM      5  H   TYR A   1     -37.789  22.601   4.460  0.00  0.00    +0.150 HD
BRANCH   4   6
ATOM      6  C   UNK A   0     -39.069  23.715   2.641  0.00  0.00    +0.061 C 
BRANCH   6   7
ATOM      7  C   UNK A   0     -39.628  24.932   3.370  0.00  0.00    -0.077 C 
BRANCH   7   8
ATOM      8  N   UNK A   0     -38.657  26.020   3.360  0.00  0.00    +0.381 N 
ATOM      9  H   UNK A   0     -38.407  26.261   4.318  0.00  0.00    -0.089 HD
ATOM     10  H   UNK A   0     -39.064  26.834   2.899  0.00  0.00    -0.089 HD
ATOM     11  H   UNK A   0     -37.822  25.726   2.853  0.00  0.00    -0.089 HD
ENDBRANCH   7   8
ENDBRANCH   6   7
ENDBRANCH   4   6
ENDBRANCH   1   3
BRANCH   1  13
ATOM     12  OXT TYR A   1     -35.267  20.500   3.409  0.00  0.00    -0.248 OA
ATOM     13  C   TYR A   1     -35.404  21.295   4.333  0.00  0.00    +0.332 C 
BRANCH  13  14
ATOM     14  O   TYR A   1     -35.279  20.922   5.630  0.00  0.00    -0.479 OA
ATOM     15  H   TYR A   1     -34.554  21.228   6.138  0.00  0.00    +0.295 HD
ENDBRANCH  13  14
ENDBRANCH   1  13
BRANCH   1  16
ATOM     16  CB  TYR A   1     -35.286  23.578   5.349  0.00  0.00    +0.057 C 
BRANCH  16  17
ATOM     17  CG  TYR A   1     -34.495  24.813   4.990  0.00  0.00    -0.020 C 
ATOM     18  CD1 TYR A   1     -34.047  25.000   3.681  0.00  0.00    -0.001 C 
ATOM     19  CD2 TYR A   1     -34.213  25.769   5.966  0.00  0.00    -0.001 C 
ATOM     20  CE1 TYR A   1     -33.316  26.141   3.351  0.00  0.00    +0.036 C 
ATOM     21  CE2 TYR A   1     -33.482  26.910   5.635  0.00  0.00    +0.036 C 
ATOM     22  CZ  TYR A   1     -33.034  27.096   4.328  0.00  0.00    +0.134 C 
BRANCH  22  23
ATOM     23  OH  TYR A   1     -32.323  28.210   4.004  0.00  0.00    -0.506 OA
ATOM     24  HH  TYR A   1     -32.732  28.906   3.527  0.00  0.00    +0.292 HD
ENDBRANCH  22  23
ENDBRANCH  16  17
ENDBRANCH   1  16
TORSDOF 9
ENDMDL
MODEL 6
REMARK VINA RESULT:      -5.4      1.910      2.709
REMARK  Name = 54430084
REMARK  9 active torsions:
REMARK  status: ('A' for Active; 'I' for Inactive)
REMARK    1  A    between atoms: CA_1  and  N_3
REMARK    2  A    between atoms: CA_1  and  C_13
REMARK    3  A    between atoms: CA_1  and  CB_16
REMARK    4  A    between atoms: C_4  and  C_6
REMARK    5  A    between atoms: C_6  and  C_7
REMARK    6  A    between atoms: C_7  and  N_8
REMARK    7  A    between atoms: C_13  and  O_14
REMARK    8  A    between atoms: CB_16  and  CG_17
REMARK    9  A    between atoms: CZ_22  and  OH_23
REMARK                            x       y       z     vdW  Elec       q    Type
REMARK                         _______ _______ _______ _____ _____    ______ ____
ROOT
ATOM      1  CA  TYR A   1     -35.664  22.823   4.605  0.00  0.00    +0.176 C 
ENDROOT
BRANCH   1   3
ATOM      2  O   UNK A   0     -35.247  21.167   2.304  0.00  0.00    -0.275 OA
ATOM      3  N   TYR A   1     -36.666  22.417   3.650  0.00  0.00    -0.297 N 
ATOM      4  C   UNK A   0     -36.363  21.609   2.564  0.00  0.00    +0.221 C 
ATOM      5  H   TYR A   1     -37.594  22.722   3.773  0.00  0.00    +0.150 HD
BRANCH   4   6
ATOM      6  C   UNK A   0     -37.590  21.327   1.713  0.00  0.00    +0.061 C 
BRANCH   6   7
ATOM      7  C   UNK A   0     -38.814  22.102   2.187  0.00  0.00    -0.077 C 
BRANCH   7   8
ATOM      8  N   UNK A   0     -40.012  21.280   2.069  0.00  0.00    +0.381 N 
ATOM      9  H   UNK A   0     -40.456  21.452   1.167  0.00  0.00    -0.089 HD
ATOM     10  H   UNK A   0     -40.662  21.519   2.819  0.00  0.00    -0.089 HD
ATOM     11  H   UNK A   0     -39.757  20.295   2.142  0.00  0.00    -0.089 HD
ENDBRANCH   7   8
ENDBRANCH   6   7
ENDBRANCH   4   6
ENDBRANCH   1   3
BRANCH   1  13
ATOM     12  OXT TYR A   1     -35.927  22.084   6.893  0.00  0.00    -0.248 OA
ATOM     13  C   TYR A   1     -35.562  21.827   5.751  0.00  0.00    +0.332 C 
BRANCH  13  14
ATOM     14  O   TYR A   1     -35.039  20.624   5.413  0.00  0.00    -0.479 OA
ATOM     15  H   TYR A   1     -34.406  20.564   4.727  0.00  0.00    +0.295 HD
ENDBRANCH  13  14
ENDBRANCH   1  13
BRANCH   1  16
ATOM     16  CB  TYR A   1     -35.959  24.225   5.155  0.00  0.00    +0.057 C 
BRANCH  16  17
ATOM     17  CG  TYR A   1     -34.880  25.227   4.822  0.00  0.00    -0.020 C 
ATOM     18  CD1 TYR A   1     -34.336  26.026   5.828  0.00  0.00    -0.001 C 
ATOM     19  CD2 TYR A   1     -34.426  25.353   3.509  0.00  0.00    -0.001 C 
ATOM     20  CE1 TYR A   1     -33.339  26.952   5.520  0.00  0.00    +0.036 C 
ATOM     21  CE2 TYR A   1     -33.429  26.279   3.202  0.00  0.00    +0.036 C 
ATOM     22  CZ  TYR A   1     -32.885  27.078   4.207  0.00  0.00    +0.134 C 
BRANCH  22  23
ATOM     23  OH  TYR A   1     -31.912  27.980   3.908  0.00  0.00    -0.506 OA
ATOM     24  HH  TYR A   1     -31.970  28.857   4.233  0.00  0.00    +0.292 HD
ENDBRANCH  22  23
ENDBRANCH  16  17
ENDBRANCH   1  16
TORSDOF 9
ENDMDL
MODEL 7
REMARK VINA RESULT:      -5.3      2.097      3.333
REMARK  Name = 54430084
REMARK  9 active torsions:
REMARK  status: ('A' for Active; 'I' for Inactive)
REMARK    1  A    between atoms: CA_1  and  N_3
REMARK    2  A    between atoms: CA_1  and  C_13
REMARK    3  A    between atoms: CA_1  and  CB_16
REMARK    4  A    between atoms: C_4  and  C_6
REMARK    5  A    between atoms: C_6  and  C_7
REMARK    6  A    between atoms: C_7  and  N_8
REMARK    7  A    between atoms: C_13  and  O_14
REMARK    8  A    between atoms: CB_16  and  CG_17
REMARK    9  A    between atoms: CZ_22  and  OH_23
REMARK                            x       y       z     vdW  Elec       q    Type
REMARK                         _______ _______ _______ _____ _____    ______ ____
ROOT
ATOM      1  CA  TYR A   1     -35.604  22.876   4.665  0.00  0.00    +0.176 C 
ENDROOT
BRANCH   1   3
ATOM      2  O   UNK A   0     -35.291  21.757   2.046  0.00  0.00    -0.275 OA
ATOM      3  N   TYR A   1     -36.657  22.371   3.819  0.00  0.00    -0.297 N 
ATOM      4  C   UNK A   0     -36.403  21.846   2.561  0.00  0.00    +0.221 C 
ATOM      5  H   TYR A   1     -37.586  22.400   4.145  0.00  0.00    +0.150 HD
BRANCH   4   6
ATOM      6  C   UNK A   0     -37.678  21.385   1.876  0.00  0.00    +0.061 C 
BRANCH   6   7
ATOM      7  C   UNK A   0     -37.400  20.452   0.703  0.00  0.00    -0.077 C 
BRANCH   7   8
ATOM      8  N   UNK A   0     -36.842  19.191   1.178  0.00  0.00    +0.381 N 
ATOM      9  H   UNK A   0     -37.245  18.961   2.085  0.00  0.00    -0.089 HD
ATOM     10  H   UNK A   0     -35.829  19.280   1.267  0.00  0.00    -0.089 HD
ATOM     11  H   UNK A   0     -37.059  18.450   0.511  0.00  0.00    -0.089 HD
ENDBRANCH   7   8
ENDBRANCH   6   7
ENDBRANCH   4   6
ENDBRANCH   1   3
BRANCH   1  13
ATOM     12  OXT TYR A   1     -35.221  22.300   6.983  0.00  0.00    -0.248 OA
ATOM     13  C   TYR A   1     -35.324  21.926   5.820  0.00  0.00    +0.332 C 
BRANCH  13  14
ATOM     14  O   TYR A   1     -35.201  20.624   5.467  0.00  0.00    -0.479 OA
ATOM     15  H   TYR A   1     -34.496  20.110   5.808  0.00  0.00    +0.295 HD
ENDBRANCH  13  14
ENDBRANCH   1  13
BRANCH   1  16
ATOM     16  CB  TYR A   1     -35.949  24.270   5.207  0.00  0.00    +0.057 C 
BRANCH  16  17
ATOM     17  CG  TYR A   1     -34.898  25.304   4.883  0.00  0.00    -0.020 C 
ATOM     18  CD1 TYR A   1     -34.553  25.557   3.555  0.00  0.00    -0.001 C 
ATOM     19  CD2 TYR A   1     -34.271  26.007   5.912  0.00  0.00    -0.001 C 
ATOM     20  CE1 TYR A   1     -33.582  26.512   3.257  0.00  0.00    +0.036 C 
ATOM     21  CE2 TYR A   1     -33.299  26.963   5.613  0.00  0.00    +0.036 C 
ATOM     22  CZ  TYR A   1     -32.955  27.216   4.286  0.00  0.00    +0.134 C 
BRANCH  22  23
ATOM     23  OH  TYR A   1     -32.009  28.148   3.994  0.00  0.00    -0.506 OA
ATOM     24  HH  TYR A   1     -31.275  27.920   3.458  0.00  0.00    +0.292 HD
ENDBRANCH  22  23
ENDBRANCH  16  17
ENDBRANCH   1  16
TORSDOF 9
ENDMDL
MODEL 8
REMARK VINA RESULT:      -5.2      2.580      5.472
REMARK  Name = 54430084
REMARK  9 active torsions:
REMARK  status: ('A' for Active; 'I' for Inactive)
REMARK    1  A    between atoms: CA_1  and  N_3
REMARK    2  A    between atoms: CA_1  and  C_13
REMARK    3  A    between atoms: CA_1  and  CB_16
REMARK    4  A    between atoms: C_4  and  C_6
REMARK    5  A    between atoms: C_6  and  C_7
REMARK    6  A    between atoms: C_7  and  N_8
REMARK    7  A    between atoms: C_13  and  O_14
REMARK    8  A    between atoms: CB_16  and  CG_17
REMARK    9  A    between atoms: CZ_22  and  OH_23
REMARK                            x       y       z     vdW  Elec       q    Type
REMARK                         _______ _______ _______ _____ _____    ______ ____
ROOT
ATOM      1  CA  TYR A   1     -35.660  22.961   4.469  0.00  0.00    +0.176 C 
ENDROOT
BRANCH   1   3
ATOM      2  O   UNK A   0     -36.214  25.523   5.626  0.00  0.00    -0.275 OA
ATOM      3  N   TYR A   1     -34.708  24.021   4.697  0.00  0.00    -0.297 N 
ATOM      4  C   UNK A   0     -35.076  25.232   5.266  0.00  0.00    +0.221 C 
ATOM      5  H   TYR A   1     -33.768  23.882   4.439  0.00  0.00    +0.150 HD
BRANCH   4   6
ATOM      6  C   UNK A   0     -33.893  26.175   5.397  0.00  0.00    +0.061 C 
BRANCH   6   7
ATOM      7  C   UNK A   0     -33.777  27.126   4.211  0.00  0.00    -0.077 C 
BRANCH   7   8
ATOM      8  N   UNK A   0     -35.093  27.626   3.831  0.00  0.00    +0.381 N 
ATOM      9  H   UNK A   0     -35.498  28.145   4.609  0.00  0.00    -0.089 HD
ATOM     10  H   UNK A   0     -35.700  26.840   3.594  0.00  0.00    -0.089 HD
ATOM     11  H   UNK A   0     -35.003  28.240   3.021  0.00  0.00    -0.089 HD
ENDBRANCH   7   8
ENDBRANCH   6   7
ENDBRANCH   4   6
ENDBRANCH   1   3
BRANCH   1  13
ATOM     12  OXT TYR A   1     -35.974  22.135   6.721  0.00  0.00    -0.248 OA
ATOM     13  C   TYR A   1     -35.594  21.919   5.575  0.00  0.00    +0.332 C 
BRANCH  13  14
ATOM     14  O   TYR A   1     -35.084  20.722   5.198  0.00  0.00    -0.479 OA
ATOM     15  H   TYR A   1     -34.896  20.068   5.842  0.00  0.00    +0.295 HD
ENDBRANCH  13  14
ENDBRANCH   1  13
BRANCH   1  16
ATOM     16  CB  TYR A   1     -35.430  22.294   3.107  0.00  0.00    +0.057 C 
BRANCH  16  17
ATOM     17  CG  TYR A   1     -36.716  21.934   2.403  0.00  0.00    -0.020 C 
ATOM     18  CD1 TYR A   1     -37.889  22.634   2.690  0.00  0.00    -0.001 C 
ATOM     19  CD2 TYR A   1     -36.733  20.901   1.465  0.00  0.00    -0.001 C 
ATOM     20  CE1 TYR A   1     -39.076  22.301   2.040  0.00  0.00    +0.036 C 
ATOM     21  CE2 TYR A   1     -37.921  20.568   0.815  0.00  0.00    +0.036 C 
ATOM     22  CZ  TYR A   1     -39.093  21.268   1.102  0.00  0.00    +0.134 C 
BRANCH  22  23
ATOM     23  OH  TYR A   1     -40.252  20.945   0.467  0.00  0.00    -0.506 OA
ATOM     24  HH  TYR A   1     -40.230  20.624  -0.413  0.00  0.00    +0.292 HD
ENDBRANCH  22  23
ENDBRANCH  16  17
ENDBRANCH   1  16
TORSDOF 9
ENDMDL
MODEL 9
REMARK VINA RESULT:      -5.2      1.970      3.783
REMARK  Name = 54430084
REMARK  9 active torsions:
REMARK  status: ('A' for Active; 'I' for Inactive)
REMARK    1  A    between atoms: CA_1  and  N_3
REMARK    2  A    between atoms: CA_1  and  C_13
REMARK    3  A    between atoms: CA_1  and  CB_16
REMARK    4  A    between atoms: C_4  and  C_6
REMARK    5  A    between atoms: C_6  and  C_7
REMARK    6  A    between atoms: C_7  and  N_8
REMARK    7  A    between atoms: C_13  and  O_14
REMARK    8  A    between atoms: CB_16  and  CG_17
REMARK    9  A    between atoms: CZ_22  and  OH_23
REMARK                            x       y       z     vdW  Elec       q    Type
REMARK                         _______ _______ _______ _____ _____    ______ ____
ROOT
ATOM      1  CA  TYR A   1     -37.104  22.549   2.698  0.00  0.00    +0.176 C 
ENDROOT
BRANCH   1   3
ATOM      2  O   UNK A   0     -35.320  20.612   3.828  0.00  0.00    -0.275 OA
ATOM      3  N   TYR A   1     -36.233  21.660   1.968  0.00  0.00    -0.297 N 
ATOM      4  C   UNK A   0     -35.402  20.752   2.610  0.00  0.00    +0.221 C 
ATOM      5  H   TYR A   1     -36.227  21.698   0.985  0.00  0.00    +0.150 HD
BRANCH   4   6
ATOM      6  C   UNK A   0     -34.589  19.936   1.620  0.00  0.00    +0.061 C 
BRANCH   6   7
ATOM      7  C   UNK A   0     -35.453  19.336   0.517  0.00  0.00    -0.077 C 
BRANCH   7   8
ATOM      8  N   UNK A   0     -36.685  18.792   1.076  0.00  0.00    +0.381 N 
ATOM      9  H   UNK A   0     -36.997  19.380   1.848  0.00  0.00    -0.089 HD
ATOM     10  H   UNK A   0     -36.514  17.845   1.417  0.00  0.00    -0.089 HD
ATOM     11  H   UNK A   0     -37.405  18.767   0.353  0.00  0.00    -0.089 HD
ENDBRANCH   7   8
ENDBRANCH   6   7
ENDBRANCH   4   6
ENDBRANCH   1   3
BRANCH   1  13
ATOM     12  OXT TYR A   1     -39.419  23.136   2.315  0.00  0.00    -0.248 OA
ATOM     13  C   TYR A   1     -38.565  22.259   2.391  0.00  0.00    +0.332 C 
BRANCH  13  14
ATOM     14  O   TYR A   1     -38.857  20.949   2.203  0.00  0.00    -0.479 OA
ATOM     15  H   TYR A   1     -39.480  20.697   1.551  0.00  0.00    +0.295 HD
ENDBRANCH  13  14
ENDBRANCH   1  13
BRANCH   1  16
ATOM     16  CB  TYR A   1     -36.785  24.016   2.384  0.00  0.00    +0.057 C 
BRANCH  16  17
ATOM     17  CG  TYR A   1     -35.976  24.688   3.467  0.00  0.00    -0.020 C 
ATOM     18  CD1 TYR A   1     -36.617  25.240   4.577  0.00  0.00    -0.001 C 
ATOM     19  CD2 TYR A   1     -34.586  24.755   3.359  0.00  0.00    -0.001 C 
ATOM     20  CE1 TYR A   1     -35.868  25.860   5.577  0.00  0.00    +0.036 C 
ATOM     21  CE2 TYR A   1     -33.838  25.376   4.360  0.00  0.00    +0.036 C 
ATOM     22  CZ  TYR A   1     -34.479  25.928   5.469  0.00  0.00    +0.134 C 
BRANCH  22  23
ATOM     23  OH  TYR A   1     -33.750  26.532   6.446  0.00  0.00    -0.506 OA
ATOM     24  HH  TYR A   1     -32.827  26.653   6.335  0.00  0.00    +0.292 HD
ENDBRANCH  22  23
ENDBRANCH  16  17
ENDBRANCH   1  16
TORSDOF 9
ENDMDL
