MODEL 1
REMARK VINA RESULT:      -6.8      0.000      0.000
REMARK  Name = 54729462
REMARK  11 active torsions:
REMARK  status: ('A' for Active; 'I' for Inactive)
REMARK    1  A    between atoms: C_3  and  C_9
REMARK    2  A    between atoms: C_4  and  O_17
REMARK    3  A    between atoms: C_5  and  C_20
REMARK    4  A    between atoms: C_14  and  O_15
REMARK    5  A    between atoms: C_20  and  C_21
REMARK    6  A    between atoms: C_22  and  C_24
REMARK    7  A    between atoms: C_23  and  C_26
REMARK    8  A    between atoms: C_25  and  C_27
REMARK    9  A    between atoms: C_27  and  C_28
REMARK   10  A    between atoms: C_27  and  C_30
REMARK   11  A    between atoms: C_30  and  O_31
REMARK                            x       y       z     vdW  Elec       q    Type
REMARK                         _______ _______ _______ _____ _____    ______ ____
ROOT
ATOM      1  O   UNL     1     -35.632  24.638   1.058  0.00  0.00    -0.270 OA
ATOM      2  N   UNL     1     -34.631  22.915  -0.081  0.00  0.00    -0.279 N 
ATOM      3  C   UNL     1     -34.413  20.763   0.873  0.00  0.00    +0.049 C 
ATOM      4  C   UNL     1     -35.083  21.256   2.076  0.00  0.00    +0.142 C 
ATOM      5  C   UNL     1     -35.502  22.536   2.176  0.00  0.00    +0.126 C 
ATOM      6  C   UNL     1     -34.218  21.612  -0.150  0.00  0.00    +0.067 C 
ATOM      7  C   UNL     1     -35.268  23.464   1.014  0.00  0.00    +0.256 C 
ATOM      8  H   UNL     1     -34.465  23.495  -0.859  0.00  0.00    +0.155 HD
ENDROOT
BRANCH   3   9
ATOM      9  C   UNL     1     -33.924  19.383   0.704  0.00  0.00    +0.004 C 
ATOM     10  C   UNL     1     -34.737  18.424   0.098  0.00  0.00    +0.003 C 
ATOM     11  C   UNL     1     -32.648  19.035   1.148  0.00  0.00    +0.003 C 
ATOM     12  C   UNL     1     -34.275  17.118  -0.062  0.00  0.00    +0.037 C 
ATOM     13  C   UNL     1     -32.186  17.729   0.988  0.00  0.00    +0.037 C 
ATOM     14  C   UNL     1     -32.999  16.771   0.384  0.00  0.00    +0.134 C 
BRANCH  14  15
ATOM     15  O   UNL     1     -32.549  15.495   0.228  0.00  0.00    -0.506 OA
ATOM     16  H   UNL     1     -32.285  14.996   0.976  0.00  0.00    +0.292 HD
ENDBRANCH  14  15
ENDBRANCH   3   9
BRANCH   4  17
ATOM     17  O   UNL     1     -35.231  20.290   3.050  0.00  0.00    -0.505 OA
ATOM     18  H   UNL     1     -35.024  19.397   2.858  0.00  0.00    +0.292 HD
ENDBRANCH   4  17
BRANCH   5  20
ATOM     19  O   UNL     1     -37.331  22.729   3.643  0.00  0.00    -0.286 OA
ATOM     20  C   UNL     1     -36.176  23.041   3.383  0.00  0.00    +0.203 C 
BRANCH  20  21
ATOM     21  C   UNL     1     -35.346  23.938   4.227  0.00  0.00    +0.042 C 
ATOM     22  C   UNL     1     -35.919  24.949   4.893  0.00  0.00    +0.003 C 
BRANCH  22  24
ATOM     23  C   UNL     1     -33.864  26.123   5.537  0.00  0.00    -0.000 C 
ATOM     24  C   UNL     1     -35.166  25.859   5.730  0.00  0.00    +0.000 C 
BRANCH  23  26
ATOM     25  C   UNL     1     -32.260  27.945   5.882  0.00  0.00    -0.024 C 
ATOM     26  C   UNL     1     -33.113  27.033   6.375  0.00  0.00    -0.005 C 
BRANCH  25  27
ATOM     27  C   UNL     1     -31.429  28.943   6.666  0.00  0.00    +0.051 C 
BRANCH  27  28
ATOM     28  C   UNL     1     -31.750  30.438   6.445  0.00  0.00    +0.007 C 
ATOM     29  C   UNL     1     -31.205  30.980   5.129  0.00  0.00    +0.000 C 
ENDBRANCH  27  28
BRANCH  27  30
ATOM     30  C   UNL     1     -29.938  28.664   6.416  0.00  0.00    +0.141 C 
BRANCH  30  31
ATOM     31  O   UNL     1     -29.585  27.364   6.874  0.00  0.00    -0.382 OA
ATOM     32  H   UNL     1     -29.932  26.700   6.257  0.00  0.00    +0.210 HD
ENDBRANCH  30  31
ENDBRANCH  27  30
ENDBRANCH  25  27
ENDBRANCH  23  26
ENDBRANCH  22  24
ENDBRANCH  20  21
ENDBRANCH   5  20
TORSDOF 11
ENDMDL
MODEL 2
REMARK VINA RESULT:      -6.4      6.289      9.180
REMARK  Name = 54729462
REMARK  11 active torsions:
REMARK  status: ('A' for Active; 'I' for Inactive)
REMARK    1  A    between atoms: C_3  and  C_9
REMARK    2  A    between atoms: C_4  and  O_17
REMARK    3  A    between atoms: C_5  and  C_20
REMARK    4  A    between atoms: C_14  and  O_15
REMARK    5  A    between atoms: C_20  and  C_21
REMARK    6  A    between atoms: C_22  and  C_24
REMARK    7  A    between atoms: C_23  and  C_26
REMARK    8  A    between atoms: C_25  and  C_27
REMARK    9  A    between atoms: C_27  and  C_28
REMARK   10  A    between atoms: C_27  and  C_30
REMARK   11  A    between atoms: C_30  and  O_31
REMARK                            x       y       z     vdW  Elec       q    Type
REMARK                         _______ _______ _______ _____ _____    ______ ____
ROOT
ATOM      1  O   UNL     1     -40.023  22.290   1.748  0.00  0.00    -0.270 OA
ATOM      2  N   UNL     1     -38.033  22.378   2.888  0.00  0.00    -0.279 N 
ATOM      3  C   UNL     1     -36.990  24.438   3.396  0.00  0.00    +0.049 C 
ATOM      4  C   UNL     1     -38.093  25.133   2.735  0.00  0.00    +0.142 C 
ATOM      5  C   UNL     1     -39.119  24.454   2.175  0.00  0.00    +0.126 C 
ATOM      6  C   UNL     1     -37.008  23.096   3.444  0.00  0.00    +0.067 C 
ATOM      7  C   UNL     1     -39.112  22.951   2.243  0.00  0.00    +0.256 C 
ATOM      8  H   UNL     1     -37.998  21.397   2.951  0.00  0.00    +0.155 HD
ENDROOT
BRANCH   3   9
ATOM      9  C   UNL     1     -35.838  25.117   4.018  0.00  0.00    +0.004 C 
ATOM     10  C   UNL     1     -35.816  25.332   5.396  0.00  0.00    +0.003 C 
ATOM     11  C   UNL     1     -34.769  25.543   3.229  0.00  0.00    +0.003 C 
ATOM     12  C   UNL     1     -34.727  25.975   5.985  0.00  0.00    +0.037 C 
ATOM     13  C   UNL     1     -33.680  26.185   3.817  0.00  0.00    +0.037 C 
ATOM     14  C   UNL     1     -33.659  26.401   5.195  0.00  0.00    +0.134 C 
BRANCH  14  15
ATOM     15  O   UNL     1     -32.597  27.029   5.769  0.00  0.00    -0.506 OA
ATOM     16  H   UNL     1     -32.555  27.965   5.781  0.00  0.00    +0.292 HD
ENDBRANCH  14  15
ENDBRANCH   3   9
BRANCH   4  17
ATOM     17  O   UNL     1     -37.964  26.506   2.759  0.00  0.00    -0.505 OA
ATOM     18  H   UNL     1     -37.713  26.966   1.983  0.00  0.00    +0.292 HD
ENDBRANCH   4  17
BRANCH   5  20
ATOM     19  O   UNL     1     -40.206  25.381   0.306  0.00  0.00    -0.286 OA
ATOM     20  C   UNL     1     -40.234  25.145   1.506  0.00  0.00    +0.203 C 
BRANCH  20  21
ATOM     21  C   UNL     1     -41.360  25.514   2.401  0.00  0.00    +0.042 C 
ATOM     22  C   UNL     1     -41.371  26.710   3.002  0.00  0.00    +0.003 C 
BRANCH  22  24
ATOM     23  C   UNL     1     -42.871  28.398   3.961  0.00  0.00    -0.000 C 
ATOM     24  C   UNL     1     -42.438  27.130   3.888  0.00  0.00    +0.000 C 
BRANCH  23  26
ATOM     25  C   UNL     1     -43.897  29.957   5.551  0.00  0.00    -0.024 C 
ATOM     26  C   UNL     1     -43.937  28.815   4.848  0.00  0.00    -0.005 C 
BRANCH  25  27
ATOM     27  C   UNL     1     -44.954  30.488   6.501  0.00  0.00    +0.051 C 
BRANCH  27  28
ATOM     28  C   UNL     1     -45.249  32.003   6.434  0.00  0.00    +0.007 C 
ATOM     29  C   UNL     1     -44.532  32.703   5.285  0.00  0.00    +0.000 C 
ENDBRANCH  27  28
BRANCH  27  30
ATOM     30  C   UNL     1     -44.599  30.066   7.937  0.00  0.00    +0.141 C 
BRANCH  30  31
ATOM     31  O   UNL     1     -43.284  30.493   8.276  0.00  0.00    -0.382 OA
ATOM     32  H   UNL     1     -42.654  30.147   7.624  0.00  0.00    +0.210 HD
ENDBRANCH  30  31
ENDBRANCH  27  30
ENDBRANCH  25  27
ENDBRANCH  23  26
ENDBRANCH  22  24
ENDBRANCH  20  21
ENDBRANCH   5  20
TORSDOF 11
ENDMDL
MODEL 3
REMARK VINA RESULT:      -6.4      3.171      5.864
REMARK  Name = 54729462
REMARK  11 active torsions:
REMARK  status: ('A' for Active; 'I' for Inactive)
REMARK    1  A    between atoms: C_3  and  C_9
REMARK    2  A    between atoms: C_4  and  O_17
REMARK    3  A    between atoms: C_5  and  C_20
REMARK    4  A    between atoms: C_14  and  O_15
REMARK    5  A    between atoms: C_20  and  C_21
REMARK    6  A    between atoms: C_22  and  C_24
REMARK    7  A    between atoms: C_23  and  C_26
REMARK    8  A    between atoms: C_25  and  C_27
REMARK    9  A    between atoms: C_27  and  C_28
REMARK   10  A    between atoms: C_27  and  C_30
REMARK   11  A    between atoms: C_30  and  O_31
REMARK                            x       y       z     vdW  Elec       q    Type
REMARK                         _______ _______ _______ _____ _____    ______ ____
ROOT
ATOM      1  O   UNL     1     -35.121  20.809   3.475  0.00  0.00    -0.270 OA
ATOM      2  N   UNL     1     -36.610  21.527   1.882  0.00  0.00    -0.279 N 
ATOM      3  C   UNL     1     -37.926  23.464   2.203  0.00  0.00    +0.049 C 
ATOM      4  C   UNL     1     -37.297  23.645   3.510  0.00  0.00    +0.142 C 
ATOM      5  C   UNL     1     -36.362  22.785   3.968  0.00  0.00    +0.126 C 
ATOM      6  C   UNL     1     -37.555  22.416   1.448  0.00  0.00    +0.067 C 
ATOM      7  C   UNL     1     -35.968  21.619   3.101  0.00  0.00    +0.256 C 
ATOM      8  H   UNL     1     -36.373  20.777   1.289  0.00  0.00    +0.155 HD
ENDROOT
BRANCH   3   9
ATOM      9  C   UNL     1     -38.957  24.360   1.648  0.00  0.00    +0.004 C 
ATOM     10  C   UNL     1     -38.583  25.489   0.920  0.00  0.00    +0.003 C 
ATOM     11  C   UNL     1     -40.309  24.078   1.851  0.00  0.00    +0.003 C 
ATOM     12  C   UNL     1     -39.557  26.337   0.395  0.00  0.00    +0.037 C 
ATOM     13  C   UNL     1     -41.284  24.926   1.327  0.00  0.00    +0.037 C 
ATOM     14  C   UNL     1     -40.908  26.056   0.600  0.00  0.00    +0.134 C 
BRANCH  14  15
ATOM     15  O   UNL     1     -41.860  26.884   0.089  0.00  0.00    -0.506 OA
ATOM     16  H   UNL     1     -42.277  26.675  -0.724  0.00  0.00    +0.292 HD
ENDBRANCH  14  15
ENDBRANCH   3   9
BRANCH   4  17
ATOM     17  O   UNL     1     -37.755  24.758   4.184  0.00  0.00    -0.505 OA
ATOM     18  H   UNL     1     -37.545  24.876   5.089  0.00  0.00    +0.292 HD
ENDBRANCH   4  17
BRANCH   5  20
ATOM     19  O   UNL     1     -36.113  22.337   6.264  0.00  0.00    -0.286 OA
ATOM     20  C   UNL     1     -35.724  22.958   5.284  0.00  0.00    +0.203 C 
BRANCH  20  21
ATOM     21  C   UNL     1     -34.600  23.927   5.304  0.00  0.00    +0.042 C 
ATOM     22  C   UNL     1     -34.805  25.180   5.730  0.00  0.00    +0.003 C 
BRANCH  22  24
ATOM     23  C   UNL     1     -33.474  26.988   4.743  0.00  0.00    -0.000 C 
ATOM     24  C   UNL     1     -33.753  26.174   5.773  0.00  0.00    +0.000 C 
BRANCH  23  26
ATOM     25  C   UNL     1     -31.773  28.308   5.917  0.00  0.00    -0.024 C 
ATOM     26  C   UNL     1     -32.421  27.980   4.788  0.00  0.00    -0.005 C 
BRANCH  25  27
ATOM     27  C   UNL     1     -30.660  29.325   6.075  0.00  0.00    +0.051 C 
BRANCH  27  28
ATOM     28  C   UNL     1     -30.412  30.274   4.881  0.00  0.00    +0.007 C 
ATOM     29  C   UNL     1     -31.264  31.537   4.932  0.00  0.00    +0.000 C 
ENDBRANCH  27  28
BRANCH  27  30
ATOM     30  C   UNL     1     -29.363  28.598   6.469  0.00  0.00    +0.141 C 
BRANCH  30  31
ATOM     31  O   UNL     1     -29.644  27.274   6.910  0.00  0.00    -0.382 OA
ATOM     32  H   UNL     1     -30.275  26.859   6.301  0.00  0.00    +0.210 HD
ENDBRANCH  30  31
ENDBRANCH  27  30
ENDBRANCH  25  27
ENDBRANCH  23  26
ENDBRANCH  22  24
ENDBRANCH  20  21
ENDBRANCH   5  20
TORSDOF 11
ENDMDL
MODEL 4
REMARK VINA RESULT:      -6.3      6.482      8.766
REMARK  Name = 54729462
REMARK  11 active torsions:
REMARK  status: ('A' for Active; 'I' for Inactive)
REMARK    1  A    between atoms: C_3  and  C_9
REMARK    2  A    between atoms: C_4  and  O_17
REMARK    3  A    between atoms: C_5  and  C_20
REMARK    4  A    between atoms: C_14  and  O_15
REMARK    5  A    between atoms: C_20  and  C_21
REMARK    6  A    between atoms: C_22  and  C_24
REMARK    7  A    between atoms: C_23  and  C_26
REMARK    8  A    between atoms: C_25  and  C_27
REMARK    9  A    between atoms: C_27  and  C_28
REMARK   10  A    between atoms: C_27  and  C_30
REMARK   11  A    between atoms: C_30  and  O_31
REMARK                            x       y       z     vdW  Elec       q    Type
REMARK                         _______ _______ _______ _____ _____    ______ ____
ROOT
ATOM      1  O   UNL     1     -38.892  27.750   0.564  0.00  0.00    -0.270 OA
ATOM      2  N   UNL     1     -37.059  26.910   1.660  0.00  0.00    -0.279 N 
ATOM      3  C   UNL     1     -37.193  24.944   2.966  0.00  0.00    +0.049 C 
ATOM      4  C   UNL     1     -38.611  24.845   2.627  0.00  0.00    +0.142 C 
ATOM      5  C   UNL     1     -39.212  25.757   1.833  0.00  0.00    +0.126 C 
ATOM      6  C   UNL     1     -36.481  25.969   2.469  0.00  0.00    +0.067 C 
ATOM      7  C   UNL     1     -38.389  26.895   1.291  0.00  0.00    +0.256 C 
ATOM      8  H   UNL     1     -36.492  27.640   1.321  0.00  0.00    +0.155 HD
ENDROOT
BRANCH   3   9
ATOM      9  C   UNL     1     -36.479  23.989   3.834  0.00  0.00    +0.004 C 
ATOM     10  C   UNL     1     -36.051  24.382   5.102  0.00  0.00    +0.003 C 
ATOM     11  C   UNL     1     -36.231  22.691   3.386  0.00  0.00    +0.003 C 
ATOM     12  C   UNL     1     -35.376  23.480   5.922  0.00  0.00    +0.037 C 
ATOM     13  C   UNL     1     -35.555  21.788   4.206  0.00  0.00    +0.037 C 
ATOM     14  C   UNL     1     -35.127  22.182   5.474  0.00  0.00    +0.134 C 
BRANCH  14  15
ATOM     15  O   UNL     1     -34.467  21.301   6.274  0.00  0.00    -0.506 OA
ATOM     16  H   UNL     1     -33.882  20.673   5.898  0.00  0.00    +0.292 HD
ENDBRANCH  14  15
ENDBRANCH   3   9
BRANCH   4  17
ATOM     17  O   UNL     1     -39.229  23.748   3.191  0.00  0.00    -0.505 OA
ATOM     18  H   UNL     1     -40.083  23.492   2.904  0.00  0.00    +0.292 HD
ENDBRANCH   4  17
BRANCH   5  20
ATOM     19  O   UNL     1     -41.047  24.836   0.684  0.00  0.00    -0.286 OA
ATOM     20  C   UNL     1     -40.640  25.666   1.487  0.00  0.00    +0.203 C 
BRANCH  20  21
ATOM     21  C   UNL     1     -41.510  26.647   2.184  0.00  0.00    +0.042 C 
ATOM     22  C   UNL     1     -41.953  26.387   3.421  0.00  0.00    +0.003 C 
BRANCH  22  24
ATOM     23  C   UNL     1     -42.852  28.617   3.902  0.00  0.00    -0.000 C 
ATOM     24  C   UNL     1     -42.805  27.300   4.153  0.00  0.00    +0.000 C 
BRANCH  23  26
ATOM     25  C   UNL     1     -43.382  30.018   5.844  0.00  0.00    -0.024 C 
ATOM     26  C   UNL     1     -43.704  29.528   4.636  0.00  0.00    -0.005 C 
BRANCH  25  27
ATOM     27  C   UNL     1     -44.195  30.974   6.695  0.00  0.00    +0.051 C 
BRANCH  27  28
ATOM     28  C   UNL     1     -45.438  30.388   7.402  0.00  0.00    +0.007 C 
ATOM     29  C   UNL     1     -45.257  28.934   7.823  0.00  0.00    +0.000 C 
ENDBRANCH  27  28
BRANCH  27  30
ATOM     30  C   UNL     1     -44.579  32.200   5.849  0.00  0.00    +0.141 C 
BRANCH  30  31
ATOM     31  O   UNL     1     -43.425  32.965   5.520  0.00  0.00    -0.382 OA
ATOM     32  H   UNL     1     -43.467  33.823   5.971  0.00  0.00    +0.210 HD
ENDBRANCH  30  31
ENDBRANCH  27  30
ENDBRANCH  25  27
ENDBRANCH  23  26
ENDBRANCH  22  24
ENDBRANCH  20  21
ENDBRANCH   5  20
TORSDOF 11
ENDMDL
MODEL 5
REMARK VINA RESULT:      -6.3      6.815      9.074
REMARK  Name = 54729462
REMARK  11 active torsions:
REMARK  status: ('A' for Active; 'I' for Inactive)
REMARK    1  A    between atoms: C_3  and  C_9
REMARK    2  A    between atoms: C_4  and  O_17
REMARK    3  A    between atoms: C_5  and  C_20
REMARK    4  A    between atoms: C_14  and  O_15
REMARK    5  A    between atoms: C_20  and  C_21
REMARK    6  A    between atoms: C_22  and  C_24
REMARK    7  A    between atoms: C_23  and  C_26
REMARK    8  A    between atoms: C_25  and  C_27
REMARK    9  A    between atoms: C_27  and  C_28
REMARK   10  A    between atoms: C_27  and  C_30
REMARK   11  A    between atoms: C_30  and  O_31
REMARK                            x       y       z     vdW  Elec       q    Type
REMARK                         _______ _______ _______ _____ _____    ______ ____
ROOT
ATOM      1  O   UNL     1     -39.295  27.751   0.574  0.00  0.00    -0.270 OA
ATOM      2  N   UNL     1     -37.370  26.832   1.422  0.00  0.00    -0.279 N 
ATOM      3  C   UNL     1     -37.430  25.042   2.965  0.00  0.00    +0.049 C 
ATOM      4  C   UNL     1     -38.890  25.066   2.899  0.00  0.00    +0.142 C 
ATOM      5  C   UNL     1     -39.546  25.950   2.117  0.00  0.00    +0.126 C 
ATOM      6  C   UNL     1     -36.736  25.923   2.225  0.00  0.00    +0.067 C 
ATOM      7  C   UNL     1     -38.742  26.927   1.301  0.00  0.00    +0.256 C 
ATOM      8  H   UNL     1     -36.814  27.454   0.899  0.00  0.00    +0.155 HD
ENDROOT
BRANCH   3   9
ATOM      9  C   UNL     1     -36.653  24.109   3.803  0.00  0.00    +0.004 C 
ATOM     10  C   UNL     1     -36.154  24.530   5.036  0.00  0.00    +0.003 C 
ATOM     11  C   UNL     1     -36.418  22.806   3.364  0.00  0.00    +0.003 C 
ATOM     12  C   UNL     1     -35.420  23.649   5.829  0.00  0.00    +0.037 C 
ATOM     13  C   UNL     1     -35.683  21.926   4.156  0.00  0.00    +0.037 C 
ATOM     14  C   UNL     1     -35.184  22.347   5.388  0.00  0.00    +0.134 C 
BRANCH  14  15
ATOM     15  O   UNL     1     -34.466  21.487   6.162  0.00  0.00    -0.506 OA
ATOM     16  H   UNL     1     -33.565  21.317   5.963  0.00  0.00    +0.292 HD
ENDBRANCH  14  15
ENDBRANCH   3   9
BRANCH   4  17
ATOM     17  O   UNL     1     -39.486  24.110   3.696  0.00  0.00    -0.505 OA
ATOM     18  H   UNL     1     -39.453  23.208   3.448  0.00  0.00    +0.292 HD
ENDBRANCH   4  17
BRANCH   5  20
ATOM     19  O   UNL     1     -41.625  25.346   1.195  0.00  0.00    -0.286 OA
ATOM     20  C   UNL     1     -41.017  25.983   2.045  0.00  0.00    +0.203 C 
BRANCH  20  21
ATOM     21  C   UNL     1     -41.668  26.837   3.070  0.00  0.00    +0.042 C 
ATOM     22  C   UNL     1     -42.998  26.998   3.059  0.00  0.00    +0.003 C 
BRANCH  22  24
ATOM     23  C   UNL     1     -44.622  27.331   4.867  0.00  0.00    -0.000 C 
ATOM     24  C   UNL     1     -43.693  27.818   4.028  0.00  0.00    +0.000 C 
BRANCH  23  26
ATOM     25  C   UNL     1     -44.851  29.342   6.250  0.00  0.00    -0.024 C 
ATOM     26  C   UNL     1     -45.316  28.154   5.834  0.00  0.00    -0.005 C 
BRANCH  25  27
ATOM     27  C   UNL     1     -45.496  30.281   7.253  0.00  0.00    +0.051 C 
BRANCH  27  28
ATOM     28  C   UNL     1     -45.725  31.737   6.791  0.00  0.00    +0.007 C 
ATOM     29  C   UNL     1     -44.830  32.145   5.627  0.00  0.00    +0.000 C 
ENDBRANCH  27  28
BRANCH  27  30
ATOM     30  C   UNL     1     -44.694  30.246   8.565  0.00  0.00    +0.141 C 
BRANCH  30  31
ATOM     31  O   UNL     1     -43.301  30.381   8.306  0.00  0.00    -0.382 OA
ATOM     32  H   UNL     1     -42.912  29.504   8.166  0.00  0.00    +0.210 HD
ENDBRANCH  30  31
ENDBRANCH  27  30
ENDBRANCH  25  27
ENDBRANCH  23  26
ENDBRANCH  22  24
ENDBRANCH  20  21
ENDBRANCH   5  20
TORSDOF 11
ENDMDL
MODEL 6
REMARK VINA RESULT:      -6.2      5.189      8.899
REMARK  Name = 54729462
REMARK  11 active torsions:
REMARK  status: ('A' for Active; 'I' for Inactive)
REMARK    1  A    between atoms: C_3  and  C_9
REMARK    2  A    between atoms: C_4  and  O_17
REMARK    3  A    between atoms: C_5  and  C_20
REMARK    4  A    between atoms: C_14  and  O_15
REMARK    5  A    between atoms: C_20  and  C_21
REMARK    6  A    between atoms: C_22  and  C_24
REMARK    7  A    between atoms: C_23  and  C_26
REMARK    8  A    between atoms: C_25  and  C_27
REMARK    9  A    between atoms: C_27  and  C_28
REMARK   10  A    between atoms: C_27  and  C_30
REMARK   11  A    between atoms: C_30  and  O_31
REMARK                            x       y       z     vdW  Elec       q    Type
REMARK                         _______ _______ _______ _____ _____    ______ ____
ROOT
ATOM      1  O   UNL     1     -30.825  29.483   6.843  0.00  0.00    -0.270 OA
ATOM      2  N   UNL     1     -32.215  27.688   7.179  0.00  0.00    -0.279 N 
ATOM      3  C   UNL     1     -33.488  26.763   5.414  0.00  0.00    +0.049 C 
ATOM      4  C   UNL     1     -32.917  27.761   4.512  0.00  0.00    +0.142 C 
ATOM      5  C   UNL     1     -32.029  28.681   4.948  0.00  0.00    +0.126 C 
ATOM      6  C   UNL     1     -33.113  26.770   6.704  0.00  0.00    +0.067 C 
ATOM      7  C   UNL     1     -31.629  28.666   6.399  0.00  0.00    +0.256 C 
ATOM      8  H   UNL     1     -31.973  27.649   8.132  0.00  0.00    +0.155 HD
ENDROOT
BRANCH   3   9
ATOM      9  C   UNL     1     -34.466  25.738   5.005  0.00  0.00    +0.004 C 
ATOM     10  C   UNL     1     -35.831  26.023   5.040  0.00  0.00    +0.003 C 
ATOM     11  C   UNL     1     -34.026  24.484   4.581  0.00  0.00    +0.003 C 
ATOM     12  C   UNL     1     -36.756  25.054   4.654  0.00  0.00    +0.037 C 
ATOM     13  C   UNL     1     -34.951  23.515   4.194  0.00  0.00    +0.037 C 
ATOM     14  C   UNL     1     -36.316  23.800   4.231  0.00  0.00    +0.134 C 
BRANCH  14  15
ATOM     15  O   UNL     1     -37.219  22.854   3.854  0.00  0.00    -0.506 OA
ATOM     16  H   UNL     1     -36.924  22.037   3.502  0.00  0.00    +0.292 HD
ENDBRANCH  14  15
ENDBRANCH   3   9
BRANCH   4  17
ATOM     17  O   UNL     1     -33.373  27.645   3.215  0.00  0.00    -0.505 OA
ATOM     18  H   UNL     1     -34.215  27.273   3.047  0.00  0.00    +0.292 HD
ENDBRANCH   4  17
BRANCH   5  20
ATOM     19  O   UNL     1     -30.426  29.464   3.415  0.00  0.00    -0.286 OA
ATOM     20  C   UNL     1     -31.449  29.691   4.047  0.00  0.00    +0.203 C 
BRANCH  20  21
ATOM     21  C   UNL     1     -32.202  30.969   3.982  0.00  0.00    +0.042 C 
ATOM     22  C   UNL     1     -32.669  31.411   2.807  0.00  0.00    +0.003 C 
BRANCH  22  24
ATOM     23  C   UNL     1     -33.872  33.103   1.502  0.00  0.00    -0.000 C 
ATOM     24  C   UNL     1     -33.408  32.649   2.676  0.00  0.00    +0.000 C 
BRANCH  23  26
ATOM     25  C   UNL     1     -35.922  34.384   1.088  0.00  0.00    -0.024 C 
ATOM     26  C   UNL     1     -34.610  34.341   1.373  0.00  0.00    -0.005 C 
BRANCH  25  27
ATOM     27  C   UNL     1     -36.788  35.620   0.934  0.00  0.00    +0.051 C 
BRANCH  27  28
ATOM     28  C   UNL     1     -38.096  35.657   1.756  0.00  0.00    +0.007 C 
ATOM     29  C   UNL     1     -38.640  34.270   2.080  0.00  0.00    +0.000 C 
ENDBRANCH  27  28
BRANCH  27  30
ATOM     30  C   UNL     1     -37.078  35.849  -0.559  0.00  0.00    +0.141 C 
BRANCH  30  31
ATOM     31  O   UNL     1     -37.032  37.236  -0.873  0.00  0.00    -0.382 OA
ATOM     32  H   UNL     1     -37.186  37.357  -1.823  0.00  0.00    +0.210 HD
ENDBRANCH  30  31
ENDBRANCH  27  30
ENDBRANCH  25  27
ENDBRANCH  23  26
ENDBRANCH  22  24
ENDBRANCH  20  21
ENDBRANCH   5  20
TORSDOF 11
ENDMDL
MODEL 7
REMARK VINA RESULT:      -6.2      1.413      1.925
REMARK  Name = 54729462
REMARK  11 active torsions:
REMARK  status: ('A' for Active; 'I' for Inactive)
REMARK    1  A    between atoms: C_3  and  C_9
REMARK    2  A    between atoms: C_4  and  O_17
REMARK    3  A    between atoms: C_5  and  C_20
REMARK    4  A    between atoms: C_14  and  O_15
REMARK    5  A    between atoms: C_20  and  C_21
REMARK    6  A    between atoms: C_22  and  C_24
REMARK    7  A    between atoms: C_23  and  C_26
REMARK    8  A    between atoms: C_25  and  C_27
REMARK    9  A    between atoms: C_27  and  C_28
REMARK   10  A    between atoms: C_27  and  C_30
REMARK   11  A    between atoms: C_30  and  O_31
REMARK                            x       y       z     vdW  Elec       q    Type
REMARK                         _______ _______ _______ _____ _____    ______ ____
ROOT
ATOM      1  O   UNL     1     -36.975  24.738   3.205  0.00  0.00    -0.270 OA
ATOM      2  N   UNL     1     -36.844  23.236   1.474  0.00  0.00    -0.279 N 
ATOM      3  C   UNL     1     -35.780  21.141   1.732  0.00  0.00    +0.049 C 
ATOM      4  C   UNL     1     -35.486  21.489   3.122  0.00  0.00    +0.142 C 
ATOM      5  C   UNL     1     -35.866  22.674   3.647  0.00  0.00    +0.126 C 
ATOM      6  C   UNL     1     -36.444  22.027   0.972  0.00  0.00    +0.067 C 
ATOM      7  C   UNL     1     -36.608  23.647   2.771  0.00  0.00    +0.256 C 
ATOM      8  H   UNL     1     -37.330  23.848   0.875  0.00  0.00    +0.155 HD
ENDROOT
BRANCH   3   9
ATOM      9  C   UNL     1     -35.386  19.871   1.095  0.00  0.00    +0.004 C 
ATOM     10  C   UNL     1     -34.065  19.429   1.177  0.00  0.00    +0.003 C 
ATOM     11  C   UNL     1     -36.335  19.110   0.411  0.00  0.00    +0.003 C 
ATOM     12  C   UNL     1     -33.693  18.228   0.574  0.00  0.00    +0.037 C 
ATOM     13  C   UNL     1     -35.962  17.909  -0.191  0.00  0.00    +0.037 C 
ATOM     14  C   UNL     1     -34.641  17.468  -0.111  0.00  0.00    +0.134 C 
BRANCH  14  15
ATOM     15  O   UNL     1     -34.277  16.297  -0.700  0.00  0.00    -0.506 OA
ATOM     16  H   UNL     1     -34.769  15.963  -1.426  0.00  0.00    +0.292 HD
ENDBRANCH  14  15
ENDBRANCH   3   9
BRANCH   4  17
ATOM     17  O   UNL     1     -34.809  20.496   3.799  0.00  0.00    -0.505 OA
ATOM     18  H   UNL     1     -35.036  19.598   3.664  0.00  0.00    +0.292 HD
ENDBRANCH   4  17
BRANCH   5  20
ATOM     19  O   UNL     1     -36.144  22.478   5.976  0.00  0.00    -0.286 OA
ATOM     20  C   UNL     1     -35.575  23.033   5.045  0.00  0.00    +0.203 C 
BRANCH  20  21
ATOM     21  C   UNL     1     -34.556  24.101   5.210  0.00  0.00    +0.042 C 
ATOM     22  C   UNL     1     -34.889  25.259   5.795  0.00  0.00    +0.003 C 
BRANCH  22  24
ATOM     23  C   UNL     1     -33.385  27.008   4.964  0.00  0.00    -0.000 C 
ATOM     24  C   UNL     1     -33.944  26.339   5.983  0.00  0.00    +0.000 C 
BRANCH  23  26
ATOM     25  C   UNL     1     -31.783  28.288   6.308  0.00  0.00    -0.024 C 
ATOM     26  C   UNL     1     -32.440  28.088   5.155  0.00  0.00    -0.005 C 
BRANCH  25  27
ATOM     27  C   UNL     1     -30.776  29.380   6.614  0.00  0.00    +0.051 C 
BRANCH  27  28
ATOM     28  C   UNL     1     -30.749  30.588   5.651  0.00  0.00    +0.007 C 
ATOM     29  C   UNL     1     -29.338  31.000   5.246  0.00  0.00    +0.000 C 
ENDBRANCH  27  28
BRANCH  27  30
ATOM     30  C   UNL     1     -29.377  28.755   6.742  0.00  0.00    +0.141 C 
BRANCH  30  31
ATOM     31  O   UNL     1     -29.472  27.370   7.056  0.00  0.00    -0.382 OA
ATOM     32  H   UNL     1     -28.580  26.999   7.150  0.00  0.00    +0.210 HD
ENDBRANCH  30  31
ENDBRANCH  27  30
ENDBRANCH  25  27
ENDBRANCH  23  26
ENDBRANCH  22  24
ENDBRANCH  20  21
ENDBRANCH   5  20
TORSDOF 11
ENDMDL
MODEL 8
REMARK VINA RESULT:      -6.1      6.558      8.469
REMARK  Name = 54729462
REMARK  11 active torsions:
REMARK  status: ('A' for Active; 'I' for Inactive)
REMARK    1  A    between atoms: C_3  and  C_9
REMARK    2  A    between atoms: C_4  and  O_17
REMARK    3  A    between atoms: C_5  and  C_20
REMARK    4  A    between atoms: C_14  and  O_15
REMARK    5  A    between atoms: C_20  and  C_21
REMARK    6  A    between atoms: C_22  and  C_24
REMARK    7  A    between atoms: C_23  and  C_26
REMARK    8  A    between atoms: C_25  and  C_27
REMARK    9  A    between atoms: C_27  and  C_28
REMARK   10  A    between atoms: C_27  and  C_30
REMARK   11  A    between atoms: C_30  and  O_31
REMARK                            x       y       z     vdW  Elec       q    Type
REMARK                         _______ _______ _______ _____ _____    ______ ____
ROOT
ATOM      1  O   UNL     1     -33.258  28.762   0.193  0.00  0.00    -0.270 OA
ATOM      2  N   UNL     1     -33.595  26.535   0.635  0.00  0.00    -0.279 N 
ATOM      3  C   UNL     1     -34.454  25.803   2.712  0.00  0.00    +0.049 C 
ATOM      4  C   UNL     1     -34.523  27.196   3.148  0.00  0.00    +0.142 C 
ATOM      5  C   UNL     1     -34.134  28.207   2.340  0.00  0.00    +0.126 C 
ATOM      6  C   UNL     1     -33.995  25.534   1.478  0.00  0.00    +0.067 C 
ATOM      7  C   UNL     1     -33.623  27.876   0.964  0.00  0.00    +0.256 C 
ATOM      8  H   UNL     1     -33.268  26.284  -0.259  0.00  0.00    +0.155 HD
ENDROOT
BRANCH   3   9
ATOM      9  C   UNL     1     -34.853  24.653   3.545  0.00  0.00    +0.004 C 
ATOM     10  C   UNL     1     -34.293  24.482   4.811  0.00  0.00    +0.003 C 
ATOM     11  C   UNL     1     -35.792  23.738   3.068  0.00  0.00    +0.003 C 
ATOM     12  C   UNL     1     -34.670  23.395   5.600  0.00  0.00    +0.037 C 
ATOM     13  C   UNL     1     -36.168  22.651   3.857  0.00  0.00    +0.037 C 
ATOM     14  C   UNL     1     -35.607  22.479   5.122  0.00  0.00    +0.134 C 
BRANCH  14  15
ATOM     15  O   UNL     1     -35.974  21.418   5.891  0.00  0.00    -0.506 OA
ATOM     16  H   UNL     1     -36.282  20.630   5.487  0.00  0.00    +0.292 HD
ENDBRANCH  14  15
ENDBRANCH   3   9
BRANCH   4  17
ATOM     17  O   UNL     1     -35.017  27.342   4.427  0.00  0.00    -0.505 OA
ATOM     18  H   UNL     1     -35.821  27.800   4.568  0.00  0.00    +0.292 HD
ENDBRANCH   4  17
BRANCH   5  20
ATOM     19  O   UNL     1     -33.228  30.171   3.267  0.00  0.00    -0.286 OA
ATOM     20  C   UNL     1     -34.198  29.614   2.770  0.00  0.00    +0.203 C 
BRANCH  20  21
ATOM     21  C   UNL     1     -35.512  30.270   2.550  0.00  0.00    +0.042 C 
ATOM     22  C   UNL     1     -35.816  30.769   1.345  0.00  0.00    +0.003 C 
BRANCH  22  24
ATOM     23  C   UNL     1     -37.523  32.481   1.758  0.00  0.00    -0.000 C 
ATOM     24  C   UNL     1     -37.078  31.422   1.065  0.00  0.00    +0.000 C 
BRANCH  23  26
ATOM     25  C   UNL     1     -39.132  34.314   2.010  0.00  0.00    -0.024 C 
ATOM     26  C   UNL     1     -38.785  33.132   1.477  0.00  0.00    -0.005 C 
BRANCH  25  27
ATOM     27  C   UNL     1     -40.421  35.081   1.782  0.00  0.00    +0.051 C 
BRANCH  27  28
ATOM     28  C   UNL     1     -40.546  35.845   0.445  0.00  0.00    +0.007 C 
ATOM     29  C   UNL     1     -41.927  36.455   0.230  0.00  0.00    +0.000 C 
ENDBRANCH  27  28
BRANCH  27  30
ATOM     30  C   UNL     1     -40.663  36.024   2.972  0.00  0.00    +0.141 C 
BRANCH  30  31
ATOM     31  O   UNL     1     -41.678  35.508   3.825  0.00  0.00    -0.382 OA
ATOM     32  H   UNL     1     -42.535  35.557   3.372  0.00  0.00    +0.210 HD
ENDBRANCH  30  31
ENDBRANCH  27  30
ENDBRANCH  25  27
ENDBRANCH  23  26
ENDBRANCH  22  24
ENDBRANCH  20  21
ENDBRANCH   5  20
TORSDOF 11
ENDMDL
MODEL 9
REMARK VINA RESULT:      -6.0      6.204      9.120
REMARK  Name = 54729462
REMARK  11 active torsions:
REMARK  status: ('A' for Active; 'I' for Inactive)
REMARK    1  A    between atoms: C_3  and  C_9
REMARK    2  A    between atoms: C_4  and  O_17
REMARK    3  A    between atoms: C_5  and  C_20
REMARK    4  A    between atoms: C_14  and  O_15
REMARK    5  A    between atoms: C_20  and  C_21
REMARK    6  A    between atoms: C_22  and  C_24
REMARK    7  A    between atoms: C_23  and  C_26
REMARK    8  A    between atoms: C_25  and  C_27
REMARK    9  A    between atoms: C_27  and  C_28
REMARK   10  A    between atoms: C_27  and  C_30
REMARK   11  A    between atoms: C_30  and  O_31
REMARK                            x       y       z     vdW  Elec       q    Type
REMARK                         _______ _______ _______ _____ _____    ______ ____
ROOT
ATOM      1  O   UNL     1     -31.422  30.632   4.833  0.00  0.00    -0.270 OA
ATOM      2  N   UNL     1     -32.053  28.560   5.591  0.00  0.00    -0.279 N 
ATOM      3  C   UNL     1     -33.681  27.273   4.461  0.00  0.00    +0.049 C 
ATOM      4  C   UNL     1     -33.810  28.345   3.475  0.00  0.00    +0.142 C 
ATOM      5  C   UNL     1     -33.077  29.476   3.564  0.00  0.00    +0.126 C 
ATOM      6  C   UNL     1     -32.811  27.427   5.472  0.00  0.00    +0.067 C 
ATOM      7  C   UNL     1     -32.111  29.621   4.709  0.00  0.00    +0.256 C 
ATOM      8  H   UNL     1     -31.429  28.622   6.350  0.00  0.00    +0.155 HD
ENDROOT
BRANCH   3   9
ATOM      9  C   UNL     1     -34.456  26.018   4.427  0.00  0.00    +0.004 C 
ATOM     10  C   UNL     1     -34.080  24.989   3.563  0.00  0.00    +0.003 C 
ATOM     11  C   UNL     1     -35.565  25.860   5.259  0.00  0.00    +0.003 C 
ATOM     12  C   UNL     1     -34.813  23.803   3.530  0.00  0.00    +0.037 C 
ATOM     13  C   UNL     1     -36.298  24.674   5.225  0.00  0.00    +0.037 C 
ATOM     14  C   UNL     1     -35.922  23.646   4.361  0.00  0.00    +0.134 C 
BRANCH  14  15
ATOM     15  O   UNL     1     -36.638  22.489   4.328  0.00  0.00    -0.506 OA
ATOM     16  H   UNL     1     -36.741  21.978   5.108  0.00  0.00    +0.292 HD
ENDBRANCH  14  15
ENDBRANCH   3   9
BRANCH   4  17
ATOM     17  O   UNL     1     -34.727  28.065   2.484  0.00  0.00    -0.505 OA
ATOM     18  H   UNL     1     -35.036  28.749   1.925  0.00  0.00    +0.292 HD
ENDBRANCH   4  17
BRANCH   5  20
ATOM     19  O   UNL     1     -32.261  30.873   1.857  0.00  0.00    -0.286 OA
ATOM     20  C   UNL     1     -33.200  30.561   2.577  0.00  0.00    +0.203 C 
BRANCH  20  21
ATOM     21  C   UNL     1     -34.531  31.219   2.542  0.00  0.00    +0.042 C 
ATOM     22  C   UNL     1     -34.811  32.111   1.583  0.00  0.00    +0.003 C 
BRANCH  22  24
ATOM     23  C   UNL     1     -37.257  32.181   1.748  0.00  0.00    -0.000 C 
ATOM     24  C   UNL     1     -36.087  32.788   1.494  0.00  0.00    +0.000 C 
BRANCH  23  26
ATOM     25  C   UNL     1     -38.677  34.174   1.891  0.00  0.00    -0.024 C 
ATOM     26  C   UNL     1     -38.531  32.860   1.658  0.00  0.00    -0.005 C 
BRANCH  25  27
ATOM     27  C   UNL     1     -39.959  34.983   1.823  0.00  0.00    +0.051 C 
BRANCH  27  28
ATOM     28  C   UNL     1     -40.166  35.849   0.560  0.00  0.00    +0.007 C 
ATOM     29  C   UNL     1     -38.898  36.014  -0.268  0.00  0.00    +0.000 C 
ENDBRANCH  27  28
BRANCH  27  30
ATOM     30  C   UNL     1     -40.084  35.837   3.095  0.00  0.00    +0.141 C 
BRANCH  30  31
ATOM     31  O   UNL     1     -41.329  35.597   3.742  0.00  0.00    -0.382 OA
ATOM     32  H   UNL     1     -42.054  35.849   3.149  0.00  0.00    +0.210 HD
ENDBRANCH  30  31
ENDBRANCH  27  30
ENDBRANCH  25  27
ENDBRANCH  23  26
ENDBRANCH  22  24
ENDBRANCH  20  21
ENDBRANCH   5  20
TORSDOF 11
ENDMDL
