MODEL 1
REMARK VINA RESULT:      -6.5      0.000      0.000
REMARK  Name = 191867
REMARK  13 active torsions:
REMARK  status: ('A' for Active; 'I' for Inactive)
REMARK    1  A    between atoms: C_1  and  N_3
REMARK    2  A    between atoms: C_1  and  C_15
REMARK    3  A    between atoms: C_1  and  C_26
REMARK    4  A    between atoms: C_4  and  O_6
REMARK    5  A    between atoms: O_6  and  C_7
REMARK    6  A    between atoms: C_7  and  C_8
REMARK    7  A    between atoms: C_15  and  O_16
REMARK    8  A    between atoms: O_16  and  C_17
REMARK    9  A    between atoms: C_22  and  N_25
REMARK   10  A    between atoms: C_26  and  C_27
REMARK   11  A    between atoms: C_27  and  C_28
REMARK   12  A    between atoms: C_28  and  N_29
REMARK   13  A    between atoms: N_29  and  C_32
REMARK                            x       y       z     vdW  Elec       q    Type
REMARK                         _______ _______ _______ _____ _____    ______ ____
ROOT
ATOM      1  C   UNL     1     -34.623  28.341   2.843  0.00  0.00    +0.174 C 
ENDROOT
BRANCH   1   3
ATOM      2  O   UNL     1     -32.997  26.387   4.249  0.00  0.00    -0.226 OA
ATOM      3  N   UNL     1     -34.946  27.632   4.054  0.00  0.00    -0.262 N 
ATOM      4  C   UNL     1     -34.107  26.715   4.657  0.00  0.00    +0.402 C 
ATOM      5  H   UNL     1     -35.816  27.812   4.479  0.00  0.00    +0.153 HD
BRANCH   4   6
ATOM      6  O   UNL     1     -34.696  26.218   5.786  0.00  0.00    -0.430 OA
BRANCH   6   7
ATOM      7  C   UNL     1     -35.959  25.572   5.599  0.00  0.00    +0.237 C 
BRANCH   7   8
ATOM      8  C   UNL     1     -35.725  24.143   5.206  0.00  0.00    +0.021 C 
ATOM      9  C   UNL     1     -35.333  23.210   6.166  0.00  0.00    -0.001 C 
ATOM     10  C   UNL     1     -35.897  23.747   3.879  0.00  0.00    -0.001 C 
ATOM     11  C   UNL     1     -35.114  21.883   5.801  0.00  0.00    -0.000 C 
ATOM     12  C   UNL     1     -35.679  22.418   3.514  0.00  0.00    -0.000 C 
ATOM     13  C   UNL     1     -35.287  21.486   4.474  0.00  0.00    -0.000 C 
ENDBRANCH   7   8
ENDBRANCH   6   7
ENDBRANCH   4   6
ENDBRANCH   1   3
BRANCH   1  15
ATOM     14  O   UNL     1     -35.126  30.598   3.552  0.00  0.00    -0.248 OA
ATOM     15  C   UNL     1     -34.305  29.809   3.095  0.00  0.00    +0.340 C 
BRANCH  15  16
ATOM     16  O   UNL     1     -32.994  30.109   2.746  0.00  0.00    -0.423 OA
BRANCH  16  17
ATOM     17  C   UNL     1     -32.063  29.692   3.700  0.00  0.00    +0.149 C 
ATOM     18  C   UNL     1     -30.944  28.957   3.309  0.00  0.00    +0.039 C 
ATOM     19  C   UNL     1     -32.251  30.011   5.045  0.00  0.00    +0.039 C 
ATOM     20  C   UNL     1     -30.013  28.541   4.261  0.00  0.00    +0.027 C 
ATOM     21  C   UNL     1     -31.322  29.594   5.998  0.00  0.00    +0.027 C 
ATOM     22  C   UNL     1     -30.203  28.859   5.606  0.00  0.00    +0.143 C 
BRANCH  22  25
ATOM     23  O   UNL     1     -28.971  27.216   6.657  0.00  0.00    -0.126 OA
ATOM     24  O   UNL     1     -28.728  29.294   7.325  0.00  0.00    -0.126 OA
ATOM     25  N   UNL     1     -29.255  28.436   6.576  0.00  0.00    +0.058 N 
ENDBRANCH  22  25
ENDBRANCH  16  17
ENDBRANCH  15  16
ENDBRANCH   1  15
BRANCH   1  26
ATOM     26  C   UNL     1     -35.723  28.178   1.786  0.00  0.00    +0.033 C 
BRANCH  26  27
ATOM     27  C   UNL     1     -36.406  26.806   1.808  0.00  0.00    +0.029 C 
BRANCH  27  28
ATOM     28  C   UNL     1     -37.771  26.859   1.129  0.00  0.00    +0.129 C 
BRANCH  28  29
ATOM     29  N   UNL     1     -38.809  26.621   2.133  0.00  0.00    -0.240 NA
BRANCH  29  32
ATOM     30  N   UNL     1     -39.000  24.261   1.727  0.00  0.00    -0.370 N 
ATOM     31  N   UNL     1     -39.185  25.097   3.840  0.00  0.00    -0.370 N 
ATOM     32  C   UNL     1     -38.984  25.392   2.511  0.00  0.00    +0.189 C 
ATOM     33  H   UNL     1     -38.867  24.334   0.754  0.00  0.00    +0.159 HD
ATOM     34  H   UNL     1     -39.143  23.378   2.139  0.00  0.00    +0.159 HD
ATOM     35  H   UNL     1     -39.197  25.819   4.508  0.00  0.00    +0.159 HD
ATOM     36  H   UNL     1     -39.317  24.164   4.121  0.00  0.00    +0.159 HD
ENDBRANCH  29  32
ENDBRANCH  28  29
ENDBRANCH  27  28
ENDBRANCH  26  27
ENDBRANCH   1  26
TORSDOF 13
ENDMDL
MODEL 2
REMARK VINA RESULT:      -6.4      4.244      8.673
REMARK  Name = 191867
REMARK  13 active torsions:
REMARK  status: ('A' for Active; 'I' for Inactive)
REMARK    1  A    between atoms: C_1  and  N_3
REMARK    2  A    between atoms: C_1  and  C_15
REMARK    3  A    between atoms: C_1  and  C_26
REMARK    4  A    between atoms: C_4  and  O_6
REMARK    5  A    between atoms: O_6  and  C_7
REMARK    6  A    between atoms: C_7  and  C_8
REMARK    7  A    between atoms: C_15  and  O_16
REMARK    8  A    between atoms: O_16  and  C_17
REMARK    9  A    between atoms: C_22  and  N_25
REMARK   10  A    between atoms: C_26  and  C_27
REMARK   11  A    between atoms: C_27  and  C_28
REMARK   12  A    between atoms: C_28  and  N_29
REMARK   13  A    between atoms: N_29  and  C_32
REMARK                            x       y       z     vdW  Elec       q    Type
REMARK                         _______ _______ _______ _____ _____    ______ ____
ROOT
ATOM      1  C   UNL     1     -35.791  23.640   4.151  0.00  0.00    +0.174 C 
ENDROOT
BRANCH   1   3
ATOM      2  O   UNL     1     -35.161  20.955   5.063  0.00  0.00    -0.226 OA
ATOM      3  N   UNL     1     -35.652  22.448   3.355  0.00  0.00    -0.262 N 
ATOM      4  C   UNL     1     -35.349  21.205   3.877  0.00  0.00    +0.402 C 
ATOM      5  H   UNL     1     -35.779  22.522   2.382  0.00  0.00    +0.153 HD
BRANCH   4   6
ATOM      6  O   UNL     1     -35.286  20.281   2.872  0.00  0.00    -0.430 OA
BRANCH   6   7
ATOM      7  C   UNL     1     -34.931  20.787   1.580  0.00  0.00    +0.237 C 
BRANCH   7   8
ATOM      8  C   UNL     1     -33.666  20.121   1.125  0.00  0.00    +0.021 C 
ATOM      9  C   UNL     1     -32.793  20.791   0.268  0.00  0.00    -0.001 C 
ATOM     10  C   UNL     1     -33.362  18.830   1.559  0.00  0.00    -0.001 C 
ATOM     11  C   UNL     1     -31.618  20.172  -0.155  0.00  0.00    -0.000 C 
ATOM     12  C   UNL     1     -32.186  18.210   1.136  0.00  0.00    -0.000 C 
ATOM     13  C   UNL     1     -31.314  18.881   0.278  0.00  0.00    -0.000 C 
ENDBRANCH   7   8
ENDBRANCH   6   7
ENDBRANCH   4   6
ENDBRANCH   1   3
BRANCH   1  15
ATOM     14  O   UNL     1     -36.330  25.390   2.568  0.00  0.00    -0.248 OA
ATOM     15  C   UNL     1     -36.698  24.674   3.494  0.00  0.00    +0.340 C 
BRANCH  15  16
ATOM     16  O   UNL     1     -37.960  24.681   4.077  0.00  0.00    -0.423 OA
BRANCH  16  17
ATOM     17  C   UNL     1     -38.996  24.615   3.143  0.00  0.00    +0.149 C 
ATOM     18  C   UNL     1     -39.200  23.447   2.408  0.00  0.00    +0.039 C 
ATOM     19  C   UNL     1     -39.828  25.717   2.944  0.00  0.00    +0.039 C 
ATOM     20  C   UNL     1     -40.235  23.380   1.476  0.00  0.00    +0.027 C 
ATOM     21  C   UNL     1     -40.862  25.651   2.012  0.00  0.00    +0.027 C 
ATOM     22  C   UNL     1     -41.067  24.483   1.277  0.00  0.00    +0.143 C 
BRANCH  22  25
ATOM     23  O   UNL     1     -43.285  24.170   0.730  0.00  0.00    -0.126 OA
ATOM     24  O   UNL     1     -41.861  24.602  -0.884  0.00  0.00    -0.126 OA
ATOM     25  N   UNL     1     -42.121  24.415   0.329  0.00  0.00    +0.058 N 
ENDBRANCH  22  25
ENDBRANCH  16  17
ENDBRANCH  15  16
ENDBRANCH   1  15
BRANCH   1  26
ATOM     26  C   UNL     1     -34.426  24.239   4.510  0.00  0.00    +0.033 C 
BRANCH  26  27
ATOM     27  C   UNL     1     -34.495  25.347   5.569  0.00  0.00    +0.029 C 
BRANCH  27  28
ATOM     28  C   UNL     1     -33.720  26.583   5.124  0.00  0.00    +0.129 C 
BRANCH  28  29
ATOM     29  N   UNL     1     -32.715  26.902   6.138  0.00  0.00    -0.240 NA
BRANCH  29  32
ATOM     30  N   UNL     1     -32.529  29.131   5.262  0.00  0.00    -0.370 N 
ATOM     31  N   UNL     1     -31.073  28.378   6.847  0.00  0.00    -0.370 N 
ATOM     32  C   UNL     1     -32.162  28.074   6.065  0.00  0.00    +0.189 C 
ATOM     33  H   UNL     1     -33.296  29.044   4.652  0.00  0.00    +0.159 HD
ATOM     34  H   UNL     1     -32.024  29.976   5.300  0.00  0.00    +0.159 HD
ATOM     35  H   UNL     1     -30.709  27.707   7.467  0.00  0.00    +0.159 HD
ATOM     36  H   UNL     1     -30.658  29.269   6.787  0.00  0.00    +0.159 HD
ENDBRANCH  29  32
ENDBRANCH  28  29
ENDBRANCH  27  28
ENDBRANCH  26  27
ENDBRANCH   1  26
TORSDOF 13
ENDMDL
MODEL 3
REMARK VINA RESULT:      -6.3      3.540      7.173
REMARK  Name = 191867
REMARK  13 active torsions:
REMARK  status: ('A' for Active; 'I' for Inactive)
REMARK    1  A    between atoms: C_1  and  N_3
REMARK    2  A    between atoms: C_1  and  C_15
REMARK    3  A    between atoms: C_1  and  C_26
REMARK    4  A    between atoms: C_4  and  O_6
REMARK    5  A    between atoms: O_6  and  C_7
REMARK    6  A    between atoms: C_7  and  C_8
REMARK    7  A    between atoms: C_15  and  O_16
REMARK    8  A    between atoms: O_16  and  C_17
REMARK    9  A    between atoms: C_22  and  N_25
REMARK   10  A    between atoms: C_26  and  C_27
REMARK   11  A    between atoms: C_27  and  C_28
REMARK   12  A    between atoms: C_28  and  N_29
REMARK   13  A    between atoms: N_29  and  C_32
REMARK                            x       y       z     vdW  Elec       q    Type
REMARK                         _______ _______ _______ _____ _____    ______ ____
ROOT
ATOM      1  C   UNL     1     -36.128  24.903   4.661  0.00  0.00    +0.174 C 
ENDROOT
BRANCH   1   3
ATOM      2  O   UNL     1     -36.868  26.449   2.315  0.00  0.00    -0.226 OA
ATOM      3  N   UNL     1     -37.453  25.242   4.209  0.00  0.00    -0.262 N 
ATOM      4  C   UNL     1     -37.713  25.985   3.074  0.00  0.00    +0.402 C 
ATOM      5  H   UNL     1     -38.219  24.925   4.740  0.00  0.00    +0.153 HD
BRANCH   4   6
ATOM      6  O   UNL     1     -39.062  26.135   2.916  0.00  0.00    -0.430 OA
BRANCH   6   7
ATOM      7  C   UNL     1     -39.583  25.783   1.629  0.00  0.00    +0.237 C 
BRANCH   7   8
ATOM      8  C   UNL     1     -39.317  24.328   1.375  0.00  0.00    +0.021 C 
ATOM      9  C   UNL     1     -38.563  23.939   0.268  0.00  0.00    -0.001 C 
ATOM     10  C   UNL     1     -39.824  23.364   2.247  0.00  0.00    -0.001 C 
ATOM     11  C   UNL     1     -38.316  22.588   0.032  0.00  0.00    -0.000 C 
ATOM     12  C   UNL     1     -39.577  22.011   2.011  0.00  0.00    -0.000 C 
ATOM     13  C   UNL     1     -38.823  21.623   0.903  0.00  0.00    -0.000 C 
ENDBRANCH   7   8
ENDBRANCH   6   7
ENDBRANCH   4   6
ENDBRANCH   1   3
BRANCH   1  15
ATOM     14  O   UNL     1     -35.294  22.961   5.839  0.00  0.00    -0.248 OA
ATOM     15  C   UNL     1     -35.965  23.410   4.915  0.00  0.00    +0.340 C 
BRANCH  15  16
ATOM     16  O   UNL     1     -36.667  22.659   3.981  0.00  0.00    -0.423 OA
BRANCH  16  17
ATOM     17  C   UNL     1     -35.854  22.140   2.970  0.00  0.00    +0.149 C 
ATOM     18  C   UNL     1     -35.590  20.771   2.921  0.00  0.00    +0.039 C 
ATOM     19  C   UNL     1     -35.306  22.990   2.010  0.00  0.00    +0.039 C 
ATOM     20  C   UNL     1     -34.779  20.252   1.912  0.00  0.00    +0.027 C 
ATOM     21  C   UNL     1     -34.495  22.472   1.001  0.00  0.00    +0.027 C 
ATOM     22  C   UNL     1     -34.230  21.103   0.952  0.00  0.00    +0.143 C 
BRANCH  22  25
ATOM     23  O   UNL     1     -32.239  20.208   0.208  0.00  0.00    -0.126 OA
ATOM     24  O   UNL     1     -33.864  20.491  -1.241  0.00  0.00    -0.126 OA
ATOM     25  N   UNL     1     -33.405  20.576  -0.076  0.00  0.00    +0.058 N 
ENDBRANCH  22  25
ENDBRANCH  16  17
ENDBRANCH  15  16
ENDBRANCH   1  15
BRANCH   1  26
ATOM     26  C   UNL     1     -35.725  25.728   5.889  0.00  0.00    +0.033 C 
BRANCH  26  27
ATOM     27  C   UNL     1     -34.255  26.163   5.889  0.00  0.00    +0.029 C 
BRANCH  27  28
ATOM     28  C   UNL     1     -33.730  26.330   4.467  0.00  0.00    +0.129 C 
BRANCH  28  29
ATOM     29  N   UNL     1     -33.637  27.759   4.161  0.00  0.00    -0.240 NA
BRANCH  29  32
ATOM     30  N   UNL     1     -33.994  27.841   1.787  0.00  0.00    -0.370 N 
ATOM     31  N   UNL     1     -35.314  29.043   3.205  0.00  0.00    -0.370 N 
ATOM     32  C   UNL     1     -34.256  28.170   3.098  0.00  0.00    +0.189 C 
ATOM     33  H   UNL     1     -33.259  27.222   1.573  0.00  0.00    +0.159 HD
ATOM     34  H   UNL     1     -34.542  28.224   1.064  0.00  0.00    +0.159 HD
ATOM     35  H   UNL     1     -35.604  29.359   4.090  0.00  0.00    +0.159 HD
ATOM     36  H   UNL     1     -35.780  29.352   2.395  0.00  0.00    +0.159 HD
ENDBRANCH  29  32
ENDBRANCH  28  29
ENDBRANCH  27  28
ENDBRANCH  26  27
ENDBRANCH   1  26
TORSDOF 13
ENDMDL
MODEL 4
REMARK VINA RESULT:      -6.2      3.517      5.991
REMARK  Name = 191867
REMARK  13 active torsions:
REMARK  status: ('A' for Active; 'I' for Inactive)
REMARK    1  A    between atoms: C_1  and  N_3
REMARK    2  A    between atoms: C_1  and  C_15
REMARK    3  A    between atoms: C_1  and  C_26
REMARK    4  A    between atoms: C_4  and  O_6
REMARK    5  A    between atoms: O_6  and  C_7
REMARK    6  A    between atoms: C_7  and  C_8
REMARK    7  A    between atoms: C_15  and  O_16
REMARK    8  A    between atoms: O_16  and  C_17
REMARK    9  A    between atoms: C_22  and  N_25
REMARK   10  A    between atoms: C_26  and  C_27
REMARK   11  A    between atoms: C_27  and  C_28
REMARK   12  A    between atoms: C_28  and  N_29
REMARK   13  A    between atoms: N_29  and  C_32
REMARK                            x       y       z     vdW  Elec       q    Type
REMARK                         _______ _______ _______ _____ _____    ______ ____
ROOT
ATOM      1  C   UNL     1     -37.059  23.974   1.712  0.00  0.00    +0.174 C 
ENDROOT
BRANCH   1   3
ATOM      2  O   UNL     1     -34.343  23.696   0.718  0.00  0.00    -0.226 OA
ATOM      3  N   UNL     1     -36.474  22.838   1.046  0.00  0.00    -0.262 N 
ATOM      4  C   UNL     1     -35.166  22.794   0.605  0.00  0.00    +0.402 C 
ATOM      5  H   UNL     1     -37.040  22.047   0.896  0.00  0.00    +0.153 HD
BRANCH   4   6
ATOM      6  O   UNL     1     -34.915  21.586   0.016  0.00  0.00    -0.430 OA
BRANCH   6   7
ATOM      7  C   UNL     1     -34.813  20.467   0.903  0.00  0.00    +0.237 C 
BRANCH   7   8
ATOM      8  C   UNL     1     -33.452  19.852   0.760  0.00  0.00    +0.021 C 
ATOM      9  C   UNL     1     -32.468  20.501   0.016  0.00  0.00    -0.001 C 
ATOM     10  C   UNL     1     -33.172  18.629   1.370  0.00  0.00    -0.001 C 
ATOM     11  C   UNL     1     -31.203  19.930  -0.118  0.00  0.00    -0.000 C 
ATOM     12  C   UNL     1     -31.906  18.057   1.237  0.00  0.00    -0.000 C 
ATOM     13  C   UNL     1     -30.922  18.707   0.493  0.00  0.00    -0.000 C 
ENDBRANCH   7   8
ENDBRANCH   6   7
ENDBRANCH   4   6
ENDBRANCH   1   3
BRANCH   1  15
ATOM     14  O   UNL     1     -39.062  23.685   3.038  0.00  0.00    -0.248 OA
ATOM     15  C   UNL     1     -37.842  23.577   2.957  0.00  0.00    +0.340 C 
BRANCH  15  16
ATOM     16  O   UNL     1     -37.001  23.089   3.950  0.00  0.00    -0.423 OA
BRANCH  16  17
ATOM     17  C   UNL     1     -36.097  24.044   4.421  0.00  0.00    +0.149 C 
ATOM     18  C   UNL     1     -36.561  25.155   5.127  0.00  0.00    +0.039 C 
ATOM     19  C   UNL     1     -34.731  23.887   4.188  0.00  0.00    +0.039 C 
ATOM     20  C   UNL     1     -35.659  26.108   5.599  0.00  0.00    +0.027 C 
ATOM     21  C   UNL     1     -33.829  24.841   4.659  0.00  0.00    +0.027 C 
ATOM     22  C   UNL     1     -34.292  25.951   5.365  0.00  0.00    +0.143 C 
BRANCH  22  25
ATOM     23  O   UNL     1     -32.975  27.821   5.066  0.00  0.00    -0.126 OA
ATOM     24  O   UNL     1     -32.985  26.853   7.037  0.00  0.00    -0.126 OA
ATOM     25  N   UNL     1     -33.373  26.921   5.846  0.00  0.00    +0.058 N 
ENDBRANCH  22  25
ENDBRANCH  16  17
ENDBRANCH  15  16
ENDBRANCH   1  15
BRANCH   1  26
ATOM     26  C   UNL     1     -37.914  24.810   0.753  0.00  0.00    +0.033 C 
BRANCH  26  27
ATOM     27  C   UNL     1     -37.725  26.323   0.911  0.00  0.00    +0.029 C 
BRANCH  27  28
ATOM     28  C   UNL     1     -36.613  26.638   1.907  0.00  0.00    +0.129 C 
BRANCH  28  29
ATOM     29  N   UNL     1     -35.992  27.911   1.536  0.00  0.00    -0.240 NA
BRANCH  29  32
ATOM     30  N   UNL     1     -35.144  29.215   3.366  0.00  0.00    -0.370 N 
ATOM     31  N   UNL     1     -33.745  27.930   2.105  0.00  0.00    -0.370 N 
ATOM     32  C   UNL     1     -35.041  28.343   2.305  0.00  0.00    +0.189 C 
ATOM     33  H   UNL     1     -36.021  29.586   3.616  0.00  0.00    +0.159 HD
ATOM     34  H   UNL     1     -34.339  29.467   3.876  0.00  0.00    +0.159 HD
ATOM     35  H   UNL     1     -33.535  27.304   1.376  0.00  0.00    +0.159 HD
ATOM     36  H   UNL     1     -33.027  28.260   2.692  0.00  0.00    +0.159 HD
ENDBRANCH  29  32
ENDBRANCH  28  29
ENDBRANCH  27  28
ENDBRANCH  26  27
ENDBRANCH   1  26
TORSDOF 13
ENDMDL
MODEL 5
REMARK VINA RESULT:      -6.2      3.648      7.714
REMARK  Name = 191867
REMARK  13 active torsions:
REMARK  status: ('A' for Active; 'I' for Inactive)
REMARK    1  A    between atoms: C_1  and  N_3
REMARK    2  A    between atoms: C_1  and  C_15
REMARK    3  A    between atoms: C_1  and  C_26
REMARK    4  A    between atoms: C_4  and  O_6
REMARK    5  A    between atoms: O_6  and  C_7
REMARK    6  A    between atoms: C_7  and  C_8
REMARK    7  A    between atoms: C_15  and  O_16
REMARK    8  A    between atoms: O_16  and  C_17
REMARK    9  A    between atoms: C_22  and  N_25
REMARK   10  A    between atoms: C_26  and  C_27
REMARK   11  A    between atoms: C_27  and  C_28
REMARK   12  A    between atoms: C_28  and  N_29
REMARK   13  A    between atoms: N_29  and  C_32
REMARK                            x       y       z     vdW  Elec       q    Type
REMARK                         _______ _______ _______ _____ _____    ______ ____
ROOT
ATOM      1  C   UNL     1     -36.332  25.033   4.471  0.00  0.00    +0.174 C 
ENDROOT
BRANCH   1   3
ATOM      2  O   UNL     1     -36.852  26.351   1.934  0.00  0.00    -0.226 OA
ATOM      3  N   UNL     1     -37.591  25.526   3.974  0.00  0.00    -0.262 N 
ATOM      4  C   UNL     1     -37.746  26.143   2.748  0.00  0.00    +0.402 C 
ATOM      5  H   UNL     1     -38.388  25.417   4.541  0.00  0.00    +0.153 HD
BRANCH   4   6
ATOM      6  O   UNL     1     -39.054  26.495   2.567  0.00  0.00    -0.430 OA
BRANCH   6   7
ATOM      7  C   UNL     1     -40.024  25.518   2.960  0.00  0.00    +0.237 C 
BRANCH   7   8
ATOM      8  C   UNL     1     -41.393  26.125   2.875  0.00  0.00    +0.021 C 
ATOM      9  C   UNL     1     -41.838  26.986   3.879  0.00  0.00    -0.001 C 
ATOM     10  C   UNL     1     -42.222  25.830   1.793  0.00  0.00    -0.001 C 
ATOM     11  C   UNL     1     -43.111  27.550   3.801  0.00  0.00    -0.000 C 
ATOM     12  C   UNL     1     -43.495  26.395   1.714  0.00  0.00    -0.000 C 
ATOM     13  C   UNL     1     -43.940  27.255   2.718  0.00  0.00    -0.000 C 
ENDBRANCH   7   8
ENDBRANCH   6   7
ENDBRANCH   4   6
ENDBRANCH   1   3
BRANCH   1  15
ATOM     14  O   UNL     1     -35.865  22.992   5.684  0.00  0.00    -0.248 OA
ATOM     15  C   UNL     1     -36.343  23.525   4.687  0.00  0.00    +0.340 C 
BRANCH  15  16
ATOM     16  O   UNL     1     -36.955  22.867   3.627  0.00  0.00    -0.423 OA
BRANCH  16  17
ATOM     17  C   UNL     1     -36.046  22.253   2.763  0.00  0.00    +0.149 C 
ATOM     18  C   UNL     1     -35.766  20.893   2.895  0.00  0.00    +0.039 C 
ATOM     19  C   UNL     1     -35.416  23.000   1.766  0.00  0.00    +0.039 C 
ATOM     20  C   UNL     1     -34.859  20.279   2.032  0.00  0.00    +0.027 C 
ATOM     21  C   UNL     1     -34.509  22.386   0.904  0.00  0.00    +0.027 C 
ATOM     22  C   UNL     1     -34.230  21.026   1.036  0.00  0.00    +0.143 C 
BRANCH  22  25
ATOM     23  O   UNL     1     -33.622  20.249  -1.049  0.00  0.00    -0.126 OA
ATOM     24  O   UNL     1     -32.200  20.019   0.608  0.00  0.00    -0.126 OA
ATOM     25  N   UNL     1     -33.306  20.401   0.156  0.00  0.00    +0.058 N 
ENDBRANCH  22  25
ENDBRANCH  16  17
ENDBRANCH  15  16
ENDBRANCH   1  15
BRANCH   1  26
ATOM     26  C   UNL     1     -35.898  25.778   5.739  0.00  0.00    +0.033 C 
BRANCH  26  27
ATOM     27  C   UNL     1     -34.386  26.021   5.829  0.00  0.00    +0.029 C 
BRANCH  27  28
ATOM     28  C   UNL     1     -33.774  26.206   4.444  0.00  0.00    +0.129 C 
BRANCH  28  29
ATOM     29  N   UNL     1     -33.694  27.638   4.149  0.00  0.00    -0.240 NA
BRANCH  29  32
ATOM     30  N   UNL     1     -34.028  27.736   1.772  0.00  0.00    -0.370 N 
ATOM     31  N   UNL     1     -35.381  28.906   3.188  0.00  0.00    -0.370 N 
ATOM     32  C   UNL     1     -34.309  28.050   3.084  0.00  0.00    +0.189 C 
ATOM     33  H   UNL     1     -33.282  27.130   1.560  0.00  0.00    +0.159 HD
ATOM     34  H   UNL     1     -34.575  28.118   1.048  0.00  0.00    +0.159 HD
ATOM     35  H   UNL     1     -35.685  29.208   4.073  0.00  0.00    +0.159 HD
ATOM     36  H   UNL     1     -35.844  29.215   2.376  0.00  0.00    +0.159 HD
ENDBRANCH  29  32
ENDBRANCH  28  29
ENDBRANCH  27  28
ENDBRANCH  26  27
ENDBRANCH   1  26
TORSDOF 13
ENDMDL
MODEL 6
REMARK VINA RESULT:      -6.1      1.745      2.773
REMARK  Name = 191867
REMARK  13 active torsions:
REMARK  status: ('A' for Active; 'I' for Inactive)
REMARK    1  A    between atoms: C_1  and  N_3
REMARK    2  A    between atoms: C_1  and  C_15
REMARK    3  A    between atoms: C_1  and  C_26
REMARK    4  A    between atoms: C_4  and  O_6
REMARK    5  A    between atoms: O_6  and  C_7
REMARK    6  A    between atoms: C_7  and  C_8
REMARK    7  A    between atoms: C_15  and  O_16
REMARK    8  A    between atoms: O_16  and  C_17
REMARK    9  A    between atoms: C_22  and  N_25
REMARK   10  A    between atoms: C_26  and  C_27
REMARK   11  A    between atoms: C_27  and  C_28
REMARK   12  A    between atoms: C_28  and  N_29
REMARK   13  A    between atoms: N_29  and  C_32
REMARK                            x       y       z     vdW  Elec       q    Type
REMARK                         _______ _______ _______ _____ _____    ______ ____
ROOT
ATOM      1  C   UNL     1     -34.443  28.376   2.882  0.00  0.00    +0.174 C 
ENDROOT
BRANCH   1   3
ATOM      2  O   UNL     1     -32.924  26.453   4.443  0.00  0.00    -0.226 OA
ATOM      3  N   UNL     1     -34.868  27.660   4.057  0.00  0.00    -0.262 N 
ATOM      4  C   UNL     1     -34.074  26.760   4.740  0.00  0.00    +0.402 C 
ATOM      5  H   UNL     1     -35.779  27.823   4.395  0.00  0.00    +0.153 HD
BRANCH   4   6
ATOM      6  O   UNL     1     -34.760  26.250   5.807  0.00  0.00    -0.430 OA
BRANCH   6   7
ATOM      7  C   UNL     1     -36.010  25.622   5.503  0.00  0.00    +0.237 C 
BRANCH   7   8
ATOM      8  C   UNL     1     -35.761  24.189   5.136  0.00  0.00    +0.021 C 
ATOM      9  C   UNL     1     -35.347  23.281   6.110  0.00  0.00    -0.001 C 
ATOM     10  C   UNL     1     -35.944  23.764   3.819  0.00  0.00    -0.001 C 
ATOM     11  C   UNL     1     -35.115  21.949   5.769  0.00  0.00    -0.000 C 
ATOM     12  C   UNL     1     -35.713  22.431   3.478  0.00  0.00    -0.000 C 
ATOM     13  C   UNL     1     -35.298  21.524   4.452  0.00  0.00    -0.000 C 
ENDBRANCH   7   8
ENDBRANCH   6   7
ENDBRANCH   4   6
ENDBRANCH   1   3
BRANCH   1  15
ATOM     14  O   UNL     1     -35.060  30.605   3.592  0.00  0.00    -0.248 OA
ATOM     15  C   UNL     1     -34.193  29.853   3.159  0.00  0.00    +0.340 C 
BRANCH  15  16
ATOM     16  O   UNL     1     -32.882  30.207   2.864  0.00  0.00    -0.423 OA
BRANCH  16  17
ATOM     17  C   UNL     1     -31.964  29.758   3.816  0.00  0.00    +0.149 C 
ATOM     18  C   UNL     1     -32.155  30.057   5.165  0.00  0.00    +0.039 C 
ATOM     19  C   UNL     1     -30.856  29.010   3.418  0.00  0.00    +0.039 C 
ATOM     20  C   UNL     1     -31.240  29.608   6.117  0.00  0.00    +0.027 C 
ATOM     21  C   UNL     1     -29.939  28.562   4.369  0.00  0.00    +0.027 C 
ATOM     22  C   UNL     1     -30.131  28.861   5.718  0.00  0.00    +0.143 C 
BRANCH  22  25
ATOM     23  O   UNL     1     -28.876  27.190   6.695  0.00  0.00    -0.126 OA
ATOM     24  O   UNL     1     -28.721  29.224   7.507  0.00  0.00    -0.126 OA
ATOM     25  N   UNL     1     -29.198  28.403   6.686  0.00  0.00    +0.058 N 
ENDBRANCH  22  25
ENDBRANCH  16  17
ENDBRANCH  15  16
ENDBRANCH   1  15
BRANCH   1  26
ATOM     26  C   UNL     1     -35.424  28.182   1.720  0.00  0.00    +0.033 C 
BRANCH  26  27
ATOM     27  C   UNL     1     -35.711  26.713   1.389  0.00  0.00    +0.029 C 
BRANCH  27  28
ATOM     28  C   UNL     1     -34.629  26.129   0.487  0.00  0.00    +0.129 C 
BRANCH  28  29
ATOM     29  N   UNL     1     -33.679  25.380   1.311  0.00  0.00    -0.240 NA
BRANCH  29  32
ATOM     30  N   UNL     1     -31.375  25.808   1.838  0.00  0.00    -0.370 N 
ATOM     31  N   UNL     1     -32.005  25.290  -0.291  0.00  0.00    -0.370 N 
ATOM     32  C   UNL     1     -32.424  25.493   1.003  0.00  0.00    +0.189 C 
ATOM     33  H   UNL     1     -31.540  25.978   2.794  0.00  0.00    +0.159 HD
ATOM     34  H   UNL     1     -30.460  25.863   1.479  0.00  0.00    +0.159 HD
ATOM     35  H   UNL     1     -32.658  25.058  -0.989  0.00  0.00    +0.159 HD
ATOM     36  H   UNL     1     -31.051  25.376  -0.519  0.00  0.00    +0.159 HD
ENDBRANCH  29  32
ENDBRANCH  28  29
ENDBRANCH  27  28
ENDBRANCH  26  27
ENDBRANCH   1  26
TORSDOF 13
ENDMDL
MODEL 7
REMARK VINA RESULT:      -6.1      4.512      8.640
REMARK  Name = 191867
REMARK  13 active torsions:
REMARK  status: ('A' for Active; 'I' for Inactive)
REMARK    1  A    between atoms: C_1  and  N_3
REMARK    2  A    between atoms: C_1  and  C_15
REMARK    3  A    between atoms: C_1  and  C_26
REMARK    4  A    between atoms: C_4  and  O_6
REMARK    5  A    between atoms: O_6  and  C_7
REMARK    6  A    between atoms: C_7  and  C_8
REMARK    7  A    between atoms: C_15  and  O_16
REMARK    8  A    between atoms: O_16  and  C_17
REMARK    9  A    between atoms: C_22  and  N_25
REMARK   10  A    between atoms: C_26  and  C_27
REMARK   11  A    between atoms: C_27  and  C_28
REMARK   12  A    between atoms: C_28  and  N_29
REMARK   13  A    between atoms: N_29  and  C_32
REMARK                            x       y       z     vdW  Elec       q    Type
REMARK                         _______ _______ _______ _____ _____    ______ ____
ROOT
ATOM      1  C   UNL     1     -36.424  22.544   3.504  0.00  0.00    +0.174 C 
ENDROOT
BRANCH   1   3
ATOM      2  O   UNL     1     -37.532  20.742   1.512  0.00  0.00    -0.226 OA
ATOM      3  N   UNL     1     -35.721  21.838   2.464  0.00  0.00    -0.262 N 
ATOM      4  C   UNL     1     -36.333  20.997   1.555  0.00  0.00    +0.402 C 
ATOM      5  H   UNL     1     -34.747  21.962   2.396  0.00  0.00    +0.153 HD
BRANCH   4   6
ATOM      6  O   UNL     1     -35.400  20.481   0.699  0.00  0.00    -0.430 OA
BRANCH   6   7
ATOM      7  C   UNL     1     -34.129  21.140   0.688  0.00  0.00    +0.237 C 
BRANCH   7   8
ATOM      8  C   UNL     1     -33.042  20.106   0.673  0.00  0.00    +0.021 C 
ATOM      9  C   UNL     1     -33.226  18.890   1.332  0.00  0.00    -0.001 C 
ATOM     10  C   UNL     1     -31.846  20.360   0.001  0.00  0.00    -0.001 C 
ATOM     11  C   UNL     1     -32.216  17.929   1.319  0.00  0.00    -0.000 C 
ATOM     12  C   UNL     1     -30.836  19.398  -0.013  0.00  0.00    -0.000 C 
ATOM     13  C   UNL     1     -31.020  18.183   0.646  0.00  0.00    -0.000 C 
ENDBRANCH   7   8
ENDBRANCH   6   7
ENDBRANCH   4   6
ENDBRANCH   1   3
BRANCH   1  15
ATOM     14  O   UNL     1     -36.312  24.559   2.170  0.00  0.00    -0.248 OA
ATOM     15  C   UNL     1     -36.871  23.933   3.064  0.00  0.00    +0.340 C 
BRANCH  15  16
ATOM     16  O   UNL     1     -37.969  24.366   3.797  0.00  0.00    -0.423 OA
BRANCH  16  17
ATOM     17  C   UNL     1     -39.117  24.535   3.020  0.00  0.00    +0.149 C 
ATOM     18  C   UNL     1     -39.546  23.509   2.177  0.00  0.00    +0.039 C 
ATOM     19  C   UNL     1     -39.834  25.729   3.085  0.00  0.00    +0.039 C 
ATOM     20  C   UNL     1     -40.693  23.676   1.401  0.00  0.00    +0.027 C 
ATOM     21  C   UNL     1     -40.980  25.897   2.309  0.00  0.00    +0.027 C 
ATOM     22  C   UNL     1     -41.410  24.872   1.466  0.00  0.00    +0.143 C 
BRANCH  22  25
ATOM     23  O   UNL     1     -42.907  26.201   0.321  0.00  0.00    -0.126 OA
ATOM     24  O   UNL     1     -43.248  24.032   0.355  0.00  0.00    -0.126 OA
ATOM     25  N   UNL     1     -42.578  25.043   0.676  0.00  0.00    +0.058 N 
ENDBRANCH  22  25
ENDBRANCH  16  17
ENDBRANCH  15  16
ENDBRANCH   1  15
BRANCH   1  26
ATOM     26  C   UNL     1     -35.604  22.602   4.798  0.00  0.00    +0.033 C 
BRANCH  26  27
ATOM     27  C   UNL     1     -34.462  23.626   4.763  0.00  0.00    +0.029 C 
BRANCH  27  28
ATOM     28  C   UNL     1     -34.624  24.670   5.863  0.00  0.00    +0.129 C 
BRANCH  28  29
ATOM     29  N   UNL     1     -34.353  25.994   5.302  0.00  0.00    -0.240 NA
BRANCH  29  32
ATOM     30  N   UNL     1     -35.370  27.383   3.627  0.00  0.00    -0.370 N 
ATOM     31  N   UNL     1     -36.596  26.576   5.371  0.00  0.00    -0.370 N 
ATOM     32  C   UNL     1     -35.358  26.622   4.775  0.00  0.00    +0.189 C 
ATOM     33  H   UNL     1     -34.544  27.497   3.103  0.00  0.00    +0.159 HD
ATOM     34  H   UNL     1     -36.205  27.812   3.329  0.00  0.00    +0.159 HD
ATOM     35  H   UNL     1     -36.723  26.064   6.201  0.00  0.00    +0.159 HD
ATOM     36  H   UNL     1     -37.355  27.054   4.966  0.00  0.00    +0.159 HD
ENDBRANCH  29  32
ENDBRANCH  28  29
ENDBRANCH  27  28
ENDBRANCH  26  27
ENDBRANCH   1  26
TORSDOF 13
ENDMDL
MODEL 8
REMARK VINA RESULT:      -6.1      2.478      6.459
REMARK  Name = 191867
REMARK  13 active torsions:
REMARK  status: ('A' for Active; 'I' for Inactive)
REMARK    1  A    between atoms: C_1  and  N_3
REMARK    2  A    between atoms: C_1  and  C_15
REMARK    3  A    between atoms: C_1  and  C_26
REMARK    4  A    between atoms: C_4  and  O_6
REMARK    5  A    between atoms: O_6  and  C_7
REMARK    6  A    between atoms: C_7  and  C_8
REMARK    7  A    between atoms: C_15  and  O_16
REMARK    8  A    between atoms: O_16  and  C_17
REMARK    9  A    between atoms: C_22  and  N_25
REMARK   10  A    between atoms: C_26  and  C_27
REMARK   11  A    between atoms: C_27  and  C_28
REMARK   12  A    between atoms: C_28  and  N_29
REMARK   13  A    between atoms: N_29  and  C_32
REMARK                            x       y       z     vdW  Elec       q    Type
REMARK                         _______ _______ _______ _____ _____    ______ ____
ROOT
ATOM      1  C   UNL     1     -33.759  28.498   2.575  0.00  0.00    +0.174 C 
ENDROOT
BRANCH   1   3
ATOM      2  O   UNL     1     -35.248  27.456   0.308  0.00  0.00    -0.226 OA
ATOM      3  N   UNL     1     -35.180  28.565   2.346  0.00  0.00    -0.262 N 
ATOM      4  C   UNL     1     -35.806  28.038   1.233  0.00  0.00    +0.402 C 
ATOM      5  H   UNL     1     -35.738  29.012   3.023  0.00  0.00    +0.153 HD
BRANCH   4   6
ATOM      6  O   UNL     1     -37.152  28.262   1.308  0.00  0.00    -0.430 OA
BRANCH   6   7
ATOM      7  C   UNL     1     -37.977  27.372   0.548  0.00  0.00    +0.237 C 
BRANCH   7   8
ATOM      8  C   UNL     1     -38.136  26.086   1.306  0.00  0.00    +0.021 C 
ATOM      9  C   UNL     1     -38.038  24.866   0.638  0.00  0.00    -0.001 C 
ATOM     10  C   UNL     1     -38.384  26.111   2.679  0.00  0.00    -0.001 C 
ATOM     11  C   UNL     1     -38.186  23.671   1.341  0.00  0.00    -0.000 C 
ATOM     12  C   UNL     1     -38.532  24.916   3.383  0.00  0.00    -0.000 C 
ATOM     13  C   UNL     1     -38.434  23.696   2.714  0.00  0.00    -0.000 C 
ENDBRANCH   7   8
ENDBRANCH   6   7
ENDBRANCH   4   6
ENDBRANCH   1   3
BRANCH   1  15
ATOM     14  O   UNL     1     -32.244  27.233   3.973  0.00  0.00    -0.248 OA
ATOM     15  C   UNL     1     -33.398  27.564   3.723  0.00  0.00    +0.340 C 
BRANCH  15  16
ATOM     16  O   UNL     1     -34.530  27.160   4.420  0.00  0.00    -0.423 OA
BRANCH  16  17
ATOM     17  C   UNL     1     -34.736  25.779   4.381  0.00  0.00    +0.149 C 
ATOM     18  C   UNL     1     -34.691  25.102   3.162  0.00  0.00    +0.039 C 
ATOM     19  C   UNL     1     -34.987  25.077   5.560  0.00  0.00    +0.039 C 
ATOM     20  C   UNL     1     -34.896  23.723   3.121  0.00  0.00    +0.027 C 
ATOM     21  C   UNL     1     -35.192  23.698   5.519  0.00  0.00    +0.027 C 
ATOM     22  C   UNL     1     -35.147  23.021   4.301  0.00  0.00    +0.143 C 
BRANCH  22  25
ATOM     23  O   UNL     1     -35.673  21.080   3.172  0.00  0.00    -0.126 OA
ATOM     24  O   UNL     1     -35.215  20.951   5.315  0.00  0.00    -0.126 OA
ATOM     25  N   UNL     1     -35.355  21.616   4.261  0.00  0.00    +0.058 N 
ENDBRANCH  22  25
ENDBRANCH  16  17
ENDBRANCH  15  16
ENDBRANCH   1  15
BRANCH   1  26
ATOM     26  C   UNL     1     -33.156  29.893   2.776  0.00  0.00    +0.033 C 
BRANCH  26  27
ATOM     27  C   UNL     1     -33.323  30.442   4.198  0.00  0.00    +0.029 C 
BRANCH  27  28
ATOM     28  C   UNL     1     -31.970  30.670   4.864  0.00  0.00    +0.129 C 
BRANCH  28  29
ATOM     29  N   UNL     1     -32.112  30.468   6.307  0.00  0.00    -0.240 NA
BRANCH  29  32
ATOM     30  N   UNL     1     -32.283  28.168   6.976  0.00  0.00    -0.370 N 
ATOM     31  N   UNL     1     -30.317  29.301   7.197  0.00  0.00    -0.370 N 
ATOM     32  C   UNL     1     -31.630  29.366   6.792  0.00  0.00    +0.189 C 
ATOM     33  H   UNL     1     -33.231  28.080   6.726  0.00  0.00    +0.159 HD
ATOM     34  H   UNL     1     -31.801  27.398   7.358  0.00  0.00    +0.159 HD
ATOM     35  H   UNL     1     -29.739  30.093   7.119  0.00  0.00    +0.159 HD
ATOM     36  H   UNL     1     -29.957  28.462   7.564  0.00  0.00    +0.159 HD
ENDBRANCH  29  32
ENDBRANCH  28  29
ENDBRANCH  27  28
ENDBRANCH  26  27
ENDBRANCH   1  26
TORSDOF 13
ENDMDL
MODEL 9
REMARK VINA RESULT:      -6.1      4.211      7.210
REMARK  Name = 191867
REMARK  13 active torsions:
REMARK  status: ('A' for Active; 'I' for Inactive)
REMARK    1  A    between atoms: C_1  and  N_3
REMARK    2  A    between atoms: C_1  and  C_15
REMARK    3  A    between atoms: C_1  and  C_26
REMARK    4  A    between atoms: C_4  and  O_6
REMARK    5  A    between atoms: O_6  and  C_7
REMARK    6  A    between atoms: C_7  and  C_8
REMARK    7  A    between atoms: C_15  and  O_16
REMARK    8  A    between atoms: O_16  and  C_17
REMARK    9  A    between atoms: C_22  and  N_25
REMARK   10  A    between atoms: C_26  and  C_27
REMARK   11  A    between atoms: C_27  and  C_28
REMARK   12  A    between atoms: C_28  and  N_29
REMARK   13  A    between atoms: N_29  and  C_32
REMARK                            x       y       z     vdW  Elec       q    Type
REMARK                         _______ _______ _______ _____ _____    ______ ____
ROOT
ATOM      1  C   UNL     1     -35.809  20.800   1.756  0.00  0.00    +0.174 C 
ENDROOT
BRANCH   1   3
ATOM      2  O   UNL     1     -38.249  20.180   0.306  0.00  0.00    -0.226 OA
ATOM      3  N   UNL     1     -36.596  21.683   0.933  0.00  0.00    -0.262 N 
ATOM      4  C   UNL     1     -37.750  21.300   0.277  0.00  0.00    +0.402 C 
ATOM      5  H   UNL     1     -36.293  22.614   0.832  0.00  0.00    +0.153 HD
BRANCH   4   6
ATOM      6  O   UNL     1     -38.262  22.359  -0.418  0.00  0.00    -0.430 OA
BRANCH   6   7
ATOM      7  C   UNL     1     -39.427  22.972   0.145  0.00  0.00    +0.237 C 
BRANCH   7   8
ATOM      8  C   UNL     1     -39.001  24.012   1.139  0.00  0.00    +0.021 C 
ATOM      9  C   UNL     1     -39.519  23.994   2.434  0.00  0.00    -0.001 C 
ATOM     10  C   UNL     1     -38.088  24.999   0.768  0.00  0.00    -0.001 C 
ATOM     11  C   UNL     1     -39.124  24.961   3.358  0.00  0.00    -0.000 C 
ATOM     12  C   UNL     1     -37.692  25.966   1.692  0.00  0.00    -0.000 C 
ATOM     13  C   UNL     1     -38.210  25.947   2.986  0.00  0.00    -0.000 C 
ENDBRANCH   7   8
ENDBRANCH   6   7
ENDBRANCH   4   6
ENDBRANCH   1   3
BRANCH   1  15
ATOM     14  O   UNL     1     -35.111  20.660   4.068  0.00  0.00    -0.248 OA
ATOM     15  C   UNL     1     -35.738  21.266   3.205  0.00  0.00    +0.340 C 
BRANCH  15  16
ATOM     16  O   UNL     1     -36.459  22.438   3.395  0.00  0.00    -0.423 OA
BRANCH  16  17
ATOM     17  C   UNL     1     -35.673  23.498   3.854  0.00  0.00    +0.149 C 
ATOM     18  C   UNL     1     -35.804  23.944   5.169  0.00  0.00    +0.039 C 
ATOM     19  C   UNL     1     -34.757  24.109   2.998  0.00  0.00    +0.039 C 
ATOM     20  C   UNL     1     -35.019  25.001   5.629  0.00  0.00    +0.027 C 
ATOM     21  C   UNL     1     -33.972  25.167   3.458  0.00  0.00    +0.027 C 
ATOM     22  C   UNL     1     -34.103  25.613   4.773  0.00  0.00    +0.143 C 
BRANCH  22  25
ATOM     23  O   UNL     1     -33.364  27.011   6.452  0.00  0.00    -0.126 OA
ATOM     24  O   UNL     1     -32.556  27.289   4.430  0.00  0.00    -0.126 OA
ATOM     25  N   UNL     1     -33.303  26.689   5.240  0.00  0.00    +0.058 N 
ENDBRANCH  22  25
ENDBRANCH  16  17
ENDBRANCH  15  16
ENDBRANCH   1  15
BRANCH   1  26
ATOM     26  C   UNL     1     -34.410  20.581   1.168  0.00  0.00    +0.033 C 
BRANCH  26  27
ATOM     27  C   UNL     1     -33.922  19.130   1.254  0.00  0.00    +0.029 C 
BRANCH  27  28
ATOM     28  C   UNL     1     -33.808  18.503  -0.132  0.00  0.00    +0.129 C 
BRANCH  28  29
ATOM     29  N   UNL     1     -34.771  17.406  -0.236  0.00  0.00    -0.240 NA
BRANCH  29  32
ATOM     30  N   UNL     1     -37.088  17.438   0.400  0.00  0.00    -0.370 N 
ATOM     31  N   UNL     1     -36.391  18.466  -1.512  0.00  0.00    -0.370 N 
ATOM     32  C   UNL     1     -36.014  17.735  -0.410  0.00  0.00    +0.189 C 
ATOM     33  H   UNL     1     -36.953  16.917   1.224  0.00  0.00    +0.159 HD
ATOM     34  H   UNL     1     -37.990  17.748   0.155  0.00  0.00    +0.159 HD
ATOM     35  H   UNL     1     -35.717  18.744  -2.172  0.00  0.00    +0.159 HD
ATOM     36  H   UNL     1     -37.335  18.713  -1.639  0.00  0.00    +0.159 HD
ENDBRANCH  29  32
ENDBRANCH  28  29
ENDBRANCH  27  28
ENDBRANCH  26  27
ENDBRANCH   1  26
TORSDOF 13
ENDMDL
