MODEL 1
REMARK VINA RESULT:      -7.0      0.000      0.000
REMARK  Name = 5289081
REMARK  6 active torsions:
REMARK  status: ('A' for Active; 'I' for Inactive)
REMARK    1  A    between atoms: C_5  and  C_18
REMARK    2  A    between atoms: C_15  and  O_32
REMARK    3  A    between atoms: C_19  and  C_25
REMARK    4  A    between atoms: C_23  and  C_29
REMARK    5  A    between atoms: C_25  and  O_26
REMARK    6  A    between atoms: C_29  and  O_30
REMARK                            x       y       z     vdW  Elec       q    Type
REMARK                         _______ _______ _______ _____ _____    ______ ____
ROOT
ATOM      1  F   UNL     1     -33.852  25.148   4.837  0.00  0.00    -0.201 F 
ATOM      2  F   UNL     1     -39.133  19.342  -0.881  0.00  0.00    -0.201 F 
ATOM      3  O   UNL     1     -38.646  23.634   2.644  0.00  0.00    -0.474 OA
ATOM      4  O   UNL     1     -41.259  20.849  -0.112  0.00  0.00    -0.288 OA
ATOM      5  C   UNL     1     -36.334  22.109   1.905  0.00  0.00    +0.003 C 
ATOM      6  C   UNL     1     -36.261  23.262   2.839  0.00  0.00    +0.024 C 
ATOM      7  C   UNL     1     -37.554  21.786   1.395  0.00  0.00    +0.032 C 
ATOM      8  C   UNL     1     -37.422  23.965   3.160  0.00  0.00    +0.213 C 
ATOM      9  C   UNL     1     -38.751  22.562   1.768  0.00  0.00    +0.125 C 
ATOM     10  C   UNL     1     -35.053  23.681   3.421  0.00  0.00    +0.032 C 
ATOM     11  C   UNL     1     -37.741  20.665   0.463  0.00  0.00    +0.035 C 
ATOM     12  C   UNL     1     -37.393  25.054   4.035  0.00  0.00    +0.060 C 
ATOM     13  C   UNL     1     -39.964  22.261   1.278  0.00  0.00    +0.135 C 
ATOM     14  C   UNL     1     -35.018  24.770   4.296  0.00  0.00    +0.173 C 
ATOM     15  C   UNL     1     -36.188  25.457   4.604  0.00  0.00    +0.161 C 
ATOM     16  C   UNL     1     -38.947  20.365  -0.025  0.00  0.00    +0.175 C 
ATOM     17  C   UNL     1     -40.155  21.131   0.337  0.00  0.00    +0.208 C 
ENDROOT
BRANCH   5  18
ATOM     18  C   UNL     1     -35.156  21.324   1.520  0.00  0.00    +0.006 C 
ATOM     19  C   UNL     1     -34.305  21.752   0.509  0.00  0.00    +0.076 C 
ATOM     20  C   UNL     1     -34.912  20.132   2.195  0.00  0.00    +0.000 C 
ATOM     21  C   UNL     1     -33.194  20.980   0.168  0.00  0.00    +0.013 C 
ATOM     22  C   UNL     1     -33.802  19.361   1.854  0.00  0.00    +0.006 C 
ATOM     23  C   UNL     1     -32.943  19.785   0.840  0.00  0.00    +0.076 C 
BRANCH  19  25
ATOM     24  O   UNL     1     -34.090  24.099   0.101  0.00  0.00    -0.245 OA
ATOM     25  C   UNL     1     -34.534  22.995  -0.220  0.00  0.00    +0.338 C 
BRANCH  25  26
ATOM     26  O   UNL     1     -35.304  22.812  -1.325  0.00  0.00    -0.477 OA
ATOM     27  H   UNL     1     -36.114  23.274  -1.413  0.00  0.00    +0.295 HD
ENDBRANCH  25  26
ENDBRANCH  19  25
BRANCH  23  29
ATOM     28  O   UNL     1     -30.983  19.237  -0.419  0.00  0.00    -0.245 OA
ATOM     29  C   UNL     1     -31.784  18.980   0.486  0.00  0.00    +0.338 C 
BRANCH  29  30
ATOM     30  O   UNL     1     -31.659  17.874   1.270  0.00  0.00    -0.477 OA
ATOM     31  H   UNL     1     -32.198  17.775   2.029  0.00  0.00    +0.295 HD
ENDBRANCH  29  30
ENDBRANCH  23  29
ENDBRANCH   5  18
BRANCH  15  32
ATOM     32  O   UNL     1     -36.157  26.518   5.455  0.00  0.00    -0.504 OA
ATOM     33  H   UNL     1     -36.244  27.389   5.122  0.00  0.00    +0.292 HD
ENDBRANCH  15  32
TORSDOF 6
ENDMDL
MODEL 2
REMARK VINA RESULT:      -6.7      0.222      4.815
REMARK  Name = 5289081
REMARK  6 active torsions:
REMARK  status: ('A' for Active; 'I' for Inactive)
REMARK    1  A    between atoms: C_5  and  C_18
REMARK    2  A    between atoms: C_15  and  O_32
REMARK    3  A    between atoms: C_19  and  C_25
REMARK    4  A    between atoms: C_23  and  C_29
REMARK    5  A    between atoms: C_25  and  O_26
REMARK    6  A    between atoms: C_29  and  O_30
REMARK                            x       y       z     vdW  Elec       q    Type
REMARK                         _______ _______ _______ _____ _____    ______ ____
ROOT
ATOM      1  F   UNL     1     -39.443  19.619  -0.910  0.00  0.00    -0.201 F 
ATOM      2  F   UNL     1     -33.599  24.862   4.805  0.00  0.00    -0.201 F 
ATOM      3  O   UNL     1     -38.607  23.715   2.640  0.00  0.00    -0.474 OA
ATOM      4  O   UNL     1     -35.821  26.294   5.427  0.00  0.00    -0.288 OA
ATOM      5  C   UNL     1     -36.328  22.139   1.908  0.00  0.00    +0.003 C 
ATOM      6  C   UNL     1     -37.684  21.877   1.363  0.00  0.00    +0.024 C 
ATOM      7  C   UNL     1     -36.189  23.170   2.786  0.00  0.00    +0.032 C 
ATOM      8  C   UNL     1     -38.755  22.680   1.758  0.00  0.00    +0.213 C 
ATOM      9  C   UNL     1     -37.353  23.989   3.171  0.00  0.00    +0.125 C 
ATOM     10  C   UNL     1     -37.940  20.838   0.452  0.00  0.00    +0.032 C 
ATOM     11  C   UNL     1     -34.893  23.517   3.387  0.00  0.00    +0.035 C 
ATOM     12  C   UNL     1     -40.045  22.464   1.266  0.00  0.00    +0.060 C 
ATOM     13  C   UNL     1     -37.240  25.010   4.033  0.00  0.00    +0.135 C 
ATOM     14  C   UNL     1     -39.228  20.618  -0.043  0.00  0.00    +0.173 C 
ATOM     15  C   UNL     1     -40.282  21.431   0.364  0.00  0.00    +0.161 C 
ATOM     16  C   UNL     1     -34.779  24.533   4.246  0.00  0.00    +0.175 C 
ATOM     17  C   UNL     1     -35.933  25.362   4.641  0.00  0.00    +0.208 C 
ENDROOT
BRANCH   5  18
ATOM     18  C   UNL     1     -35.156  21.336   1.541  0.00  0.00    +0.006 C 
ATOM     19  C   UNL     1     -34.306  21.733   0.516  0.00  0.00    +0.076 C 
ATOM     20  C   UNL     1     -34.917  20.161   2.247  0.00  0.00    +0.000 C 
ATOM     21  C   UNL     1     -33.201  20.945   0.193  0.00  0.00    +0.013 C 
ATOM     22  C   UNL     1     -33.813  19.375   1.923  0.00  0.00    +0.006 C 
ATOM     23  C   UNL     1     -32.954  19.766   0.896  0.00  0.00    +0.076 C 
BRANCH  19  25
ATOM     24  O   UNL     1     -34.065  24.064   0.037  0.00  0.00    -0.245 OA
ATOM     25  C   UNL     1     -34.529  22.957  -0.245  0.00  0.00    +0.338 C 
BRANCH  25  26
ATOM     26  O   UNL     1     -35.320  22.753  -1.331  0.00  0.00    -0.477 OA
ATOM     27  H   UNL     1     -35.119  22.065  -1.935  0.00  0.00    +0.295 HD
ENDBRANCH  25  26
ENDBRANCH  19  25
BRANCH  23  29
ATOM     28  O   UNL     1     -30.937  19.232  -0.274  0.00  0.00    -0.245 OA
ATOM     29  C   UNL     1     -31.802  18.945   0.560  0.00  0.00    +0.338 C 
BRANCH  29  30
ATOM     30  O   UNL     1     -31.762  17.787   1.274  0.00  0.00    -0.477 OA
ATOM     31  H   UNL     1     -31.884  16.965   0.842  0.00  0.00    +0.295 HD
ENDBRANCH  29  30
ENDBRANCH  23  29
ENDBRANCH   5  18
BRANCH  15  32
ATOM     32  O   UNL     1     -41.536  21.218  -0.116  0.00  0.00    -0.504 OA
ATOM     33  H   UNL     1     -42.015  20.456   0.144  0.00  0.00    +0.292 HD
ENDBRANCH  15  32
TORSDOF 6
ENDMDL
MODEL 3
REMARK VINA RESULT:      -6.6      2.628      5.676
REMARK  Name = 5289081
REMARK  6 active torsions:
REMARK  status: ('A' for Active; 'I' for Inactive)
REMARK    1  A    between atoms: C_5  and  C_18
REMARK    2  A    between atoms: C_15  and  O_32
REMARK    3  A    between atoms: C_19  and  C_25
REMARK    4  A    between atoms: C_23  and  C_29
REMARK    5  A    between atoms: C_25  and  O_26
REMARK    6  A    between atoms: C_29  and  O_30
REMARK                            x       y       z     vdW  Elec       q    Type
REMARK                         _______ _______ _______ _____ _____    ______ ____
ROOT
ATOM      1  F   UNL     1     -33.609  19.767   1.956  0.00  0.00    -0.201 F 
ATOM      2  F   UNL     1     -40.369  26.628   3.192  0.00  0.00    -0.201 F 
ATOM      3  O   UNL     1     -38.683  21.705   1.191  0.00  0.00    -0.474 OA
ATOM      4  O   UNL     1     -42.001  25.000   1.756  0.00  0.00    -0.288 OA
ATOM      5  C   UNL     1     -36.873  23.346   2.690  0.00  0.00    +0.003 C 
ATOM      6  C   UNL     1     -36.476  22.026   2.135  0.00  0.00    +0.024 C 
ATOM      7  C   UNL     1     -38.147  23.768   2.466  0.00  0.00    +0.032 C 
ATOM      8  C   UNL     1     -37.404  21.274   1.414  0.00  0.00    +0.213 C 
ATOM      9  C   UNL     1     -39.088  22.934   1.695  0.00  0.00    +0.125 C 
ATOM     10  C   UNL     1     -35.187  21.494   2.310  0.00  0.00    +0.032 C 
ATOM     11  C   UNL     1     -38.645  25.056   2.969  0.00  0.00    +0.035 C 
ATOM     12  C   UNL     1     -37.067  20.029   0.876  0.00  0.00    +0.060 C 
ATOM     13  C   UNL     1     -40.348  23.330   1.461  0.00  0.00    +0.135 C 
ATOM     14  C   UNL     1     -34.846  20.249   1.774  0.00  0.00    +0.173 C 
ATOM     15  C   UNL     1     -35.786  19.516   1.057  0.00  0.00    +0.161 C 
ATOM     16  C   UNL     1     -39.899  25.452   2.736  0.00  0.00    +0.175 C 
ATOM     17  C   UNL     1     -40.853  24.630   1.968  0.00  0.00    +0.208 C 
ENDROOT
BRANCH   5  18
ATOM     18  C   UNL     1     -35.954  24.191   3.460  0.00  0.00    +0.006 C 
ATOM     19  C   UNL     1     -35.116  25.102   2.830  0.00  0.00    +0.076 C 
ATOM     20  C   UNL     1     -35.941  24.055   4.845  0.00  0.00    +0.000 C 
ATOM     21  C   UNL     1     -34.254  25.890   3.593  0.00  0.00    +0.013 C 
ATOM     22  C   UNL     1     -35.080  24.843   5.607  0.00  0.00    +0.006 C 
ATOM     23  C   UNL     1     -34.235  25.760   4.982  0.00  0.00    +0.076 C 
BRANCH  19  25
ATOM     24  O   UNL     1     -34.433  24.596   0.595  0.00  0.00    -0.245 OA
ATOM     25  C   UNL     1     -35.103  25.268   1.381  0.00  0.00    +0.338 C 
BRANCH  25  26
ATOM     26  O   UNL     1     -35.930  26.264   0.968  0.00  0.00    -0.477 OA
ATOM     27  H   UNL     1     -36.496  26.688   1.582  0.00  0.00    +0.295 HD
ENDBRANCH  25  26
ENDBRANCH  19  25
BRANCH  23  29
ATOM     28  O   UNL     1     -33.312  26.625   7.013  0.00  0.00    -0.245 OA
ATOM     29  C   UNL     1     -33.338  26.582   5.779  0.00  0.00    +0.338 C 
BRANCH  29  30
ATOM     30  O   UNL     1     -32.496  27.328   5.011  0.00  0.00    -0.477 OA
ATOM     31  H   UNL     1     -32.789  28.138   4.646  0.00  0.00    +0.295 HD
ENDBRANCH  29  30
ENDBRANCH  23  29
ENDBRANCH   5  18
BRANCH  15  32
ATOM     32  O   UNL     1     -35.456  18.304   0.536  0.00  0.00    -0.504 OA
ATOM     33  H   UNL     1     -34.731  18.227  -0.052  0.00  0.00    +0.292 HD
ENDBRANCH  15  32
TORSDOF 6
ENDMDL
MODEL 4
REMARK VINA RESULT:      -6.6      2.324      5.414
REMARK  Name = 5289081
REMARK  6 active torsions:
REMARK  status: ('A' for Active; 'I' for Inactive)
REMARK    1  A    between atoms: C_5  and  C_18
REMARK    2  A    between atoms: C_15  and  O_32
REMARK    3  A    between atoms: C_19  and  C_25
REMARK    4  A    between atoms: C_23  and  C_29
REMARK    5  A    between atoms: C_25  and  O_26
REMARK    6  A    between atoms: C_29  and  O_30
REMARK                            x       y       z     vdW  Elec       q    Type
REMARK                         _______ _______ _______ _____ _____    ______ ____
ROOT
ATOM      1  F   UNL     1     -32.036  18.677   1.483  0.00  0.00    -0.201 F 
ATOM      2  F   UNL     1     -40.428  23.563   1.441  0.00  0.00    -0.201 F 
ATOM      3  O   UNL     1     -37.271  19.220  -0.061  0.00  0.00    -0.474 OA
ATOM      4  O   UNL     1     -41.365  21.547  -0.119  0.00  0.00    -0.288 OA
ATOM      5  C   UNL     1     -36.175  21.294   1.585  0.00  0.00    +0.003 C 
ATOM      6  C   UNL     1     -35.380  20.116   1.157  0.00  0.00    +0.024 C 
ATOM      7  C   UNL     1     -37.468  21.368   1.168  0.00  0.00    +0.032 C 
ATOM      8  C   UNL     1     -35.970  19.139   0.355  0.00  0.00    +0.213 C 
ATOM      9  C   UNL     1     -38.045  20.308   0.321  0.00  0.00    +0.125 C 
ATOM     10  C   UNL     1     -34.037  19.939   1.531  0.00  0.00    +0.032 C 
ATOM     11  C   UNL     1     -38.346  22.490   1.534  0.00  0.00    +0.035 C 
ATOM     12  C   UNL     1     -35.253  18.016  -0.068  0.00  0.00    +0.060 C 
ATOM     13  C   UNL     1     -39.317  20.360  -0.102  0.00  0.00    +0.135 C 
ATOM     14  C   UNL     1     -33.316  18.818   1.111  0.00  0.00    +0.173 C 
ATOM     15  C   UNL     1     -33.923  17.856   0.311  0.00  0.00    +0.161 C 
ATOM     16  C   UNL     1     -39.612  22.543   1.113  0.00  0.00    +0.175 C 
ATOM     17  C   UNL     1     -40.204  21.491   0.265  0.00  0.00    +0.208 C 
ENDROOT
BRANCH   5  18
ATOM     18  C   UNL     1     -35.623  22.360   2.429  0.00  0.00    +0.006 C 
ATOM     19  C   UNL     1     -34.998  23.468   1.871  0.00  0.00    +0.076 C 
ATOM     20  C   UNL     1     -35.741  22.232   3.810  0.00  0.00    +0.000 C 
ATOM     21  C   UNL     1     -34.484  24.463   2.704  0.00  0.00    +0.013 C 
ATOM     22  C   UNL     1     -35.227  23.226   4.641  0.00  0.00    +0.006 C 
ATOM     23  C   UNL     1     -34.598  24.342   4.088  0.00  0.00    +0.076 C 
BRANCH  19  25
ATOM     24  O   UNL     1     -35.700  24.136  -0.316  0.00  0.00    -0.245 OA
ATOM     25  C   UNL     1     -34.856  23.632   0.429  0.00  0.00    +0.338 C 
BRANCH  25  26
ATOM     26  O   UNL     1     -33.665  23.165  -0.029  0.00  0.00    -0.477 OA
ATOM     27  H   UNL     1     -33.605  22.297  -0.377  0.00  0.00    +0.295 HD
ENDBRANCH  25  26
ENDBRANCH  19  25
BRANCH  23  29
ATOM     28  O   UNL     1     -34.524  25.699   6.058  0.00  0.00    -0.245 OA
ATOM     29  C   UNL     1     -34.063  25.379   4.957  0.00  0.00    +0.338 C 
BRANCH  29  30
ATOM     30  O   UNL     1     -32.968  25.988   4.426  0.00  0.00    -0.477 OA
ATOM     31  H   UNL     1     -32.116  25.630   4.572  0.00  0.00    +0.295 HD
ENDBRANCH  29  30
ENDBRANCH  23  29
ENDBRANCH   5  18
BRANCH  15  32
ATOM     32  O   UNL     1     -33.224  16.764  -0.099  0.00  0.00    -0.504 OA
ATOM     33  H   UNL     1     -32.442  16.870  -0.604  0.00  0.00    +0.292 HD
ENDBRANCH  15  32
TORSDOF 6
ENDMDL
MODEL 5
REMARK VINA RESULT:      -6.5      1.639      5.213
REMARK  Name = 5289081
REMARK  6 active torsions:
REMARK  status: ('A' for Active; 'I' for Inactive)
REMARK    1  A    between atoms: C_5  and  C_18
REMARK    2  A    between atoms: C_15  and  O_32
REMARK    3  A    between atoms: C_19  and  C_25
REMARK    4  A    between atoms: C_23  and  C_29
REMARK    5  A    between atoms: C_25  and  O_26
REMARK    6  A    between atoms: C_29  and  O_30
REMARK                            x       y       z     vdW  Elec       q    Type
REMARK                         _______ _______ _______ _____ _____    ______ ____
ROOT
ATOM      1  F   UNL     1     -39.838  20.995  -1.201  0.00  0.00    -0.201 F 
ATOM      2  F   UNL     1     -33.281  25.175   4.616  0.00  0.00    -0.201 F 
ATOM      3  O   UNL     1     -38.501  24.544   2.761  0.00  0.00    -0.474 OA
ATOM      4  O   UNL     1     -35.366  26.608   5.605  0.00  0.00    -0.288 OA
ATOM      5  C   UNL     1     -36.377  22.981   1.639  0.00  0.00    +0.003 C 
ATOM      6  C   UNL     1     -37.784  22.853   1.183  0.00  0.00    +0.024 C 
ATOM      7  C   UNL     1     -36.113  23.879   2.627  0.00  0.00    +0.032 C 
ATOM      8  C   UNL     1     -38.774  23.642   1.769  0.00  0.00    +0.213 C 
ATOM      9  C   UNL     1     -37.196  24.690   3.212  0.00  0.00    +0.125 C 
ATOM     10  C   UNL     1     -38.168  21.955   0.172  0.00  0.00    +0.032 C 
ATOM     11  C   UNL     1     -34.756  24.087   3.154  0.00  0.00    +0.035 C 
ATOM     12  C   UNL     1     -40.110  23.550   1.366  0.00  0.00    +0.060 C 
ATOM     13  C   UNL     1     -36.959  25.582   4.185  0.00  0.00    +0.135 C 
ATOM     14  C   UNL     1     -39.502  21.859  -0.234  0.00  0.00    +0.173 C 
ATOM     15  C   UNL     1     -40.473  22.656   0.362  0.00  0.00    +0.161 C 
ATOM     16  C   UNL     1     -34.518  24.975   4.123  0.00  0.00    +0.175 C 
ATOM     17  C   UNL     1     -35.591  25.794   4.718  0.00  0.00    +0.208 C 
ENDROOT
BRANCH   5  18
ATOM     18  C   UNL     1     -35.283  22.184   1.073  0.00  0.00    +0.006 C 
ATOM     19  C   UNL     1     -34.909  20.971   1.638  0.00  0.00    +0.076 C 
ATOM     20  C   UNL     1     -34.626  22.676  -0.051  0.00  0.00    +0.000 C 
ATOM     21  C   UNL     1     -33.865  20.239   1.073  0.00  0.00    +0.013 C 
ATOM     22  C   UNL     1     -33.582  21.944  -0.614  0.00  0.00    +0.006 C 
ATOM     23  C   UNL     1     -33.201  20.726  -0.053  0.00  0.00    +0.076 C 
BRANCH  19  25
ATOM     24  O   UNL     1     -35.201  20.581   3.979  0.00  0.00    -0.245 OA
ATOM     25  C   UNL     1     -35.576  20.428   2.816  0.00  0.00    +0.338 C 
BRANCH  25  26
ATOM     26  O   UNL     1     -36.690  19.717   2.497  0.00  0.00    -0.477 OA
ATOM     27  H   UNL     1     -36.918  19.581   1.598  0.00  0.00    +0.295 HD
ENDBRANCH  25  26
ENDBRANCH  19  25
BRANCH  23  29
ATOM     28  O   UNL     1     -31.934  19.787  -1.853  0.00  0.00    -0.245 OA
ATOM     29  C   UNL     1     -32.112  19.962  -0.643  0.00  0.00    +0.338 C 
BRANCH  29  30
ATOM     30  O   UNL     1     -31.275  19.439   0.295  0.00  0.00    -0.477 OA
ATOM     31  H   UNL     1     -30.763  20.006   0.835  0.00  0.00    +0.295 HD
ENDBRANCH  29  30
ENDBRANCH  23  29
ENDBRANCH   5  18
BRANCH  15  32
ATOM     32  O   UNL     1     -41.772  22.564  -0.031  0.00  0.00    -0.504 OA
ATOM     33  H   UNL     1     -42.188  21.726  -0.083  0.00  0.00    +0.292 HD
ENDBRANCH  15  32
TORSDOF 6
ENDMDL
MODEL 6
REMARK VINA RESULT:      -6.4      2.680      5.674
REMARK  Name = 5289081
REMARK  6 active torsions:
REMARK  status: ('A' for Active; 'I' for Inactive)
REMARK    1  A    between atoms: C_5  and  C_18
REMARK    2  A    between atoms: C_15  and  O_32
REMARK    3  A    between atoms: C_19  and  C_25
REMARK    4  A    between atoms: C_23  and  C_29
REMARK    5  A    between atoms: C_25  and  O_26
REMARK    6  A    between atoms: C_29  and  O_30
REMARK                            x       y       z     vdW  Elec       q    Type
REMARK                         _______ _______ _______ _____ _____    ______ ____
ROOT
ATOM      1  F   UNL     1     -31.955  19.194   1.121  0.00  0.00    -0.201 F 
ATOM      2  F   UNL     1     -40.098  24.470   1.510  0.00  0.00    -0.201 F 
ATOM      3  O   UNL     1     -37.328  19.809   0.210  0.00  0.00    -0.474 OA
ATOM      4  O   UNL     1     -41.309  22.322   0.371  0.00  0.00    -0.288 OA
ATOM      5  C   UNL     1     -35.947  22.018   1.406  0.00  0.00    +0.003 C 
ATOM      6  C   UNL     1     -35.259  20.754   1.040  0.00  0.00    +0.024 C 
ATOM      7  C   UNL     1     -37.282  22.105   1.154  0.00  0.00    +0.032 C 
ATOM      8  C   UNL     1     -35.987  19.714   0.461  0.00  0.00    +0.213 C 
ATOM      9  C   UNL     1     -38.004  20.977   0.539  0.00  0.00    +0.125 C 
ATOM     10  C   UNL     1     -33.885  20.556   1.257  0.00  0.00    +0.032 C 
ATOM     11  C   UNL     1     -38.062  23.309   1.476  0.00  0.00    +0.035 C 
ATOM     12  C   UNL     1     -35.373  18.510   0.103  0.00  0.00    +0.060 C 
ATOM     13  C   UNL     1     -39.319  21.041   0.281  0.00  0.00    +0.135 C 
ATOM     14  C   UNL     1     -33.267  19.354   0.902  0.00  0.00    +0.173 C 
ATOM     15  C   UNL     1     -34.011  18.330   0.324  0.00  0.00    +0.161 C 
ATOM     16  C   UNL     1     -39.371  23.375   1.220  0.00  0.00    +0.175 C 
ATOM     17  C   UNL     1     -40.108  22.255   0.605  0.00  0.00    +0.208 C 
ENDROOT
BRANCH   5  18
ATOM     18  C   UNL     1     -35.249  23.153   2.020  0.00  0.00    +0.006 C 
ATOM     19  C   UNL     1     -35.083  23.236   3.396  0.00  0.00    +0.076 C 
ATOM     20  C   UNL     1     -34.756  24.150   1.184  0.00  0.00    +0.000 C 
ATOM     21  C   UNL     1     -34.414  24.329   3.946  0.00  0.00    +0.013 C 
ATOM     22  C   UNL     1     -34.088  25.243   1.734  0.00  0.00    +0.006 C 
ATOM     23  C   UNL     1     -33.917  25.333   3.115  0.00  0.00    +0.076 C 
BRANCH  19  25
ATOM     24  O   UNL     1     -35.144  21.063   4.395  0.00  0.00    -0.245 OA
ATOM     25  C   UNL     1     -35.589  22.209   4.300  0.00  0.00    +0.338 C 
BRANCH  25  26
ATOM     26  O   UNL     1     -36.629  22.652   5.054  0.00  0.00    -0.477 OA
ATOM     27  H   UNL     1     -37.226  22.038   5.435  0.00  0.00    +0.295 HD
ENDBRANCH  25  26
ENDBRANCH  19  25
BRANCH  23  29
ATOM     28  O   UNL     1     -33.709  27.294   4.471  0.00  0.00    -0.245 OA
ATOM     29  C   UNL     1     -33.218  26.474   3.688  0.00  0.00    +0.338 C 
BRANCH  29  30
ATOM     30  O   UNL     1     -31.927  26.558   3.267  0.00  0.00    -0.477 OA
ATOM     31  H   UNL     1     -31.670  26.160   2.459  0.00  0.00    +0.295 HD
ENDBRANCH  29  30
ENDBRANCH  23  29
ENDBRANCH   5  18
BRANCH  15  32
ATOM     32  O   UNL     1     -33.412  17.159  -0.022  0.00  0.00    -0.504 OA
ATOM     33  H   UNL     1     -32.479  17.082   0.008  0.00  0.00    +0.292 HD
ENDBRANCH  15  32
TORSDOF 6
ENDMDL
MODEL 7
REMARK VINA RESULT:      -6.4      2.362      6.174
REMARK  Name = 5289081
REMARK  6 active torsions:
REMARK  status: ('A' for Active; 'I' for Inactive)
REMARK    1  A    between atoms: C_5  and  C_18
REMARK    2  A    between atoms: C_15  and  O_32
REMARK    3  A    between atoms: C_19  and  C_25
REMARK    4  A    between atoms: C_23  and  C_29
REMARK    5  A    between atoms: C_25  and  O_26
REMARK    6  A    between atoms: C_29  and  O_30
REMARK                            x       y       z     vdW  Elec       q    Type
REMARK                         _______ _______ _______ _____ _____    ______ ____
ROOT
ATOM      1  F   UNL     1     -40.536  22.281   0.279  0.00  0.00    -0.201 F 
ATOM      2  F   UNL     1     -31.789  18.320   1.728  0.00  0.00    -0.201 F 
ATOM      3  O   UNL     1     -36.845  18.326  -0.622  0.00  0.00    -0.474 OA
ATOM      4  O   UNL     1     -32.619  16.357   0.044  0.00  0.00    -0.288 OA
ATOM      5  C   UNL     1     -36.076  20.448   1.144  0.00  0.00    +0.003 C 
ATOM      6  C   UNL     1     -37.409  20.401   0.491  0.00  0.00    +0.024 C 
ATOM      7  C   UNL     1     -35.207  19.436   0.878  0.00  0.00    +0.032 C 
ATOM      8  C   UNL     1     -37.724  19.340  -0.359  0.00  0.00    +0.213 C 
ATOM      9  C   UNL     1     -35.589  18.338  -0.029  0.00  0.00    +0.125 C 
ATOM     10  C   UNL     1     -38.382  21.394   0.696  0.00  0.00    +0.032 C 
ATOM     11  C   UNL     1     -33.862  19.384   1.469  0.00  0.00    +0.035 C 
ATOM     12  C   UNL     1     -38.969  19.261  -0.991  0.00  0.00    +0.060 C 
ATOM     13  C   UNL     1     -34.748  17.330  -0.306  0.00  0.00    +0.135 C 
ATOM     14  C   UNL     1     -39.627  21.320   0.066  0.00  0.00    +0.173 C 
ATOM     15  C   UNL     1     -39.922  20.253  -0.778  0.00  0.00    +0.161 C 
ATOM     16  C   UNL     1     -33.024  18.381   1.194  0.00  0.00    +0.175 C 
ATOM     17  C   UNL     1     -33.391  17.275   0.290  0.00  0.00    +0.208 C 
ENDROOT
BRANCH   5  18
ATOM     18  C   UNL     1     -35.674  21.531   2.048  0.00  0.00    +0.006 C 
ATOM     19  C   UNL     1     -35.116  22.706   1.560  0.00  0.00    +0.076 C 
ATOM     20  C   UNL     1     -35.864  21.351   3.415  0.00  0.00    +0.000 C 
ATOM     21  C   UNL     1     -34.744  23.716   2.448  0.00  0.00    +0.013 C 
ATOM     22  C   UNL     1     -35.492  22.360   4.302  0.00  0.00    +0.006 C 
ATOM     23  C   UNL     1     -34.932  23.542   3.819  0.00  0.00    +0.076 C 
BRANCH  19  25
ATOM     24  O   UNL     1     -35.731  23.399  -0.646  0.00  0.00    -0.245 OA
ATOM     25  C   UNL     1     -34.901  22.926   0.134  0.00  0.00    +0.338 C 
BRANCH  25  26
ATOM     26  O   UNL     1     -33.657  22.551  -0.265  0.00  0.00    -0.477 OA
ATOM     27  H   UNL     1     -33.374  21.666  -0.146  0.00  0.00    +0.295 HD
ENDBRANCH  25  26
ENDBRANCH  19  25
BRANCH  23  29
ATOM     28  O   UNL     1     -35.243  25.028   5.669  0.00  0.00    -0.245 OA
ATOM     29  C   UNL     1     -34.545  24.595   4.746  0.00  0.00    +0.338 C 
BRANCH  29  30
ATOM     30  O   UNL     1     -33.298  25.078   4.493  0.00  0.00    -0.477 OA
ATOM     31  H   UNL     1     -32.714  24.600   3.940  0.00  0.00    +0.295 HD
ENDBRANCH  29  30
ENDBRANCH  23  29
ENDBRANCH   5  18
BRANCH  15  32
ATOM     32  O   UNL     1     -41.132  20.179  -1.392  0.00  0.00    -0.504 OA
ATOM     33  H   UNL     1     -41.919  20.262  -0.891  0.00  0.00    +0.292 HD
ENDBRANCH  15  32
TORSDOF 6
ENDMDL
MODEL 8
REMARK VINA RESULT:      -6.4      1.649      2.137
REMARK  Name = 5289081
REMARK  6 active torsions:
REMARK  status: ('A' for Active; 'I' for Inactive)
REMARK    1  A    between atoms: C_5  and  C_18
REMARK    2  A    between atoms: C_15  and  O_32
REMARK    3  A    between atoms: C_19  and  C_25
REMARK    4  A    between atoms: C_23  and  C_29
REMARK    5  A    between atoms: C_25  and  O_26
REMARK    6  A    between atoms: C_29  and  O_30
REMARK                            x       y       z     vdW  Elec       q    Type
REMARK                         _______ _______ _______ _____ _____    ______ ____
ROOT
ATOM      1  F   UNL     1     -33.139  25.940   3.534  0.00  0.00    -0.201 F 
ATOM      2  F   UNL     1     -39.469  20.019  -0.845  0.00  0.00    -0.201 F 
ATOM      3  O   UNL     1     -38.237  24.686   1.946  0.00  0.00    -0.474 OA
ATOM      4  O   UNL     1     -41.353  21.853  -0.161  0.00  0.00    -0.288 OA
ATOM      5  C   UNL     1     -36.167  22.817   1.282  0.00  0.00    +0.003 C 
ATOM      6  C   UNL     1     -35.895  24.075   2.023  0.00  0.00    +0.024 C 
ATOM      7  C   UNL     1     -37.454  22.566   0.916  0.00  0.00    +0.032 C 
ATOM      8  C   UNL     1     -36.945  24.945   2.316  0.00  0.00    +0.213 C 
ATOM      9  C   UNL     1     -38.528  23.519   1.252  0.00  0.00    +0.125 C 
ATOM     10  C   UNL     1     -34.603  24.433   2.446  0.00  0.00    +0.032 C 
ATOM     11  C   UNL     1     -37.836  21.353   0.180  0.00  0.00    +0.035 C 
ATOM     12  C   UNL     1     -36.727  26.138   3.012  0.00  0.00    +0.060 C 
ATOM     13  C   UNL     1     -39.803  23.292   0.902  0.00  0.00    +0.135 C 
ATOM     14  C   UNL     1     -34.381  25.625   3.142  0.00  0.00    +0.173 C 
ATOM     15  C   UNL     1     -35.442  26.478   3.425  0.00  0.00    +0.161 C 
ATOM     16  C   UNL     1     -39.105  21.125  -0.169  0.00  0.00    +0.175 C 
ATOM     17  C   UNL     1     -40.191  22.068   0.159  0.00  0.00    +0.208 C 
ENDROOT
BRANCH   5  18
ATOM     18  C   UNL     1     -35.114  21.856   0.936  0.00  0.00    +0.006 C 
ATOM     19  C   UNL     1     -34.835  20.769   1.755  0.00  0.00    +0.076 C 
ATOM     20  C   UNL     1     -34.397  22.062  -0.238  0.00  0.00    +0.000 C 
ATOM     21  C   UNL     1     -33.827  19.874   1.396  0.00  0.00    +0.013 C 
ATOM     22  C   UNL     1     -33.389  21.168  -0.597  0.00  0.00    +0.006 C 
ATOM     23  C   UNL     1     -33.104  20.074   0.220  0.00  0.00    +0.076 C 
BRANCH  19  25
ATOM     24  O   UNL     1     -35.246  20.952   4.104  0.00  0.00    -0.245 OA
ATOM     25  C   UNL     1     -35.567  20.525   2.993  0.00  0.00    +0.338 C 
BRANCH  25  26
ATOM     26  O   UNL     1     -36.674  19.762   2.797  0.00  0.00    -0.477 OA
ATOM     27  H   UNL     1     -36.967  19.576   1.927  0.00  0.00    +0.295 HD
ENDBRANCH  25  26
ENDBRANCH  19  25
BRANCH  23  29
ATOM     28  O   UNL     1     -30.943  19.058   0.382  0.00  0.00    -0.245 OA
ATOM     29  C   UNL     1     -32.052  19.141  -0.155  0.00  0.00    +0.338 C 
BRANCH  29  30
ATOM     30  O   UNL     1     -32.415  18.339  -1.193  0.00  0.00    -0.477 OA
ATOM     31  H   UNL     1     -31.762  17.977  -1.757  0.00  0.00    +0.295 HD
ENDBRANCH  29  30
ENDBRANCH  23  29
ENDBRANCH   5  18
BRANCH  15  32
ATOM     32  O   UNL     1     -35.228  27.638   4.101  0.00  0.00    -0.504 OA
ATOM     33  H   UNL     1     -34.513  28.194   3.863  0.00  0.00    +0.292 HD
ENDBRANCH  15  32
TORSDOF 6
ENDMDL
MODEL 9
REMARK VINA RESULT:      -6.4      2.335      5.715
REMARK  Name = 5289081
REMARK  6 active torsions:
REMARK  status: ('A' for Active; 'I' for Inactive)
REMARK    1  A    between atoms: C_5  and  C_18
REMARK    2  A    between atoms: C_15  and  O_32
REMARK    3  A    between atoms: C_19  and  C_25
REMARK    4  A    between atoms: C_23  and  C_29
REMARK    5  A    between atoms: C_25  and  O_26
REMARK    6  A    between atoms: C_29  and  O_30
REMARK                            x       y       z     vdW  Elec       q    Type
REMARK                         _______ _______ _______ _____ _____    ______ ____
ROOT
ATOM      1  F   UNL     1     -40.709  23.664   1.220  0.00  0.00    -0.201 F 
ATOM      2  F   UNL     1     -32.296  18.823   1.516  0.00  0.00    -0.201 F 
ATOM      3  O   UNL     1     -37.590  19.364  -0.147  0.00  0.00    -0.474 OA
ATOM      4  O   UNL     1     -33.535  16.971  -0.037  0.00  0.00    -0.288 OA
ATOM      5  C   UNL     1     -36.384  21.380   1.495  0.00  0.00    +0.003 C 
ATOM      6  C   UNL     1     -37.789  21.474   1.024  0.00  0.00    +0.024 C 
ATOM      7  C   UNL     1     -35.664  20.288   1.120  0.00  0.00    +0.032 C 
ATOM      8  C   UNL     1     -38.319  20.460   0.226  0.00  0.00    +0.213 C 
ATOM      9  C   UNL     1     -36.272  19.243   0.276  0.00  0.00    +0.125 C 
ATOM     10  C   UNL     1     -38.621  22.559   1.352  0.00  0.00    +0.032 C 
ATOM     11  C   UNL     1     -34.266  20.093   1.529  0.00  0.00    +0.035 C 
ATOM     12  C   UNL     1     -39.637  20.514  -0.236  0.00  0.00    +0.060 C 
ATOM     13  C   UNL     1     -35.582  18.158  -0.106  0.00  0.00    +0.135 C 
ATOM     14  C   UNL     1     -39.939  22.617   0.891  0.00  0.00    +0.173 C 
ATOM     15  C   UNL     1     -40.448  21.595   0.097  0.00  0.00    +0.161 C 
ATOM     16  C   UNL     1     -33.578  19.014   1.150  0.00  0.00    +0.175 C 
ATOM     17  C   UNL     1     -34.171  17.960   0.306  0.00  0.00    +0.208 C 
ENDROOT
BRANCH   5  18
ATOM     18  C   UNL     1     -35.758  22.407   2.335  0.00  0.00    +0.006 C 
ATOM     19  C   UNL     1     -35.118  23.504   1.772  0.00  0.00    +0.076 C 
ATOM     20  C   UNL     1     -35.821  22.254   3.717  0.00  0.00    +0.000 C 
ATOM     21  C   UNL     1     -34.533  24.462   2.601  0.00  0.00    +0.013 C 
ATOM     22  C   UNL     1     -35.237  23.212   4.544  0.00  0.00    +0.006 C 
ATOM     23  C   UNL     1     -34.592  24.316   3.986  0.00  0.00    +0.076 C 
BRANCH  19  25
ATOM     24  O   UNL     1     -35.885  24.247  -0.368  0.00  0.00    -0.245 OA
ATOM     25  C   UNL     1     -35.032  23.693   0.329  0.00  0.00    +0.338 C 
BRANCH  25  26
ATOM     26  O   UNL     1     -33.883  23.187  -0.191  0.00  0.00    -0.477 OA
ATOM     27  H   UNL     1     -33.159  23.755  -0.368  0.00  0.00    +0.295 HD
ENDBRANCH  25  26
ENDBRANCH  19  25
BRANCH  23  29
ATOM     28  O   UNL     1     -34.357  25.597   5.994  0.00  0.00    -0.245 OA
ATOM     29  C   UNL     1     -33.983  25.315   4.851  0.00  0.00    +0.338 C 
BRANCH  29  30
ATOM     30  O   UNL     1     -32.923  25.935   4.263  0.00  0.00    -0.477 OA
ATOM     31  H   UNL     1     -32.860  26.869   4.277  0.00  0.00    +0.295 HD
ENDBRANCH  29  30
ENDBRANCH  23  29
ENDBRANCH   5  18
BRANCH  15  32
ATOM     32  O   UNL     1     -41.730  21.650  -0.352  0.00  0.00    -0.504 OA
ATOM     33  H   UNL     1     -42.437  21.754   0.255  0.00  0.00    +0.292 HD
ENDBRANCH  15  32
TORSDOF 6
ENDMDL
