MODEL 1
REMARK VINA RESULT:      -6.5      0.000      0.000
REMARK  Name = 192694
REMARK  10 active torsions:
REMARK  status: ('A' for Active; 'I' for Inactive)
REMARK    1  A    between atoms: C_2  and  O_7
REMARK    2  A    between atoms: C_3  and  O_9
REMARK    3  A    between atoms: C_4  and  O_11
REMARK    4  A    between atoms: C_5  and  C_26
REMARK    5  A    between atoms: C_6  and  O_13
REMARK    6  A    between atoms: O_13  and  C_14
REMARK    7  A    between atoms: C_16  and  O_20
REMARK    8  A    between atoms: C_17  and  C_23
REMARK    9  A    between atoms: C_23  and  O_24
REMARK   10  A    between atoms: C_26  and  O_27
REMARK                            x       y       z     vdW  Elec       q    Type
REMARK                         _______ _______ _______ _____ _____    ______ ____
ROOT
ATOM      1  O   UNL     1     -37.525  24.046   1.946  0.00  0.00    -0.316 OA
ATOM      2  C   UNL     1     -39.465  21.967   1.543  0.00  0.00    +0.173 C 
ATOM      3  C   UNL     1     -39.855  23.376   1.988  0.00  0.00    +0.169 C 
ATOM      4  C   UNL     1     -38.003  21.666   1.872  0.00  0.00    +0.210 C 
ATOM      5  C   UNL     1     -38.833  24.403   1.495  0.00  0.00    +0.177 C 
ATOM      6  C   UNL     1     -37.086  22.799   1.413  0.00  0.00    +0.318 C 
ENDROOT
BRANCH   2   7
ATOM      7  O   UNL     1     -40.308  21.039   2.227  0.00  0.00    -0.379 OA
ATOM      8  H   UNL     1     -39.811  20.227   2.414  0.00  0.00    +0.211 HD
ENDBRANCH   2   7
BRANCH   3   9
ATOM      9  O   UNL     1     -41.139  23.699   1.462  0.00  0.00    -0.379 OA
ATOM     10  H   UNL     1     -41.766  22.993   1.683  0.00  0.00    +0.211 HD
ENDBRANCH   3   9
BRANCH   4  11
ATOM     11  O   UNL     1     -37.603  20.469   1.206  0.00  0.00    -0.377 OA
ATOM     12  H   UNL     1     -38.280  19.786   1.336  0.00  0.00    +0.211 HD
ENDBRANCH   4  11
BRANCH   6  13
ATOM     13  O   UNL     1     -35.767  22.513   1.881  0.00  0.00    -0.447 OA
BRANCH  13  14
ATOM     14  C   UNL     1     -35.522  22.750   3.205  0.00  0.00    +0.175 C 
ATOM     15  C   UNL     1     -35.340  24.060   3.640  0.00  0.00    +0.047 C 
ATOM     16  C   UNL     1     -35.456  21.693   4.108  0.00  0.00    +0.168 C 
ATOM     17  C   UNL     1     -35.089  24.315   4.989  0.00  0.00    +0.079 C 
ATOM     18  C   UNL     1     -35.206  21.947   5.456  0.00  0.00    +0.040 C 
ATOM     19  C   UNL     1     -35.023  23.258   5.896  0.00  0.00    +0.010 C 
BRANCH  16  20
ATOM     20  O   UNL     1     -35.633  20.408   3.691  0.00  0.00    -0.503 OA
ATOM     21  H   UNL     1     -36.452  19.977   3.838  0.00  0.00    +0.292 HD
ENDBRANCH  16  20
BRANCH  17  23
ATOM     22  O   UNL     1     -35.813  26.433   5.808  0.00  0.00    -0.245 OA
ATOM     23  C   UNL     1     -34.898  25.681   5.448  0.00  0.00    +0.341 C 
BRANCH  23  24
ATOM     24  O   UNL     1     -33.577  26.035   5.434  0.00  0.00    -0.441 OA
ATOM     25  C   UNL     1     -33.195  27.072   4.524  0.00  0.00    +0.256 C 
ENDBRANCH  23  24
ENDBRANCH  17  23
ENDBRANCH  13  14
ENDBRANCH   6  13
BRANCH   5  26
ATOM     26  C   UNL     1     -39.136  25.801   2.026  0.00  0.00    +0.169 C 
BRANCH  26  27
ATOM     27  O   UNL     1     -39.586  25.689   3.363  0.00  0.00    -0.379 OA
ATOM     28  H   UNL     1     -39.281  26.456   3.873  0.00  0.00    +0.211 HD
ENDBRANCH  26  27
ENDBRANCH   5  26
TORSDOF 10
ENDMDL
MODEL 2
REMARK VINA RESULT:      -6.4      1.883      6.878
REMARK  Name = 192694
REMARK  10 active torsions:
REMARK  status: ('A' for Active; 'I' for Inactive)
REMARK    1  A    between atoms: C_2  and  O_7
REMARK    2  A    between atoms: C_3  and  O_9
REMARK    3  A    between atoms: C_4  and  O_11
REMARK    4  A    between atoms: C_5  and  C_26
REMARK    5  A    between atoms: C_6  and  O_13
REMARK    6  A    between atoms: O_13  and  C_14
REMARK    7  A    between atoms: C_16  and  O_20
REMARK    8  A    between atoms: C_17  and  C_23
REMARK    9  A    between atoms: C_23  and  O_24
REMARK   10  A    between atoms: C_26  and  O_27
REMARK                            x       y       z     vdW  Elec       q    Type
REMARK                         _______ _______ _______ _____ _____    ______ ____
ROOT
ATOM      1  O   UNL     1     -36.867  23.735   4.656  0.00  0.00    -0.316 OA
ATOM      2  C   UNL     1     -35.405  26.092   3.910  0.00  0.00    +0.173 C 
ATOM      3  C   UNL     1     -34.836  25.043   4.864  0.00  0.00    +0.169 C 
ATOM      4  C   UNL     1     -36.932  26.030   3.865  0.00  0.00    +0.210 C 
ATOM      5  C   UNL     1     -35.442  23.666   4.582  0.00  0.00    +0.177 C 
ATOM      6  C   UNL     1     -37.424  24.597   3.667  0.00  0.00    +0.318 C 
ENDROOT
BRANCH   2   7
ATOM      7  O   UNL     1     -34.994  27.379   4.372  0.00  0.00    -0.379 OA
ATOM      8  H   UNL     1     -35.377  27.546   5.247  0.00  0.00    +0.211 HD
ENDBRANCH   2   7
BRANCH   3   9
ATOM      9  O   UNL     1     -33.421  24.977   4.705  0.00  0.00    -0.379 OA
ATOM     10  H   UNL     1     -33.049  25.871   4.754  0.00  0.00    +0.211 HD
ENDBRANCH   3   9
BRANCH   4  11
ATOM     11  O   UNL     1     -37.406  26.821   2.775  0.00  0.00    -0.377 OA
ATOM     12  H   UNL     1     -37.633  27.708   3.095  0.00  0.00    +0.211 HD
ENDBRANCH   4  11
BRANCH   6  13
ATOM     13  O   UNL     1     -38.847  24.602   3.779  0.00  0.00    -0.447 OA
BRANCH  13  14
ATOM     14  C   UNL     1     -39.552  24.294   2.647  0.00  0.00    +0.175 C 
ATOM     15  C   UNL     1     -39.505  22.996   2.148  0.00  0.00    +0.047 C 
ATOM     16  C   UNL     1     -40.307  25.270   2.003  0.00  0.00    +0.168 C 
ATOM     17  C   UNL     1     -40.218  22.669   0.995  0.00  0.00    +0.079 C 
ATOM     18  C   UNL     1     -41.022  24.943   0.850  0.00  0.00    +0.040 C 
ATOM     19  C   UNL     1     -40.977  23.643   0.346  0.00  0.00    +0.010 C 
BRANCH  16  20
ATOM     20  O   UNL     1     -40.360  26.542   2.485  0.00  0.00    -0.503 OA
ATOM     21  H   UNL     1     -39.832  27.212   2.096  0.00  0.00    +0.292 HD
ENDBRANCH  16  20
BRANCH  17  23
ATOM     22  O   UNL     1     -41.166  20.662   0.127  0.00  0.00    -0.245 OA
ATOM     23  C   UNL     1     -40.172  21.314   0.469  0.00  0.00    +0.341 C 
BRANCH  23  24
ATOM     24  O   UNL     1     -38.888  20.846   0.399  0.00  0.00    -0.441 OA
ATOM     25  C   UNL     1     -38.651  19.737  -0.474  0.00  0.00    +0.256 C 
ENDBRANCH  23  24
ENDBRANCH  17  23
ENDBRANCH  13  14
ENDBRANCH   6  13
BRANCH   5  26
ATOM     26  C   UNL     1     -34.978  22.625   5.596  0.00  0.00    +0.169 C 
BRANCH  26  27
ATOM     27  O   UNL     1     -36.120  22.020   6.175  0.00  0.00    -0.379 OA
ATOM     28  H   UNL     1     -35.996  21.947   7.135  0.00  0.00    +0.211 HD
ENDBRANCH  26  27
ENDBRANCH   5  26
TORSDOF 10
ENDMDL
MODEL 3
REMARK VINA RESULT:      -6.1      3.253      5.566
REMARK  Name = 192694
REMARK  10 active torsions:
REMARK  status: ('A' for Active; 'I' for Inactive)
REMARK    1  A    between atoms: C_2  and  O_7
REMARK    2  A    between atoms: C_3  and  O_9
REMARK    3  A    between atoms: C_4  and  O_11
REMARK    4  A    between atoms: C_5  and  C_26
REMARK    5  A    between atoms: C_6  and  O_13
REMARK    6  A    between atoms: O_13  and  C_14
REMARK    7  A    between atoms: C_16  and  O_20
REMARK    8  A    between atoms: C_17  and  C_23
REMARK    9  A    between atoms: C_23  and  O_24
REMARK   10  A    between atoms: C_26  and  O_27
REMARK                            x       y       z     vdW  Elec       q    Type
REMARK                         _______ _______ _______ _____ _____    ______ ____
ROOT
ATOM      1  O   UNL     1     -35.815  23.006   3.685  0.00  0.00    -0.316 OA
ATOM      2  C   UNL     1     -36.939  25.627   3.340  0.00  0.00    +0.173 C 
ATOM      3  C   UNL     1     -36.695  25.014   4.719  0.00  0.00    +0.169 C 
ATOM      4  C   UNL     1     -37.044  24.545   2.265  0.00  0.00    +0.210 C 
ATOM      5  C   UNL     1     -35.546  24.005   4.670  0.00  0.00    +0.177 C 
ATOM      6  C   UNL     1     -35.893  23.545   2.368  0.00  0.00    +0.318 C 
ENDROOT
BRANCH   2   7
ATOM      7  O   UNL     1     -38.160  26.365   3.394  0.00  0.00    -0.379 OA
ATOM      8  H   UNL     1     -38.608  26.312   2.536  0.00  0.00    +0.211 HD
ENDBRANCH   2   7
BRANCH   3   9
ATOM      9  O   UNL     1     -36.375  26.049   5.646  0.00  0.00    -0.379 OA
ATOM     10  H   UNL     1     -37.006  26.778   5.546  0.00  0.00    +0.211 HD
ENDBRANCH   3   9
BRANCH   4  11
ATOM     11  O   UNL     1     -36.994  25.153   0.975  0.00  0.00    -0.377 OA
ATOM     12  H   UNL     1     -36.071  25.336   0.740  0.00  0.00    +0.211 HD
ENDBRANCH   4  11
BRANCH   6  13
ATOM     13  O   UNL     1     -36.138  22.495   1.432  0.00  0.00    -0.447 OA
BRANCH  13  14
ATOM     14  C   UNL     1     -35.120  21.605   1.230  0.00  0.00    +0.175 C 
ATOM     15  C   UNL     1     -34.066  21.956   0.391  0.00  0.00    +0.047 C 
ATOM     16  C   UNL     1     -35.137  20.362   1.856  0.00  0.00    +0.168 C 
ATOM     17  C   UNL     1     -33.021  21.057   0.175  0.00  0.00    +0.079 C 
ATOM     18  C   UNL     1     -34.092  19.463   1.641  0.00  0.00    +0.040 C 
ATOM     19  C   UNL     1     -33.034  19.811   0.801  0.00  0.00    +0.010 C 
BRANCH  16  20
ATOM     20  O   UNL     1     -36.164  20.011   2.679  0.00  0.00    -0.503 OA
ATOM     21  H   UNL     1     -36.280  19.114   2.926  0.00  0.00    +0.292 HD
ENDBRANCH  16  20
BRANCH  17  23
ATOM     22  O   UNL     1     -31.308  22.494  -0.651  0.00  0.00    -0.245 OA
ATOM     23  C   UNL     1     -31.918  21.419  -0.701  0.00  0.00    +0.341 C 
BRANCH  23  24
ATOM     24  O   UNL     1     -31.635  20.419  -1.591  0.00  0.00    -0.441 OA
ATOM     25  C   UNL     1     -32.351  20.435  -2.830  0.00  0.00    +0.256 C 
ENDBRANCH  23  24
ENDBRANCH  17  23
ENDBRANCH  13  14
ENDBRANCH   6  13
BRANCH   5  26
ATOM     26  C   UNL     1     -35.360  23.294   6.008  0.00  0.00    +0.169 C 
BRANCH  26  27
ATOM     27  O   UNL     1     -36.110  22.094   5.989  0.00  0.00    -0.379 OA
ATOM     28  H   UNL     1     -36.371  21.889   5.077  0.00  0.00    +0.211 HD
ENDBRANCH  26  27
ENDBRANCH   5  26
TORSDOF 10
ENDMDL
MODEL 4
REMARK VINA RESULT:      -6.1      2.011      6.183
REMARK  Name = 192694
REMARK  10 active torsions:
REMARK  status: ('A' for Active; 'I' for Inactive)
REMARK    1  A    between atoms: C_2  and  O_7
REMARK    2  A    between atoms: C_3  and  O_9
REMARK    3  A    between atoms: C_4  and  O_11
REMARK    4  A    between atoms: C_5  and  C_26
REMARK    5  A    between atoms: C_6  and  O_13
REMARK    6  A    between atoms: O_13  and  C_14
REMARK    7  A    between atoms: C_16  and  O_20
REMARK    8  A    between atoms: C_17  and  C_23
REMARK    9  A    between atoms: C_23  and  O_24
REMARK   10  A    between atoms: C_26  and  O_27
REMARK                            x       y       z     vdW  Elec       q    Type
REMARK                         _______ _______ _______ _____ _____    ______ ____
ROOT
ATOM      1  O   UNL     1     -36.649  22.653   4.501  0.00  0.00    -0.316 OA
ATOM      2  C   UNL     1     -36.117  25.476   4.492  0.00  0.00    +0.173 C 
ATOM      3  C   UNL     1     -35.539  24.537   5.550  0.00  0.00    +0.169 C 
ATOM      4  C   UNL     1     -37.366  24.878   3.844  0.00  0.00    +0.210 C 
ATOM      5  C   UNL     1     -35.391  23.118   4.995  0.00  0.00    +0.177 C 
ATOM      6  C   UNL     1     -37.128  23.433   3.409  0.00  0.00    +0.318 C 
ENDROOT
BRANCH   2   7
ATOM      7  O   UNL     1     -36.456  26.707   5.132  0.00  0.00    -0.379 OA
ATOM      8  H   UNL     1     -35.716  26.999   5.686  0.00  0.00    +0.211 HD
ENDBRANCH   2   7
BRANCH   3   9
ATOM      9  O   UNL     1     -34.263  25.018   5.962  0.00  0.00    -0.379 OA
ATOM     10  H   UNL     1     -34.346  25.934   6.267  0.00  0.00    +0.211 HD
ENDBRANCH   3   9
BRANCH   4  11
ATOM     11  O   UNL     1     -37.712  25.642   2.688  0.00  0.00    -0.377 OA
ATOM     12  H   UNL     1     -36.995  25.585   2.037  0.00  0.00    +0.211 HD
ENDBRANCH   4  11
BRANCH   6  13
ATOM     13  O   UNL     1     -38.372  22.903   2.948  0.00  0.00    -0.447 OA
BRANCH  13  14
ATOM     14  C   UNL     1     -38.307  21.965   1.954  0.00  0.00    +0.175 C 
ATOM     15  C   UNL     1     -37.152  21.200   1.814  0.00  0.00    +0.047 C 
ATOM     16  C   UNL     1     -39.384  21.779   1.092  0.00  0.00    +0.168 C 
ATOM     17  C   UNL     1     -37.074  20.241   0.804  0.00  0.00    +0.079 C 
ATOM     18  C   UNL     1     -39.305  20.819   0.082  0.00  0.00    +0.040 C 
ATOM     19  C   UNL     1     -38.151  20.051  -0.061  0.00  0.00    +0.010 C 
BRANCH  16  20
ATOM     20  O   UNL     1     -40.517  22.523   1.222  0.00  0.00    -0.503 OA
ATOM     21  H   UNL     1     -41.337  22.184   0.920  0.00  0.00    +0.292 HD
ENDBRANCH  16  20
BRANCH  17  23
ATOM     22  O   UNL     1     -35.785  18.428  -0.055  0.00  0.00    -0.245 OA
ATOM     23  C   UNL     1     -35.870  19.439   0.654  0.00  0.00    +0.341 C 
BRANCH  23  24
ATOM     24  O   UNL     1     -34.836  19.941   1.397  0.00  0.00    -0.441 OA
ATOM     25  C   UNL     1     -33.558  20.017   0.757  0.00  0.00    +0.256 C 
ENDBRANCH  23  24
ENDBRANCH  17  23
ENDBRANCH  13  14
ENDBRANCH   6  13
BRANCH   5  26
ATOM     26  C   UNL     1     -34.927  22.137   6.066  0.00  0.00    +0.169 C 
BRANCH  26  27
ATOM     27  O   UNL     1     -35.410  20.848   5.738  0.00  0.00    -0.379 OA
ATOM     28  H   UNL     1     -35.236  20.666   4.801  0.00  0.00    +0.211 HD
ENDBRANCH  26  27
ENDBRANCH   5  26
TORSDOF 10
ENDMDL
MODEL 5
REMARK VINA RESULT:      -5.9      2.548      4.495
REMARK  Name = 192694
REMARK  10 active torsions:
REMARK  status: ('A' for Active; 'I' for Inactive)
REMARK    1  A    between atoms: C_2  and  O_7
REMARK    2  A    between atoms: C_3  and  O_9
REMARK    3  A    between atoms: C_4  and  O_11
REMARK    4  A    between atoms: C_5  and  C_26
REMARK    5  A    between atoms: C_6  and  O_13
REMARK    6  A    between atoms: O_13  and  C_14
REMARK    7  A    between atoms: C_16  and  O_20
REMARK    8  A    between atoms: C_17  and  C_23
REMARK    9  A    between atoms: C_23  and  O_24
REMARK   10  A    between atoms: C_26  and  O_27
REMARK                            x       y       z     vdW  Elec       q    Type
REMARK                         _______ _______ _______ _____ _____    ______ ____
ROOT
ATOM      1  O   UNL     1     -34.407  21.592   1.237  0.00  0.00    -0.316 OA
ATOM      2  C   UNL     1     -36.358  19.485   1.259  0.00  0.00    +0.173 C 
ATOM      3  C   UNL     1     -35.048  19.381   0.478  0.00  0.00    +0.169 C 
ATOM      4  C   UNL     1     -36.728  20.944   1.526  0.00  0.00    +0.210 C 
ATOM      5  C   UNL     1     -33.960  20.240   1.126  0.00  0.00    +0.177 C 
ATOM      6  C   UNL     1     -35.541  21.725   2.088  0.00  0.00    +0.318 C 
ENDROOT
BRANCH   2   7
ATOM      7  O   UNL     1     -37.385  18.867   0.483  0.00  0.00    -0.379 OA
ATOM      8  H   UNL     1     -38.212  18.857   0.989  0.00  0.00    +0.211 HD
ENDBRANCH   2   7
BRANCH   3   9
ATOM      9  O   UNL     1     -34.622  18.021   0.451  0.00  0.00    -0.379 OA
ATOM     10  H   UNL     1     -33.668  17.979   0.618  0.00  0.00    +0.211 HD
ENDBRANCH   3   9
BRANCH   4  11
ATOM     11  O   UNL     1     -37.790  20.996   2.479  0.00  0.00    -0.377 OA
ATOM     12  H   UNL     1     -37.419  21.045   3.374  0.00  0.00    +0.211 HD
ENDBRANCH   4  11
BRANCH   6  13
ATOM     13  O   UNL     1     -35.921  23.098   2.175  0.00  0.00    -0.447 OA
BRANCH  13  14
ATOM     14  C   UNL     1     -35.410  23.810   3.226  0.00  0.00    +0.175 C 
ATOM     15  C   UNL     1     -34.602  24.914   2.972  0.00  0.00    +0.047 C 
ATOM     16  C   UNL     1     -35.695  23.432   4.535  0.00  0.00    +0.168 C 
ATOM     17  C   UNL     1     -34.075  25.648   4.035  0.00  0.00    +0.079 C 
ATOM     18  C   UNL     1     -35.168  24.166   5.598  0.00  0.00    +0.040 C 
ATOM     19  C   UNL     1     -34.358  25.273   5.348  0.00  0.00    +0.010 C 
BRANCH  16  20
ATOM     20  O   UNL     1     -36.485  22.353   4.793  0.00  0.00    -0.503 OA
ATOM     21  H   UNL     1     -37.272  22.221   4.302  0.00  0.00    +0.292 HD
ENDBRANCH  16  20
BRANCH  17  23
ATOM     22  O   UNL     1     -32.057  26.739   3.385  0.00  0.00    -0.245 OA
ATOM     23  C   UNL     1     -33.230  26.803   3.775  0.00  0.00    +0.341 C 
BRANCH  23  24
ATOM     24  O   UNL     1     -33.894  27.975   4.015  0.00  0.00    -0.441 OA
ATOM     25  C   UNL     1     -34.316  28.724   2.870  0.00  0.00    +0.256 C 
ENDBRANCH  23  24
ENDBRANCH  17  23
ENDBRANCH  13  14
ENDBRANCH   6  13
BRANCH   5  26
ATOM     26  C   UNL     1     -32.677  20.245   0.300  0.00  0.00    +0.169 C 
BRANCH  26  27
ATOM     27  O   UNL     1     -31.837  19.204   0.764  0.00  0.00    -0.379 OA
ATOM     28  H   UNL     1     -32.244  18.779   1.536  0.00  0.00    +0.211 HD
ENDBRANCH  26  27
ENDBRANCH   5  26
TORSDOF 10
ENDMDL
MODEL 6
REMARK VINA RESULT:      -5.9      3.358      6.459
REMARK  Name = 192694
REMARK  10 active torsions:
REMARK  status: ('A' for Active; 'I' for Inactive)
REMARK    1  A    between atoms: C_2  and  O_7
REMARK    2  A    between atoms: C_3  and  O_9
REMARK    3  A    between atoms: C_4  and  O_11
REMARK    4  A    between atoms: C_5  and  C_26
REMARK    5  A    between atoms: C_6  and  O_13
REMARK    6  A    between atoms: O_13  and  C_14
REMARK    7  A    between atoms: C_16  and  O_20
REMARK    8  A    between atoms: C_17  and  C_23
REMARK    9  A    between atoms: C_23  and  O_24
REMARK   10  A    between atoms: C_26  and  O_27
REMARK                            x       y       z     vdW  Elec       q    Type
REMARK                         _______ _______ _______ _____ _____    ______ ____
ROOT
ATOM      1  O   UNL     1     -34.327  25.141   4.933  0.00  0.00    -0.316 OA
ATOM      2  C   UNL     1     -36.541  26.460   3.664  0.00  0.00    +0.173 C 
ATOM      3  C   UNL     1     -36.591  24.989   4.076  0.00  0.00    +0.169 C 
ATOM      4  C   UNL     1     -35.099  26.939   3.495  0.00  0.00    +0.210 C 
ATOM      5  C   UNL     1     -35.655  24.724   5.258  0.00  0.00    +0.177 C 
ATOM      6  C   UNL     1     -34.238  26.543   4.694  0.00  0.00    +0.318 C 
ENDROOT
BRANCH   2   7
ATOM      7  O   UNL     1     -37.235  26.594   2.423  0.00  0.00    -0.379 OA
ATOM      8  H   UNL     1     -38.079  27.050   2.572  0.00  0.00    +0.211 HD
ENDBRANCH   2   7
BRANCH   3   9
ATOM      9  O   UNL     1     -37.924  24.647   4.445  0.00  0.00    -0.379 OA
ATOM     10  H   UNL     1     -38.549  25.140   3.891  0.00  0.00    +0.211 HD
ENDBRANCH   3   9
BRANCH   4  11
ATOM     11  O   UNL     1     -35.083  28.362   3.384  0.00  0.00    -0.377 OA
ATOM     12  H   UNL     1     -35.446  28.623   2.523  0.00  0.00    +0.211 HD
ENDBRANCH   4  11
BRANCH   6  13
ATOM     13  O   UNL     1     -32.886  26.896   4.400  0.00  0.00    -0.447 OA
BRANCH  13  14
ATOM     14  C   UNL     1     -32.417  28.049   4.968  0.00  0.00    +0.175 C 
ATOM     15  C   UNL     1     -32.269  29.185   4.178  0.00  0.00    +0.047 C 
ATOM     16  C   UNL     1     -32.092  28.084   6.321  0.00  0.00    +0.168 C 
ATOM     17  C   UNL     1     -31.790  30.367   4.745  0.00  0.00    +0.079 C 
ATOM     18  C   UNL     1     -31.615  29.266   6.888  0.00  0.00    +0.040 C 
ATOM     19  C   UNL     1     -31.464  30.407   6.100  0.00  0.00    +0.010 C 
BRANCH  16  20
ATOM     20  O   UNL     1     -32.236  26.977   7.101  0.00  0.00    -0.503 OA
ATOM     21  H   UNL     1     -32.535  27.063   7.985  0.00  0.00    +0.292 HD
ENDBRANCH  16  20
BRANCH  17  23
ATOM     22  O   UNL     1     -30.698  32.360   4.027  0.00  0.00    -0.245 OA
ATOM     23  C   UNL     1     -31.633  31.557   3.923  0.00  0.00    +0.341 C 
BRANCH  23  24
ATOM     24  O   UNL     1     -32.650  31.679   3.017  0.00  0.00    -0.441 OA
ATOM     25  C   UNL     1     -32.824  32.965   2.410  0.00  0.00    +0.256 C 
ENDBRANCH  23  24
ENDBRANCH  17  23
ENDBRANCH  13  14
ENDBRANCH   6  13
BRANCH   5  26
ATOM     26  C   UNL     1     -35.598  23.242   5.613  0.00  0.00    +0.169 C 
BRANCH  26  27
ATOM     27  O   UNL     1     -36.281  22.511   4.611  0.00  0.00    -0.379 OA
ATOM     28  H   UNL     1     -36.621  21.684   4.988  0.00  0.00    +0.211 HD
ENDBRANCH  26  27
ENDBRANCH   5  26
TORSDOF 10
ENDMDL
MODEL 7
REMARK VINA RESULT:      -5.8      3.352      5.895
REMARK  Name = 192694
REMARK  10 active torsions:
REMARK  status: ('A' for Active; 'I' for Inactive)
REMARK    1  A    between atoms: C_2  and  O_7
REMARK    2  A    between atoms: C_3  and  O_9
REMARK    3  A    between atoms: C_4  and  O_11
REMARK    4  A    between atoms: C_5  and  C_26
REMARK    5  A    between atoms: C_6  and  O_13
REMARK    6  A    between atoms: O_13  and  C_14
REMARK    7  A    between atoms: C_16  and  O_20
REMARK    8  A    between atoms: C_17  and  C_23
REMARK    9  A    between atoms: C_23  and  O_24
REMARK   10  A    between atoms: C_26  and  O_27
REMARK                            x       y       z     vdW  Elec       q    Type
REMARK                         _______ _______ _______ _____ _____    ______ ____
ROOT
ATOM      1  O   UNL     1     -34.894  23.173   3.270  0.00  0.00    -0.316 OA
ATOM      2  C   UNL     1     -37.429  24.524   3.235  0.00  0.00    +0.173 C 
ATOM      3  C   UNL     1     -36.135  25.222   3.651  0.00  0.00    +0.169 C 
ATOM      4  C   UNL     1     -37.314  23.007   3.387  0.00  0.00    +0.210 C 
ATOM      5  C   UNL     1     -34.926  24.571   2.975  0.00  0.00    +0.177 C 
ATOM      6  C   UNL     1     -36.027  22.481   2.752  0.00  0.00    +0.318 C 
ENDROOT
BRANCH   2   7
ATOM      7  O   UNL     1     -38.480  25.007   4.072  0.00  0.00    -0.379 OA
ATOM      8  H   UNL     1     -38.708  24.332   4.730  0.00  0.00    +0.211 HD
ENDBRANCH   2   7
BRANCH   3   9
ATOM      9  O   UNL     1     -36.199  26.596   3.281  0.00  0.00    -0.379 OA
ATOM     10  H   UNL     1     -35.632  26.750   2.510  0.00  0.00    +0.211 HD
ENDBRANCH   3   9
BRANCH   4  11
ATOM     11  O   UNL     1     -38.421  22.380   2.740  0.00  0.00    -0.377 OA
ATOM     12  H   UNL     1     -38.116  21.582   2.280  0.00  0.00    +0.211 HD
ENDBRANCH   4  11
BRANCH   6  13
ATOM     13  O   UNL     1     -35.923  21.090   3.058  0.00  0.00    -0.447 OA
BRANCH  13  14
ATOM     14  C   UNL     1     -35.514  20.269   2.044  0.00  0.00    +0.175 C 
ATOM     15  C   UNL     1     -34.168  19.928   1.944  0.00  0.00    +0.047 C 
ATOM     16  C   UNL     1     -36.435  19.780   1.121  0.00  0.00    +0.168 C 
ATOM     17  C   UNL     1     -33.739  19.091   0.913  0.00  0.00    +0.079 C 
ATOM     18  C   UNL     1     -36.006  18.942   0.092  0.00  0.00    +0.040 C 
ATOM     19  C   UNL     1     -34.658  18.599  -0.012  0.00  0.00    +0.010 C 
BRANCH  16  20
ATOM     20  O   UNL     1     -37.754  20.107   1.212  0.00  0.00    -0.503 OA
ATOM     21  H   UNL     1     -38.163  20.174   2.053  0.00  0.00    +0.292 HD
ENDBRANCH  16  20
BRANCH  17  23
ATOM     22  O   UNL     1     -31.431  19.522   0.498  0.00  0.00    -0.245 OA
ATOM     23  C   UNL     1     -32.334  18.733   0.805  0.00  0.00    +0.341 C 
BRANCH  23  24
ATOM     24  O   UNL     1     -32.130  17.409   1.084  0.00  0.00    -0.441 OA
ATOM     25  C   UNL     1     -31.483  16.627   0.074  0.00  0.00    +0.256 C 
ENDBRANCH  23  24
ENDBRANCH  17  23
ENDBRANCH  13  14
ENDBRANCH   6  13
BRANCH   5  26
ATOM     26  C   UNL     1     -33.612  25.174   3.464  0.00  0.00    +0.169 C 
BRANCH  26  27
ATOM     27  O   UNL     1     -33.720  25.424   4.853  0.00  0.00    -0.379 OA
ATOM     28  H   UNL     1     -32.873  25.755   5.189  0.00  0.00    +0.211 HD
ENDBRANCH  26  27
ENDBRANCH   5  26
TORSDOF 10
ENDMDL
MODEL 8
REMARK VINA RESULT:      -5.8      2.977      5.228
REMARK  Name = 192694
REMARK  10 active torsions:
REMARK  status: ('A' for Active; 'I' for Inactive)
REMARK    1  A    between atoms: C_2  and  O_7
REMARK    2  A    between atoms: C_3  and  O_9
REMARK    3  A    between atoms: C_4  and  O_11
REMARK    4  A    between atoms: C_5  and  C_26
REMARK    5  A    between atoms: C_6  and  O_13
REMARK    6  A    between atoms: O_13  and  C_14
REMARK    7  A    between atoms: C_16  and  O_20
REMARK    8  A    between atoms: C_17  and  C_23
REMARK    9  A    between atoms: C_23  and  O_24
REMARK   10  A    between atoms: C_26  and  O_27
REMARK                            x       y       z     vdW  Elec       q    Type
REMARK                         _______ _______ _______ _____ _____    ______ ____
ROOT
ATOM      1  O   UNL     1     -35.496  23.637   3.243  0.00  0.00    -0.316 OA
ATOM      2  C   UNL     1     -37.354  25.815   3.013  0.00  0.00    +0.173 C 
ATOM      3  C   UNL     1     -36.408  25.667   4.204  0.00  0.00    +0.169 C 
ATOM      4  C   UNL     1     -37.577  24.474   2.313  0.00  0.00    +0.210 C 
ATOM      5  C   UNL     1     -35.144  24.903   3.802  0.00  0.00    +0.177 C 
ATOM      6  C   UNL     1     -36.252  23.762   2.042  0.00  0.00    +0.318 C 
ENDROOT
BRANCH   2   7
ATOM      7  O   UNL     1     -38.602  26.311   3.498  0.00  0.00    -0.379 OA
ATOM      8  H   UNL     1     -38.723  26.037   4.420  0.00  0.00    +0.211 HD
ENDBRANCH   2   7
BRANCH   3   9
ATOM      9  O   UNL     1     -36.046  26.960   4.682  0.00  0.00    -0.379 OA
ATOM     10  H   UNL     1     -35.125  26.946   4.984  0.00  0.00    +0.211 HD
ENDBRANCH   3   9
BRANCH   4  11
ATOM     11  O   UNL     1     -38.231  24.694   1.063  0.00  0.00    -0.377 OA
ATOM     12  H   UNL     1     -38.424  25.639   0.962  0.00  0.00    +0.211 HD
ENDBRANCH   4  11
BRANCH   6  13
ATOM     13  O   UNL     1     -36.549  22.465   1.522  0.00  0.00    -0.447 OA
BRANCH  13  14
ATOM     14  C   UNL     1     -35.482  21.645   1.278  0.00  0.00    +0.175 C 
ATOM     15  C   UNL     1     -34.446  22.099   0.467  0.00  0.00    +0.047 C 
ATOM     16  C   UNL     1     -35.434  20.369   1.834  0.00  0.00    +0.168 C 
ATOM     17  C   UNL     1     -33.352  21.272   0.210  0.00  0.00    +0.079 C 
ATOM     18  C   UNL     1     -34.340  19.543   1.577  0.00  0.00    +0.040 C 
ATOM     19  C   UNL     1     -33.300  19.994   0.765  0.00  0.00    +0.010 C 
BRANCH  16  20
ATOM     20  O   UNL     1     -36.443  19.917   2.628  0.00  0.00    -0.503 OA
ATOM     21  H   UNL     1     -36.966  20.526   3.112  0.00  0.00    +0.292 HD
ENDBRANCH  16  20
BRANCH  17  23
ATOM     22  O   UNL     1     -31.745  21.077  -1.541  0.00  0.00    -0.245 OA
ATOM     23  C   UNL     1     -32.267  21.742  -0.637  0.00  0.00    +0.341 C 
BRANCH  23  24
ATOM     24  O   UNL     1     -31.890  23.016  -0.309  0.00  0.00    -0.441 OA
ATOM     25  C   UNL     1     -31.727  23.940  -1.391  0.00  0.00    +0.256 C 
ENDBRANCH  23  24
ENDBRANCH  17  23
ENDBRANCH  13  14
ENDBRANCH   6  13
BRANCH   5  26
ATOM     26  C   UNL     1     -34.238  24.641   5.001  0.00  0.00    +0.169 C 
BRANCH  26  27
ATOM     27  O   UNL     1     -33.431  25.785   5.216  0.00  0.00    -0.379 OA
ATOM     28  H   UNL     1     -33.754  26.517   4.667  0.00  0.00    +0.211 HD
ENDBRANCH  26  27
ENDBRANCH   5  26
TORSDOF 10
ENDMDL
MODEL 9
REMARK VINA RESULT:      -5.8      2.189      6.795
REMARK  Name = 192694
REMARK  10 active torsions:
REMARK  status: ('A' for Active; 'I' for Inactive)
REMARK    1  A    between atoms: C_2  and  O_7
REMARK    2  A    between atoms: C_3  and  O_9
REMARK    3  A    between atoms: C_4  and  O_11
REMARK    4  A    between atoms: C_5  and  C_26
REMARK    5  A    between atoms: C_6  and  O_13
REMARK    6  A    between atoms: O_13  and  C_14
REMARK    7  A    between atoms: C_16  and  O_20
REMARK    8  A    between atoms: C_17  and  C_23
REMARK    9  A    between atoms: C_23  and  O_24
REMARK   10  A    between atoms: C_26  and  O_27
REMARK                            x       y       z     vdW  Elec       q    Type
REMARK                         _______ _______ _______ _____ _____    ______ ____
ROOT
ATOM      1  O   UNL     1     -37.059  23.209   4.225  0.00  0.00    -0.316 OA
ATOM      2  C   UNL     1     -35.859  25.809   3.994  0.00  0.00    +0.173 C 
ATOM      3  C   UNL     1     -35.223  24.682   4.808  0.00  0.00    +0.169 C 
ATOM      4  C   UNL     1     -37.360  25.584   3.816  0.00  0.00    +0.210 C 
ATOM      5  C   UNL     1     -35.634  23.315   4.257  0.00  0.00    +0.177 C 
ATOM      6  C   UNL     1     -37.657  24.160   3.348  0.00  0.00    +0.318 C 
ENDROOT
BRANCH   2   7
ATOM      7  O   UNL     1     -35.641  27.035   4.692  0.00  0.00    -0.379 OA
ATOM      8  H   UNL     1     -36.486  27.372   5.027  0.00  0.00    +0.211 HD
ENDBRANCH   2   7
BRANCH   3   9
ATOM      9  O   UNL     1     -33.804  24.805   4.756  0.00  0.00    -0.379 OA
ATOM     10  H   UNL     1     -33.442  24.120   4.173  0.00  0.00    +0.211 HD
ENDBRANCH   3   9
BRANCH   4  11
ATOM     11  O   UNL     1     -37.862  26.491   2.834  0.00  0.00    -0.377 OA
ATOM     12  H   UNL     1     -38.556  27.042   3.229  0.00  0.00    +0.211 HD
ENDBRANCH   4  11
BRANCH   6  13
ATOM     13  O   UNL     1     -39.074  23.985   3.343  0.00  0.00    -0.447 OA
BRANCH  13  14
ATOM     14  C   UNL     1     -39.630  23.516   2.184  0.00  0.00    +0.175 C 
ATOM     15  C   UNL     1     -40.425  24.365   1.419  0.00  0.00    +0.047 C 
ATOM     16  C   UNL     1     -39.402  22.205   1.775  0.00  0.00    +0.168 C 
ATOM     17  C   UNL     1     -40.997  23.899   0.235  0.00  0.00    +0.079 C 
ATOM     18  C   UNL     1     -39.974  21.740   0.591  0.00  0.00    +0.040 C 
ATOM     19  C   UNL     1     -40.771  22.586  -0.178  0.00  0.00    +0.010 C 
BRANCH  16  20
ATOM     20  O   UNL     1     -38.624  21.369   2.518  0.00  0.00    -0.503 OA
ATOM     21  H   UNL     1     -38.868  21.162   3.399  0.00  0.00    +0.292 HD
ENDBRANCH  16  20
BRANCH  17  23
ATOM     22  O   UNL     1     -41.666  24.987  -1.777  0.00  0.00    -0.245 OA
ATOM     23  C   UNL     1     -41.829  24.781  -0.568  0.00  0.00    +0.341 C 
BRANCH  23  24
ATOM     24  O   UNL     1     -42.818  25.357   0.180  0.00  0.00    -0.441 OA
ATOM     25  C   UNL     1     -44.004  24.582   0.392  0.00  0.00    +0.256 C 
ENDBRANCH  23  24
ENDBRANCH  17  23
ENDBRANCH  13  14
ENDBRANCH   6  13
BRANCH   5  26
ATOM     26  C   UNL     1     -35.107  22.175   5.123  0.00  0.00    +0.169 C 
BRANCH  26  27
ATOM     27  O   UNL     1     -36.035  21.934   6.165  0.00  0.00    -0.379 OA
ATOM     28  H   UNL     1     -36.907  21.742   5.785  0.00  0.00    +0.211 HD
ENDBRANCH  26  27
ENDBRANCH   5  26
TORSDOF 10
ENDMDL
