MODEL 1
REMARK VINA RESULT:      -6.8      0.000      0.000
REMARK  Name = 193474
REMARK  8 active torsions:
REMARK  status: ('A' for Active; 'I' for Inactive)
REMARK    1  A    between atoms: C_6  and  C_26
REMARK    2  A    between atoms: C_7  and  O_20
REMARK    3  A    between atoms: C_11  and  O_22
REMARK    4  A    between atoms: C_19  and  O_24
REMARK    5  A    between atoms: C_26  and  C_28
REMARK    6  A    between atoms: C_28  and  C_29
REMARK    7  A    between atoms: C_29  and  C_32
REMARK    8  A    between atoms: N_31  and  O_34
REMARK                            x       y       z     vdW  Elec       q    Type
REMARK                         _______ _______ _______ _____ _____    ______ ____
ROOT
ATOM      1  C   UNL     1     -36.071  22.547   2.453  0.00  0.00    +0.025 C 
ATOM      2  C   UNL     1     -37.476  22.224   1.890  0.00  0.00    +0.005 C 
ATOM      3  C   UNL     1     -37.440  21.684   0.452  0.00  0.00    +0.027 C 
ATOM      4  C   UNL     1     -36.579  20.376   0.422  0.00  0.00    +0.005 C 
ATOM      5  C   UNL     1     -36.498  19.766  -1.031  0.00  0.00    +0.000 C 
ATOM      6  C   UNL     1     -36.490  23.122   3.831  0.00  0.00    +0.002 C 
ATOM      7  C   UNL     1     -35.234  21.253   2.483  0.00  0.00    +0.110 C 
ATOM      8  C   UNL     1     -35.189  20.574   1.097  0.00  0.00    +0.029 C 
ATOM      9  C   UNL     1     -37.946  19.515  -1.568  0.00  0.00    +0.005 C 
ATOM     10  C   UNL     1     -38.279  23.493   2.172  0.00  0.00    +0.000 C 
ATOM     11  C   UNL     1     -38.852  21.458  -0.122  0.00  0.00    +0.110 C 
ATOM     12  C   UNL     1     -37.708  24.015   3.503  0.00  0.00    +0.000 C 
ATOM     13  C   UNL     1     -38.827  20.779  -1.494  0.00  0.00    +0.029 C 
ATOM     14  C   UNL     1     -35.712  18.421  -1.073  0.00  0.00    +0.002 C 
ATOM     15  C   UNL     1     -35.304  23.614   1.623  0.00  0.00    +0.002 C 
ATOM     16  C   UNL     1     -38.639  18.312  -0.893  0.00  0.00    +0.029 C 
ATOM     17  C   UNL     1     -35.752  20.720  -2.001  0.00  0.00    +0.000 C 
ATOM     18  C   UNL     1     -36.416  17.266  -0.373  0.00  0.00    +0.029 C 
ATOM     19  C   UNL     1     -37.800  17.041  -0.965  0.00  0.00    +0.111 C 
ENDROOT
BRANCH   7  20
ATOM     20  O   UNL     1     -35.721  20.321   3.449  0.00  0.00    -0.384 OA
ATOM     21  H   UNL     1     -36.312  19.686   3.014  0.00  0.00    +0.210 HD
ENDBRANCH   7  20
BRANCH  11  22
ATOM     22  O   UNL     1     -39.641  20.698   0.789  0.00  0.00    -0.384 OA
ATOM     23  H   UNL     1     -39.624  19.764   0.531  0.00  0.00    +0.210 HD
ENDBRANCH  11  22
BRANCH  19  24
ATOM     24  O   UNL     1     -38.441  16.001  -0.233  0.00  0.00    -0.384 OA
ATOM     25  H   UNL     1     -38.715  16.339   0.635  0.00  0.00    +0.210 HD
ENDBRANCH  19  24
BRANCH   6  26
ATOM     26  C   UNL     1     -35.412  23.854   4.617  0.00  0.00    +0.001 C 
ATOM     27  C   UNL     1     -34.975  23.010   5.819  0.00  0.00    +0.000 C 
BRANCH  26  28
ATOM     28  C   UNL     1     -35.870  25.245   5.102  0.00  0.00    +0.010 C 
BRANCH  28  29
ATOM     29  C   UNL     1     -35.129  26.398   4.424  0.00  0.00    +0.087 C 
BRANCH  29  32
ATOM     30  O   UNL     1     -32.724  26.581   4.215  0.00  0.00    -0.273 OA
ATOM     31  N   UNL     1     -33.685  26.666   6.314  0.00  0.00    -0.197 N 
ATOM     32  C   UNL     1     -33.712  26.561   4.944  0.00  0.00    +0.244 C 
ATOM     33  H   UNL     1     -34.506  26.644   6.857  0.00  0.00    +0.182 HD
BRANCH  31  34
ATOM     34  O   UNL     1     -32.415  26.806   6.890  0.00  0.00    -0.295 OA
ATOM     35  H   UNL     1     -32.137  27.734   6.838  0.00  0.00    +0.241 HD
ENDBRANCH  31  34
ENDBRANCH  29  32
ENDBRANCH  28  29
ENDBRANCH  26  28
ENDBRANCH   6  26
TORSDOF 8
ENDMDL
MODEL 2
REMARK VINA RESULT:      -6.7      1.105      1.338
REMARK  Name = 193474
REMARK  8 active torsions:
REMARK  status: ('A' for Active; 'I' for Inactive)
REMARK    1  A    between atoms: C_6  and  C_26
REMARK    2  A    between atoms: C_7  and  O_20
REMARK    3  A    between atoms: C_11  and  O_22
REMARK    4  A    between atoms: C_19  and  O_24
REMARK    5  A    between atoms: C_26  and  C_28
REMARK    6  A    between atoms: C_28  and  C_29
REMARK    7  A    between atoms: C_29  and  C_32
REMARK    8  A    between atoms: N_31  and  O_34
REMARK                            x       y       z     vdW  Elec       q    Type
REMARK                         _______ _______ _______ _____ _____    ______ ____
ROOT
ATOM      1  C   UNL     1     -35.894  22.587   2.627  0.00  0.00    +0.025 C 
ATOM      2  C   UNL     1     -37.283  22.642   1.948  0.00  0.00    +0.005 C 
ATOM      3  C   UNL     1     -37.246  22.237   0.467  0.00  0.00    +0.027 C 
ATOM      4  C   UNL     1     -36.694  20.775   0.353  0.00  0.00    +0.005 C 
ATOM      5  C   UNL     1     -36.628  20.293  -1.148  0.00  0.00    +0.000 C 
ATOM      6  C   UNL     1     -36.291  23.118   4.030  0.00  0.00    +0.002 C 
ATOM      7  C   UNL     1     -35.367  21.139   2.574  0.00  0.00    +0.110 C 
ATOM      8  C   UNL     1     -35.357  20.592   1.130  0.00  0.00    +0.029 C 
ATOM      9  C   UNL     1     -38.045  20.426  -1.798  0.00  0.00    +0.005 C 
ATOM     10  C   UNL     1     -37.808  24.030   2.311  0.00  0.00    +0.000 C 
ATOM     11  C   UNL     1     -38.620  22.389  -0.214  0.00  0.00    +0.110 C 
ATOM     12  C   UNL     1     -37.251  24.290   3.722  0.00  0.00    +0.000 C 
ATOM     13  C   UNL     1     -38.630  21.846  -1.646  0.00  0.00    +0.029 C 
ATOM     14  C   UNL     1     -36.155  18.815  -1.282  0.00  0.00    +0.002 C 
ATOM     15  C   UNL     1     -34.844  23.522   1.963  0.00  0.00    +0.002 C 
ATOM     16  C   UNL     1     -39.040  19.357  -1.296  0.00  0.00    +0.029 C 
ATOM     17  C   UNL     1     -35.611  21.135  -1.965  0.00  0.00    +0.000 C 
ATOM     18  C   UNL     1     -37.152  17.793  -0.751  0.00  0.00    +0.029 C 
ATOM     19  C   UNL     1     -38.497  17.940  -1.449  0.00  0.00    +0.111 C 
ENDROOT
BRANCH   7  20
ATOM     20  O   UNL     1     -36.126  20.261   3.405  0.00  0.00    -0.384 OA
ATOM     21  H   UNL     1     -35.600  19.472   3.606  0.00  0.00    +0.210 HD
ENDBRANCH   7  20
BRANCH  11  22
ATOM     22  O   UNL     1     -39.631  21.750   0.561  0.00  0.00    -0.384 OA
ATOM     23  H   UNL     1     -39.216  21.189   1.234  0.00  0.00    +0.210 HD
ENDBRANCH  11  22
BRANCH  19  24
ATOM     24  O   UNL     1     -39.410  17.013  -0.871  0.00  0.00    -0.384 OA
ATOM     25  H   UNL     1     -39.449  17.152   0.089  0.00  0.00    +0.210 HD
ENDBRANCH  19  24
BRANCH   6  26
ATOM     26  C   UNL     1     -35.148  23.514   4.953  0.00  0.00    +0.001 C 
ATOM     27  C   UNL     1     -34.935  22.433   6.018  0.00  0.00    +0.000 C 
BRANCH  26  28
ATOM     28  C   UNL     1     -35.382  24.876   5.640  0.00  0.00    +0.010 C 
BRANCH  28  29
ATOM     29  C   UNL     1     -34.188  25.825   5.529  0.00  0.00    +0.087 C 
BRANCH  29  32
ATOM     30  O   UNL     1     -33.298  26.653   3.435  0.00  0.00    -0.273 OA
ATOM     31  N   UNL     1     -35.380  27.367   4.139  0.00  0.00    -0.197 N 
ATOM     32  C   UNL     1     -34.217  26.643   4.251  0.00  0.00    +0.244 C 
ATOM     33  H   UNL     1     -36.089  27.326   4.821  0.00  0.00    +0.182 HD
BRANCH  31  34
ATOM     34  O   UNL     1     -35.492  28.168   2.994  0.00  0.00    -0.295 OA
ATOM     35  H   UNL     1     -36.430  28.317   2.796  0.00  0.00    +0.241 HD
ENDBRANCH  31  34
ENDBRANCH  29  32
ENDBRANCH  28  29
ENDBRANCH  26  28
ENDBRANCH   6  26
TORSDOF 8
ENDMDL
MODEL 3
REMARK VINA RESULT:      -6.6      3.983      9.916
REMARK  Name = 193474
REMARK  8 active torsions:
REMARK  status: ('A' for Active; 'I' for Inactive)
REMARK    1  A    between atoms: C_6  and  C_26
REMARK    2  A    between atoms: C_7  and  O_20
REMARK    3  A    between atoms: C_11  and  O_22
REMARK    4  A    between atoms: C_19  and  O_24
REMARK    5  A    between atoms: C_26  and  C_28
REMARK    6  A    between atoms: C_28  and  C_29
REMARK    7  A    between atoms: C_29  and  C_32
REMARK    8  A    between atoms: N_31  and  O_34
REMARK                            x       y       z     vdW  Elec       q    Type
REMARK                         _______ _______ _______ _____ _____    ______ ____
ROOT
ATOM      1  C   UNL     1     -34.399  26.653   3.386  0.00  0.00    +0.025 C 
ATOM      2  C   UNL     1     -33.684  27.311   4.590  0.00  0.00    +0.005 C 
ATOM      3  C   UNL     1     -32.256  27.774   4.264  0.00  0.00    +0.027 C 
ATOM      4  C   UNL     1     -32.313  28.812   3.093  0.00  0.00    +0.005 C 
ATOM      5  C   UNL     1     -30.875  29.330   2.703  0.00  0.00    +0.000 C 
ATOM      6  C   UNL     1     -35.726  26.254   4.083  0.00  0.00    +0.002 C 
ATOM      7  C   UNL     1     -34.514  27.686   2.247  0.00  0.00    +0.110 C 
ATOM      8  C   UNL     1     -33.137  28.283   1.882  0.00  0.00    +0.029 C 
ATOM      9  C   UNL     1     -30.180  29.930   3.970  0.00  0.00    +0.005 C 
ATOM     10  C   UNL     1     -33.883  26.304   5.723  0.00  0.00    +0.000 C 
ATOM     11  C   UNL     1     -31.529  28.339   5.500  0.00  0.00    +0.110 C 
ATOM     12  C   UNL     1     -35.271  25.697   5.451  0.00  0.00    +0.000 C 
ATOM     13  C   UNL     1     -30.164  28.941   5.155  0.00  0.00    +0.029 C 
ATOM     14  C   UNL     1     -30.912  30.422   1.592  0.00  0.00    +0.002 C 
ATOM     15  C   UNL     1     -33.664  25.396   2.843  0.00  0.00    +0.002 C 
ATOM     16  C   UNL     1     -30.768  31.294   4.391  0.00  0.00    +0.029 C 
ATOM     17  C   UNL     1     -29.997  28.182   2.136  0.00  0.00    +0.000 C 
ATOM     18  C   UNL     1     -31.525  31.743   2.039  0.00  0.00    +0.029 C 
ATOM     19  C   UNL     1     -30.782  32.300   3.246  0.00  0.00    +0.111 C 
ENDROOT
BRANCH   7  20
ATOM     20  O   UNL     1     -35.415  28.744   2.572  0.00  0.00    -0.384 OA
ATOM     21  H   UNL     1     -35.113  29.565   2.153  0.00  0.00    +0.210 HD
ENDBRANCH   7  20
BRANCH  11  22
ATOM     22  O   UNL     1     -32.343  29.308   6.154  0.00  0.00    -0.384 OA
ATOM     23  H   UNL     1     -33.049  29.596   5.554  0.00  0.00    +0.210 HD
ENDBRANCH  11  22
BRANCH  19  24
ATOM     24  O   UNL     1     -31.434  33.495   3.665  0.00  0.00    -0.384 OA
ATOM     25  H   UNL     1     -31.408  34.147   2.946  0.00  0.00    +0.210 HD
ENDBRANCH  19  24
BRANCH   6  26
ATOM     26  C   UNL     1     -36.629  25.294   3.322  0.00  0.00    +0.001 C 
ATOM     27  C   UNL     1     -38.030  25.898   3.175  0.00  0.00    +0.000 C 
BRANCH  26  28
ATOM     28  C   UNL     1     -36.732  23.911   3.999  0.00  0.00    +0.010 C 
BRANCH  28  29
ATOM     29  C   UNL     1     -36.335  22.755   3.080  0.00  0.00    +0.087 C 
BRANCH  29  32
ATOM     30  O   UNL     1     -35.257  20.598   3.298  0.00  0.00    -0.273 OA
ATOM     31  N   UNL     1     -35.835  21.770   5.204  0.00  0.00    -0.197 N 
ATOM     32  C   UNL     1     -35.743  21.585   3.845  0.00  0.00    +0.244 C 
ATOM     33  H   UNL     1     -36.235  22.581   5.595  0.00  0.00    +0.182 HD
BRANCH  31  34
ATOM     34  O   UNL     1     -35.327  20.732   5.996  0.00  0.00    -0.295 OA
ATOM     35  H   UNL     1     -34.535  20.363   5.575  0.00  0.00    +0.241 HD
ENDBRANCH  31  34
ENDBRANCH  29  32
ENDBRANCH  28  29
ENDBRANCH  26  28
ENDBRANCH   6  26
TORSDOF 8
ENDMDL
MODEL 4
REMARK VINA RESULT:      -6.5      4.317      7.489
REMARK  Name = 193474
REMARK  8 active torsions:
REMARK  status: ('A' for Active; 'I' for Inactive)
REMARK    1  A    between atoms: C_6  and  C_26
REMARK    2  A    between atoms: C_7  and  O_20
REMARK    3  A    between atoms: C_11  and  O_22
REMARK    4  A    between atoms: C_19  and  O_24
REMARK    5  A    between atoms: C_26  and  C_28
REMARK    6  A    between atoms: C_28  and  C_29
REMARK    7  A    between atoms: C_29  and  C_32
REMARK    8  A    between atoms: N_31  and  O_34
REMARK                            x       y       z     vdW  Elec       q    Type
REMARK                         _______ _______ _______ _____ _____    ______ ____
ROOT
ATOM      1  C   UNL     1     -39.713  25.008   1.656  0.00  0.00    +0.025 C 
ATOM      2  C   UNL     1     -39.342  23.519   1.453  0.00  0.00    +0.005 C 
ATOM      3  C   UNL     1     -37.826  23.277   1.404  0.00  0.00    +0.027 C 
ATOM      4  C   UNL     1     -37.190  23.768   2.748  0.00  0.00    +0.005 C 
ATOM      5  C   UNL     1     -35.627  23.550   2.766  0.00  0.00    +0.000 C 
ATOM      6  C   UNL     1     -41.257  24.885   1.574  0.00  0.00    +0.002 C 
ATOM      7  C   UNL     1     -39.141  25.487   3.005  0.00  0.00    +0.110 C 
ATOM      8  C   UNL     1     -37.623  25.222   3.104  0.00  0.00    +0.029 C 
ATOM      9  C   UNL     1     -35.312  22.041   2.498  0.00  0.00    +0.005 C 
ATOM     10  C   UNL     1     -40.187  23.097   0.251  0.00  0.00    +0.000 C 
ATOM     11  C   UNL     1     -37.480  21.805   1.107  0.00  0.00    +0.110 C 
ATOM     12  C   UNL     1     -41.487  23.909   0.397  0.00  0.00    +0.000 C 
ATOM     13  C   UNL     1     -35.979  21.523   1.207  0.00  0.00    +0.029 C 
ATOM     14  C   UNL     1     -34.981  23.960   4.123  0.00  0.00    +0.002 C 
ATOM     15  C   UNL     1     -39.176  25.937   0.532  0.00  0.00    +0.002 C 
ATOM     16  C   UNL     1     -35.647  21.133   3.701  0.00  0.00    +0.029 C 
ATOM     17  C   UNL     1     -34.925  24.417   1.687  0.00  0.00    +0.000 C 
ATOM     18  C   UNL     1     -35.357  23.056   5.290  0.00  0.00    +0.029 C 
ATOM     19  C   UNL     1     -34.989  21.610   4.992  0.00  0.00    +0.111 C 
ENDROOT
BRANCH   7  20
ATOM     20  O   UNL     1     -39.799  24.874   4.114  0.00  0.00    -0.384 OA
ATOM     21  H   UNL     1     -39.176  24.293   4.578  0.00  0.00    +0.210 HD
ENDBRANCH   7  20
BRANCH  11  22
ATOM     22  O   UNL     1     -38.202  20.940   1.980  0.00  0.00    -0.384 OA
ATOM     23  H   UNL     1     -39.132  21.214   2.010  0.00  0.00    +0.210 HD
ENDBRANCH  11  22
BRANCH  19  24
ATOM     24  O   UNL     1     -35.423  20.799   6.078  0.00  0.00    -0.384 OA
ATOM     25  H   UNL     1     -35.729  21.367   6.803  0.00  0.00    +0.210 HD
ENDBRANCH  19  24
BRANCH   6  26
ATOM     26  C   UNL     1     -42.034  26.185   1.426  0.00  0.00    +0.001 C 
ATOM     27  C   UNL     1     -42.325  26.782   2.808  0.00  0.00    +0.000 C 
BRANCH  26  28
ATOM     28  C   UNL     1     -43.357  26.003   0.654  0.00  0.00    +0.010 C 
BRANCH  28  29
ATOM     29  C   UNL     1     -44.593  26.026   1.554  0.00  0.00    +0.087 C 
BRANCH  29  32
ATOM     30  O   UNL     1     -44.954  23.710   0.950  0.00  0.00    -0.273 OA
ATOM     31  N   UNL     1     -46.225  24.649   2.636  0.00  0.00    -0.197 N 
ATOM     32  C   UNL     1     -45.255  24.665   1.663  0.00  0.00    +0.244 C 
ATOM     33  H   UNL     1     -46.430  25.443   3.182  0.00  0.00    +0.182 HD
BRANCH  31  34
ATOM     34  O   UNL     1     -46.904  23.435   2.801  0.00  0.00    -0.295 OA
ATOM     35  H   UNL     1     -47.337  23.191   1.969  0.00  0.00    +0.241 HD
ENDBRANCH  31  34
ENDBRANCH  29  32
ENDBRANCH  28  29
ENDBRANCH  26  28
ENDBRANCH   6  26
TORSDOF 8
ENDMDL
MODEL 5
REMARK VINA RESULT:      -6.4      4.376      6.862
REMARK  Name = 193474
REMARK  8 active torsions:
REMARK  status: ('A' for Active; 'I' for Inactive)
REMARK    1  A    between atoms: C_6  and  C_26
REMARK    2  A    between atoms: C_7  and  O_20
REMARK    3  A    between atoms: C_11  and  O_22
REMARK    4  A    between atoms: C_19  and  O_24
REMARK    5  A    between atoms: C_26  and  C_28
REMARK    6  A    between atoms: C_28  and  C_29
REMARK    7  A    between atoms: C_29  and  C_32
REMARK    8  A    between atoms: N_31  and  O_34
REMARK                            x       y       z     vdW  Elec       q    Type
REMARK                         _______ _______ _______ _____ _____    ______ ____
ROOT
ATOM      1  C   UNL     1     -39.632  25.371   1.757  0.00  0.00    +0.025 C 
ATOM      2  C   UNL     1     -39.162  23.946   1.377  0.00  0.00    +0.005 C 
ATOM      3  C   UNL     1     -37.638  23.774   1.451  0.00  0.00    +0.027 C 
ATOM      4  C   UNL     1     -37.162  24.080   2.911  0.00  0.00    +0.005 C 
ATOM      5  C   UNL     1     -35.599  23.923   3.060  0.00  0.00    +0.000 C 
ATOM      6  C   UNL     1     -41.151  25.201   1.498  0.00  0.00    +0.002 C 
ATOM      7  C   UNL     1     -39.220  25.660   3.215  0.00  0.00    +0.110 C 
ATOM      8  C   UNL     1     -37.707  25.443   3.431  0.00  0.00    +0.029 C 
ATOM      9  C   UNL     1     -35.178  22.486   2.606  0.00  0.00    +0.005 C 
ATOM     10  C   UNL     1     -39.862  23.679   0.044  0.00  0.00    +0.000 C 
ATOM     11  C   UNL     1     -37.185  22.379   0.977  0.00  0.00    +0.110 C 
ATOM     12  C   UNL     1     -41.213  24.407   0.172  0.00  0.00    +0.000 C 
ATOM     13  C   UNL     1     -35.687  22.144   1.190  0.00  0.00    +0.029 C 
ATOM     14  C   UNL     1     -35.111  24.146   4.522  0.00  0.00    +0.002 C 
ATOM     15  C   UNL     1     -39.039  26.480   0.845  0.00  0.00    +0.002 C 
ATOM     16  C   UNL     1     -35.578  21.393   3.621  0.00  0.00    +0.029 C 
ATOM     17  C   UNL     1     -34.844  24.970   2.199  0.00  0.00    +0.000 C 
ATOM     18  C   UNL     1     -35.549  23.061   5.497  0.00  0.00    +0.029 C 
ATOM     19  C   UNL     1     -35.075  21.692   5.029  0.00  0.00    +0.111 C 
ENDROOT
BRANCH   7  20
ATOM     20  O   UNL     1     -39.948  24.861   4.147  0.00  0.00    -0.384 OA
ATOM     21  H   UNL     1     -40.254  24.051   3.708  0.00  0.00    +0.210 HD
ENDBRANCH   7  20
BRANCH  11  22
ATOM     22  O   UNL     1     -37.940  21.364   1.633  0.00  0.00    -0.384 OA
ATOM     23  H   UNL     1     -38.884  21.580   1.585  0.00  0.00    +0.210 HD
ENDBRANCH  11  22
BRANCH  19  24
ATOM     24  O   UNL     1     -35.567  20.709   5.933  0.00  0.00    -0.384 OA
ATOM     25  H   UNL     1     -36.067  21.144   6.643  0.00  0.00    +0.210 HD
ENDBRANCH  19  24
BRANCH   6  26
ATOM     26  C   UNL     1     -41.980  26.477   1.463  0.00  0.00    +0.001 C 
ATOM     27  C   UNL     1     -43.195  26.338   2.387  0.00  0.00    +0.000 C 
BRANCH  26  28
ATOM     28  C   UNL     1     -42.452  26.842   0.040  0.00  0.00    +0.010 C 
BRANCH  28  29
ATOM     29  C   UNL     1     -42.933  28.288  -0.087  0.00  0.00    +0.087 C 
BRANCH  29  32
ATOM     30  O   UNL     1     -42.087  29.890   1.519  0.00  0.00    -0.273 OA
ATOM     31  N   UNL     1     -40.841  29.417  -0.369  0.00  0.00    -0.197 N 
ATOM     32  C   UNL     1     -41.926  29.282   0.464  0.00  0.00    +0.244 C 
ATOM     33  H   UNL     1     -40.758  28.907  -1.206  0.00  0.00    +0.182 HD
BRANCH  31  34
ATOM     34  O   UNL     1     -39.861  30.328   0.050  0.00  0.00    -0.295 OA
ATOM     35  H   UNL     1     -40.230  30.906   0.736  0.00  0.00    +0.241 HD
ENDBRANCH  31  34
ENDBRANCH  29  32
ENDBRANCH  28  29
ENDBRANCH  26  28
ENDBRANCH   6  26
TORSDOF 8
ENDMDL
MODEL 6
REMARK VINA RESULT:      -6.3      3.241      5.690
REMARK  Name = 193474
REMARK  8 active torsions:
REMARK  status: ('A' for Active; 'I' for Inactive)
REMARK    1  A    between atoms: C_6  and  C_26
REMARK    2  A    between atoms: C_7  and  O_20
REMARK    3  A    between atoms: C_11  and  O_22
REMARK    4  A    between atoms: C_19  and  O_24
REMARK    5  A    between atoms: C_26  and  C_28
REMARK    6  A    between atoms: C_28  and  C_29
REMARK    7  A    between atoms: C_29  and  C_32
REMARK    8  A    between atoms: N_31  and  O_34
REMARK                            x       y       z     vdW  Elec       q    Type
REMARK                         _______ _______ _______ _____ _____    ______ ____
ROOT
ATOM      1  C   UNL     1     -33.421  26.812   3.603  0.00  0.00    +0.025 C 
ATOM      2  C   UNL     1     -33.906  25.612   4.451  0.00  0.00    +0.005 C 
ATOM      3  C   UNL     1     -35.059  24.837   3.795  0.00  0.00    +0.027 C 
ATOM      4  C   UNL     1     -34.585  24.302   2.402  0.00  0.00    +0.005 C 
ATOM      5  C   UNL     1     -35.726  23.495   1.669  0.00  0.00    +0.000 C 
ATOM      6  C   UNL     1     -32.355  27.379   4.577  0.00  0.00    +0.002 C 
ATOM      7  C   UNL     1     -32.896  26.290   2.251  0.00  0.00    +0.110 C 
ATOM      8  C   UNL     1     -33.952  25.426   1.528  0.00  0.00    +0.029 C 
ATOM      9  C   UNL     1     -36.215  22.333   2.596  0.00  0.00    +0.005 C 
ATOM     10  C   UNL     1     -34.128  26.215   5.837  0.00  0.00    +0.000 C 
ATOM     11  C   UNL     1     -35.589  23.706   4.697  0.00  0.00    +0.110 C 
ATOM     12  C   UNL     1     -33.037  27.294   5.961  0.00  0.00    +0.000 C 
ATOM     13  C   UNL     1     -36.633  22.834   3.994  0.00  0.00    +0.029 C 
ATOM     14  C   UNL     1     -35.253  22.887   0.315  0.00  0.00    +0.002 C 
ATOM     15  C   UNL     1     -34.532  27.865   3.331  0.00  0.00    +0.002 C 
ATOM     16  C   UNL     1     -35.197  21.177   2.700  0.00  0.00    +0.029 C 
ATOM     17  C   UNL     1     -36.929  24.411   1.322  0.00  0.00    +0.000 C 
ATOM     18  C   UNL     1     -34.230  21.768   0.459  0.00  0.00    +0.029 C 
ATOM     19  C   UNL     1     -34.775  20.647   1.333  0.00  0.00    +0.111 C 
ENDROOT
BRANCH   7  20
ATOM     20  O   UNL     1     -31.691  25.538   2.397  0.00  0.00    -0.384 OA
ATOM     21  H   UNL     1     -31.229  25.823   3.201  0.00  0.00    +0.210 HD
ENDBRANCH   7  20
BRANCH  11  22
ATOM     22  O   UNL     1     -34.512  22.901   5.167  0.00  0.00    -0.384 OA
ATOM     23  H   UNL     1     -34.743  21.963   5.074  0.00  0.00    +0.210 HD
ENDBRANCH  11  22
BRANCH  19  24
ATOM     24  O   UNL     1     -33.760  19.663   1.493  0.00  0.00    -0.384 OA
ATOM     25  H   UNL     1     -34.045  18.833   1.077  0.00  0.00    +0.210 HD
ENDBRANCH  19  24
BRANCH   6  26
ATOM     26  C   UNL     1     -31.822  28.769   4.263  0.00  0.00    +0.001 C 
ATOM     27  C   UNL     1     -30.604  28.668   3.338  0.00  0.00    +0.000 C 
BRANCH  26  28
ATOM     28  C   UNL     1     -31.441  29.562   5.531  0.00  0.00    +0.010 C 
BRANCH  28  29
ATOM     29  C   UNL     1     -29.936  29.789   5.676  0.00  0.00    +0.087 C 
BRANCH  29  32
ATOM     30  O   UNL     1     -29.273  27.621   6.527  0.00  0.00    -0.273 OA
ATOM     31  N   UNL     1     -28.788  29.515   7.758  0.00  0.00    -0.197 N 
ATOM     32  C   UNL     1     -29.302  28.840   6.677  0.00  0.00    +0.244 C 
ATOM     33  H   UNL     1     -28.836  30.496   7.833  0.00  0.00    +0.182 HD
BRANCH  31  34
ATOM     34  O   UNL     1     -28.192  28.720   8.747  0.00  0.00    -0.295 OA
ATOM     35  H   UNL     1     -28.873  28.410   9.365  0.00  0.00    +0.241 HD
ENDBRANCH  31  34
ENDBRANCH  29  32
ENDBRANCH  28  29
ENDBRANCH  26  28
ENDBRANCH   6  26
TORSDOF 8
ENDMDL
MODEL 7
REMARK VINA RESULT:      -6.3      4.434      6.810
REMARK  Name = 193474
REMARK  8 active torsions:
REMARK  status: ('A' for Active; 'I' for Inactive)
REMARK    1  A    between atoms: C_6  and  C_26
REMARK    2  A    between atoms: C_7  and  O_20
REMARK    3  A    between atoms: C_11  and  O_22
REMARK    4  A    between atoms: C_19  and  O_24
REMARK    5  A    between atoms: C_26  and  C_28
REMARK    6  A    between atoms: C_28  and  C_29
REMARK    7  A    between atoms: C_29  and  C_32
REMARK    8  A    between atoms: N_31  and  O_34
REMARK                            x       y       z     vdW  Elec       q    Type
REMARK                         _______ _______ _______ _____ _____    ______ ____
ROOT
ATOM      1  C   UNL     1     -39.798  24.920   1.567  0.00  0.00    +0.025 C 
ATOM      2  C   UNL     1     -39.318  23.463   1.367  0.00  0.00    +0.005 C 
ATOM      3  C   UNL     1     -37.788  23.322   1.404  0.00  0.00    +0.027 C 
ATOM      4  C   UNL     1     -37.265  23.831   2.789  0.00  0.00    +0.005 C 
ATOM      5  C   UNL     1     -35.695  23.716   2.896  0.00  0.00    +0.000 C 
ATOM      6  C   UNL     1     -41.323  24.697   1.393  0.00  0.00    +0.002 C 
ATOM      7  C   UNL     1     -39.339  25.412   2.954  0.00  0.00    +0.110 C 
ATOM      8  C   UNL     1     -37.814  25.247   3.138  0.00  0.00    +0.029 C 
ATOM      9  C   UNL     1     -35.265  22.236   2.627  0.00  0.00    +0.005 C 
ATOM     10  C   UNL     1     -40.061  23.007   0.112  0.00  0.00    +0.000 C 
ATOM     11  C   UNL     1     -37.328  21.881   1.108  0.00  0.00    +0.110 C 
ATOM     12  C   UNL     1     -41.419  23.728   0.192  0.00  0.00    +0.000 C 
ATOM     13  C   UNL     1     -35.819  21.697   1.292  0.00  0.00    +0.029 C 
ATOM     14  C   UNL     1     -35.157  24.145   4.294  0.00  0.00    +0.002 C 
ATOM     15  C   UNL     1     -39.260  25.902   0.489  0.00  0.00    +0.002 C 
ATOM     16  C   UNL     1     -35.608  21.288   3.796  0.00  0.00    +0.029 C 
ATOM     17  C   UNL     1     -34.991  24.646   1.872  0.00  0.00    +0.000 C 
ATOM     18  C   UNL     1     -35.539  23.198   5.425  0.00  0.00    +0.029 C 
ATOM     19  C   UNL     1     -35.058  21.784   5.130  0.00  0.00    +0.111 C 
ENDROOT
BRANCH   7  20
ATOM     20  O   UNL     1     -40.017  24.739   4.014  0.00  0.00    -0.384 OA
ATOM     21  H   UNL     1     -40.854  24.376   3.683  0.00  0.00    +0.210 HD
ENDBRANCH   7  20
BRANCH  11  22
ATOM     22  O   UNL     1     -38.040  20.956   1.925  0.00  0.00    -0.384 OA
ATOM     23  H   UNL     1     -37.463  20.644   2.640  0.00  0.00    +0.210 HD
ENDBRANCH  11  22
BRANCH  19  24
ATOM     24  O   UNL     1     -35.499  20.928   6.178  0.00  0.00    -0.384 OA
ATOM     25  H   UNL     1     -34.820  20.257   6.355  0.00  0.00    +0.210 HD
ENDBRANCH  19  24
BRANCH   6  26
ATOM     26  C   UNL     1     -42.175  25.945   1.217  0.00  0.00    +0.001 C 
ATOM     27  C   UNL     1     -42.061  26.460  -0.223  0.00  0.00    +0.000 C 
BRANCH  26  28
ATOM     28  C   UNL     1     -41.790  27.072   2.199  0.00  0.00    +0.010 C 
BRANCH  28  29
ATOM     29  C   UNL     1     -42.660  27.104   3.456  0.00  0.00    +0.087 C 
BRANCH  29  32
ATOM     30  O   UNL     1     -41.998  28.947   4.879  0.00  0.00    -0.273 OA
ATOM     31  N   UNL     1     -43.862  29.172   3.533  0.00  0.00    -0.197 N 
ATOM     32  C   UNL     1     -42.778  28.499   4.042  0.00  0.00    +0.244 C 
ATOM     33  H   UNL     1     -44.461  28.769   2.863  0.00  0.00    +0.182 HD
BRANCH  31  34
ATOM     34  O   UNL     1     -44.063  30.468   4.027  0.00  0.00    -0.295 OA
ATOM     35  H   UNL     1     -43.767  30.511   4.950  0.00  0.00    +0.241 HD
ENDBRANCH  31  34
ENDBRANCH  29  32
ENDBRANCH  28  29
ENDBRANCH  26  28
ENDBRANCH   6  26
TORSDOF 8
ENDMDL
MODEL 8
REMARK VINA RESULT:      -6.2      4.966     10.576
REMARK  Name = 193474
REMARK  8 active torsions:
REMARK  status: ('A' for Active; 'I' for Inactive)
REMARK    1  A    between atoms: C_6  and  C_26
REMARK    2  A    between atoms: C_7  and  O_20
REMARK    3  A    between atoms: C_11  and  O_22
REMARK    4  A    between atoms: C_19  and  O_24
REMARK    5  A    between atoms: C_26  and  C_28
REMARK    6  A    between atoms: C_28  and  C_29
REMARK    7  A    between atoms: C_29  and  C_32
REMARK    8  A    between atoms: N_31  and  O_34
REMARK                            x       y       z     vdW  Elec       q    Type
REMARK                         _______ _______ _______ _____ _____    ______ ____
ROOT
ATOM      1  C   UNL     1     -33.547  27.430   3.634  0.00  0.00    +0.025 C 
ATOM      2  C   UNL     1     -32.809  28.461   4.521  0.00  0.00    +0.005 C 
ATOM      3  C   UNL     1     -31.793  29.309   3.742  0.00  0.00    +0.027 C 
ATOM      4  C   UNL     1     -32.542  30.081   2.603  0.00  0.00    +0.005 C 
ATOM      5  C   UNL     1     -31.554  30.975   1.758  0.00  0.00    +0.000 C 
ATOM      6  C   UNL     1     -34.393  26.731   4.730  0.00  0.00    +0.002 C 
ATOM      7  C   UNL     1     -34.337  28.183   2.545  0.00  0.00    +0.110 C 
ATOM      8  C   UNL     1     -33.426  29.134   1.738  0.00  0.00    +0.029 C 
ATOM      9  C   UNL     1     -30.795  31.954   2.714  0.00  0.00    +0.005 C 
ATOM     10  C   UNL     1     -32.310  27.628   5.702  0.00  0.00    +0.000 C 
ATOM     11  C   UNL     1     -31.002  30.261   4.660  0.00  0.00    +0.110 C 
ATOM     12  C   UNL     1     -33.406  26.567   5.909  0.00  0.00    +0.000 C 
ATOM     13  C   UNL     1     -30.097  31.216   3.876  0.00  0.00    +0.029 C 
ATOM     14  C   UNL     1     -32.288  31.812   0.668  0.00  0.00    +0.002 C 
ATOM     15  C   UNL     1     -32.595  26.415   2.943  0.00  0.00    +0.002 C 
ATOM     16  C   UNL     1     -31.690  33.098   3.238  0.00  0.00    +0.029 C 
ATOM     17  C   UNL     1     -30.521  30.104   0.995  0.00  0.00    +0.000 C 
ATOM     18  C   UNL     1     -33.181  32.913   1.226  0.00  0.00    +0.029 C 
ATOM     19  C   UNL     1     -32.382  33.858   2.112  0.00  0.00    +0.111 C 
ENDROOT
BRANCH   7  20
ATOM     20  O   UNL     1     -35.428  28.926   3.089  0.00  0.00    -0.384 OA
ATOM     21  H   UNL     1     -35.979  29.267   2.367  0.00  0.00    +0.210 HD
ENDBRANCH   7  20
BRANCH  11  22
ATOM     22  O   UNL     1     -31.891  30.999   5.493  0.00  0.00    -0.384 OA
ATOM     23  H   UNL     1     -32.486  31.531   4.941  0.00  0.00    +0.210 HD
ENDBRANCH  11  22
BRANCH  19  24
ATOM     24  O   UNL     1     -33.272  34.824   2.662  0.00  0.00    -0.384 OA
ATOM     25  H   UNL     1     -33.465  35.503   1.995  0.00  0.00    +0.210 HD
ENDBRANCH  19  24
BRANCH   6  26
ATOM     26  C   UNL     1     -35.067  25.425   4.336  0.00  0.00    +0.001 C 
ATOM     27  C   UNL     1     -36.559  25.480   4.680  0.00  0.00    +0.000 C 
BRANCH  26  28
ATOM     28  C   UNL     1     -34.427  24.196   5.014  0.00  0.00    +0.010 C 
BRANCH  28  29
ATOM     29  C   UNL     1     -35.443  23.286   5.705  0.00  0.00    +0.087 C 
BRANCH  29  32
ATOM     30  O   UNL     1     -34.963  20.913   5.714  0.00  0.00    -0.273 OA
ATOM     31  N   UNL     1     -36.036  21.842   3.890  0.00  0.00    -0.197 N 
ATOM     32  C   UNL     1     -35.446  21.881   5.130  0.00  0.00    +0.244 C 
ATOM     33  H   UNL     1     -36.409  22.647   3.463  0.00  0.00    +0.182 HD
BRANCH  31  34
ATOM     34  O   UNL     1     -36.072  20.585   3.271  0.00  0.00    -0.295 OA
ATOM     35  H   UNL     1     -36.962  20.208   3.358  0.00  0.00    +0.241 HD
ENDBRANCH  31  34
ENDBRANCH  29  32
ENDBRANCH  28  29
ENDBRANCH  26  28
ENDBRANCH   6  26
TORSDOF 8
ENDMDL
MODEL 9
REMARK VINA RESULT:      -6.0      2.498      2.983
REMARK  Name = 193474
REMARK  8 active torsions:
REMARK  status: ('A' for Active; 'I' for Inactive)
REMARK    1  A    between atoms: C_6  and  C_26
REMARK    2  A    between atoms: C_7  and  O_20
REMARK    3  A    between atoms: C_11  and  O_22
REMARK    4  A    between atoms: C_19  and  O_24
REMARK    5  A    between atoms: C_26  and  C_28
REMARK    6  A    between atoms: C_28  and  C_29
REMARK    7  A    between atoms: C_29  and  C_32
REMARK    8  A    between atoms: N_31  and  O_34
REMARK                            x       y       z     vdW  Elec       q    Type
REMARK                         _______ _______ _______ _____ _____    ______ ____
ROOT
ATOM      1  C   UNL     1     -35.778  21.704   1.754  0.00  0.00    +0.025 C 
ATOM      2  C   UNL     1     -36.922  20.885   1.109  0.00  0.00    +0.005 C 
ATOM      3  C   UNL     1     -36.536  20.271  -0.245  0.00  0.00    +0.027 C 
ATOM      4  C   UNL     1     -35.303  19.327  -0.042  0.00  0.00    +0.005 C 
ATOM      5  C   UNL     1     -34.850  18.662  -1.399  0.00  0.00    +0.000 C 
ATOM      6  C   UNL     1     -36.528  22.217   3.011  0.00  0.00    +0.002 C 
ATOM      7  C   UNL     1     -34.579  20.770   2.013  0.00  0.00    +0.110 C 
ATOM      8  C   UNL     1     -34.146  20.032   0.727  0.00  0.00    +0.029 C 
ATOM      9  C   UNL     1     -36.061  17.899  -2.031  0.00  0.00    +0.005 C 
ATOM     10  C   UNL     1     -38.120  21.832   1.165  0.00  0.00    +0.000 C 
ATOM     11  C   UNL     1     -37.718  19.541  -0.913  0.00  0.00    +0.110 C 
ATOM     12  C   UNL     1     -37.919  22.623   2.471  0.00  0.00    +0.000 C 
ATOM     13  C   UNL     1     -37.305  18.799  -2.186  0.00  0.00    +0.029 C 
ATOM     14  C   UNL     1     -33.673  17.658  -1.210  0.00  0.00    +0.002 C 
ATOM     15  C   UNL     1     -35.300  22.893   0.875  0.00  0.00    +0.002 C 
ATOM     16  C   UNL     1     -36.407  16.594  -1.282  0.00  0.00    +0.029 C 
ATOM     17  C   UNL     1     -34.337  19.727  -2.404  0.00  0.00    +0.000 C 
ATOM     18  C   UNL     1     -34.049  16.396  -0.443  0.00  0.00    +0.029 C 
ATOM     19  C   UNL     1     -35.201  15.674  -1.127  0.00  0.00    +0.111 C 
ENDROOT
BRANCH   7  20
ATOM     20  O   UNL     1     -34.856  19.812   3.035  0.00  0.00    -0.384 OA
ATOM     21  H   UNL     1     -35.409  19.103   2.671  0.00  0.00    +0.210 HD
ENDBRANCH   7  20
BRANCH  11  22
ATOM     22  O   UNL     1     -38.326  18.639   0.007  0.00  0.00    -0.384 OA
ATOM     23  H   UNL     1     -39.277  18.823   0.060  0.00  0.00    +0.210 HD
ENDBRANCH  11  22
BRANCH  19  24
ATOM     24  O   UNL     1     -35.559  14.544  -0.338  0.00  0.00    -0.384 OA
ATOM     25  H   UNL     1     -36.526  14.469  -0.300  0.00  0.00    +0.210 HD
ENDBRANCH  19  24
BRANCH   6  26
ATOM     26  C   UNL     1     -35.850  23.329   3.797  0.00  0.00    +0.001 C 
ATOM     27  C   UNL     1     -35.277  22.772   5.105  0.00  0.00    +0.000 C 
BRANCH  26  28
ATOM     28  C   UNL     1     -36.802  24.503   4.111  0.00  0.00    +0.010 C 
BRANCH  28  29
ATOM     29  C   UNL     1     -36.575  25.722   3.216  0.00  0.00    +0.087 C 
BRANCH  29  32
ATOM     30  O   UNL     1     -37.968  27.007   1.709  0.00  0.00    -0.273 OA
ATOM     31  N   UNL     1     -38.916  26.058   3.591  0.00  0.00    -0.197 N 
ATOM     32  C   UNL     1     -37.877  26.336   2.735  0.00  0.00    +0.244 C 
ATOM     33  H   UNL     1     -38.792  25.514   4.403  0.00  0.00    +0.182 HD
BRANCH  31  34
ATOM     34  O   UNL     1     -40.160  26.597   3.237  0.00  0.00    -0.295 OA
ATOM     35  H   UNL     1     -40.823  26.338   3.895  0.00  0.00    +0.241 HD
ENDBRANCH  31  34
ENDBRANCH  29  32
ENDBRANCH  28  29
ENDBRANCH  26  28
ENDBRANCH   6  26
TORSDOF 8
ENDMDL
