MODEL 1
REMARK VINA RESULT:      -6.0      0.000      0.000
REMARK  Name = 194012
REMARK  11 active torsions:
REMARK  status: ('A' for Active; 'I' for Inactive)
REMARK    1  A    between atoms: N_1  and  CA_4
REMARK    2  A    between atoms: N_1  and  C_16
REMARK    3  A    between atoms: CA_4  and  C_6
REMARK    4  A    between atoms: CA_4  and  CB_9
REMARK    5  A    between atoms: C_6  and  O_7
REMARK    6  A    between atoms: CB_9  and  CG_10
REMARK    7  A    between atoms: CG_10  and  CD_13
REMARK    8  A    between atoms: C_16  and  C_17
REMARK    9  A    between atoms: C_17  and  C_18
REMARK   10  A    between atoms: C_21  and  O_24
REMARK   11  A    between atoms: C_23  and  O_26
REMARK                            x       y       z     vdW  Elec       q    Type
REMARK                         _______ _______ _______ _____ _____    ______ ____
ROOT
ATOM      1  N   GLN A   1     -36.497  21.846   3.141  0.00  0.00    +0.392 N 
ATOM      2  H1  GLN A   1     -37.259  22.515   3.019  0.00  0.00    -0.084 HD
ATOM      3  H2  GLN A   1     -36.830  21.016   3.629  0.00  0.00    -0.084 HD
ENDROOT
BRANCH   1   4
ATOM      4  CA  GLN A   1     -35.436  22.465   3.934  0.00  0.00    +0.040 C 
BRANCH   4   6
ATOM      5  OXT GLN A   1     -36.012  22.610   6.303  0.00  0.00    -0.253 OA
ATOM      6  C   GLN A   1     -35.561  21.968   5.363  0.00  0.00    +0.293 C 
BRANCH   6   7
ATOM      7  O   GLN A   1     -35.124  20.688   5.497  0.00  0.00    -0.482 OA
ATOM      8  H   GLN A   1     -34.461  20.356   4.924  0.00  0.00    +0.295 HD
ENDBRANCH   6   7
ENDBRANCH   4   6
BRANCH   4   9
ATOM      9  CB  GLN A   1     -35.464  23.999   3.820  0.00  0.00    -0.001 C 
BRANCH   9  10
ATOM     10  CG  GLN A   1     -34.316  24.751   4.504  0.00  0.00    +0.083 C 
BRANCH  10  13
ATOM     11  OE1 GLN A   1     -33.988  26.598   6.011  0.00  0.00    -0.275 OA
ATOM     12  NE2 GLN A   1     -36.126  25.798   5.727  0.00  0.00    -0.329 N 
ATOM     13  CD  GLN A   1     -34.771  25.814   5.481  0.00  0.00    +0.219 C 
ATOM     14 HE21 GLN A   1     -36.520  26.451   6.350  0.00  0.00    +0.145 HD
ATOM     15 HE22 GLN A   1     -36.700  25.134   5.281  0.00  0.00    +0.145 HD
ENDBRANCH  10  13
ENDBRANCH   9  10
ENDBRANCH   4   9
ENDBRANCH   1   4
BRANCH   1  16
ATOM     16  C   UNK A   0     -35.998  21.451   1.833  0.00  0.00    -0.076 C 
BRANCH  16  17
ATOM     17  C   UNK A   0     -35.511  20.002   1.848  0.00  0.00    +0.003 C 
BRANCH  17  18
ATOM     18  C   UNK A   0     -34.121  19.878   1.277  0.00  0.00    -0.021 C 
ATOM     19  C   UNK A   0     -33.375  18.739   1.539  0.00  0.00    +0.035 C 
ATOM     20  C   UNK A   0     -33.610  20.907   0.499  0.00  0.00    -0.001 C 
ATOM     21  C   UNK A   0     -32.089  18.625   1.011  0.00  0.00    +0.167 C 
ATOM     22  C   UNK A   0     -32.325  20.793  -0.029  0.00  0.00    +0.039 C 
ATOM     23  C   UNK A   0     -31.564  19.652   0.227  0.00  0.00    +0.167 C 
BRANCH  21  24
ATOM     24  O   UNK A   0     -31.356  17.505   1.268  0.00  0.00    -0.503 OA
ATOM     25  H   UNK A   0     -31.568  16.698   0.841  0.00  0.00    +0.292 HD
ENDBRANCH  21  24
BRANCH  23  26
ATOM     26  O   UNK A   0     -30.309  19.553  -0.295  0.00  0.00    -0.503 OA
ATOM     27  H   UNK A   0     -30.195  19.408  -1.214  0.00  0.00    +0.292 HD
ENDBRANCH  23  26
ENDBRANCH  17  18
ENDBRANCH  16  17
ENDBRANCH   1  16
TORSDOF 11
ENDMDL
MODEL 2
REMARK VINA RESULT:      -5.9      3.803      6.247
REMARK  Name = 194012
REMARK  11 active torsions:
REMARK  status: ('A' for Active; 'I' for Inactive)
REMARK    1  A    between atoms: N_1  and  CA_4
REMARK    2  A    between atoms: N_1  and  C_16
REMARK    3  A    between atoms: CA_4  and  C_6
REMARK    4  A    between atoms: CA_4  and  CB_9
REMARK    5  A    between atoms: C_6  and  O_7
REMARK    6  A    between atoms: CB_9  and  CG_10
REMARK    7  A    between atoms: CG_10  and  CD_13
REMARK    8  A    between atoms: C_16  and  C_17
REMARK    9  A    between atoms: C_17  and  C_18
REMARK   10  A    between atoms: C_21  and  O_24
REMARK   11  A    between atoms: C_23  and  O_26
REMARK                            x       y       z     vdW  Elec       q    Type
REMARK                         _______ _______ _______ _____ _____    ______ ____
ROOT
ATOM      1  N   GLN A   1     -33.833  27.377   4.963  0.00  0.00    +0.392 N 
ATOM      2  H1  GLN A   1     -34.341  27.313   4.080  0.00  0.00    -0.084 HD
ATOM      3  H2  GLN A   1     -34.261  28.078   5.566  0.00  0.00    -0.084 HD
ENDROOT
BRANCH   1   4
ATOM      4  CA  GLN A   1     -32.450  27.767   4.693  0.00  0.00    +0.040 C 
BRANCH   4   6
ATOM      5  OXT GLN A   1     -32.188  29.548   6.343  0.00  0.00    -0.253 OA
ATOM      6  C   GLN A   1     -31.893  28.430   5.940  0.00  0.00    +0.293 C 
BRANCH   6   7
ATOM      7  O   GLN A   1     -31.017  27.625   6.599  0.00  0.00    -0.482 OA
ATOM      8  H   GLN A   1     -31.108  27.490   7.522  0.00  0.00    +0.295 HD
ENDBRANCH   6   7
ENDBRANCH   4   6
BRANCH   4   9
ATOM      9  CB  GLN A   1     -32.343  28.648   3.438  0.00  0.00    -0.001 C 
BRANCH   9  10
ATOM     10  CG  GLN A   1     -33.665  29.169   2.860  0.00  0.00    +0.083 C 
BRANCH  10  13
ATOM     11  OE1 GLN A   1     -33.192  31.481   3.328  0.00  0.00    -0.275 OA
ATOM     12  NE2 GLN A   1     -35.333  30.721   3.682  0.00  0.00    -0.329 N 
ATOM     13  CD  GLN A   1     -34.019  30.573   3.301  0.00  0.00    +0.219 C 
ATOM     14 HE21 GLN A   1     -35.662  31.598   3.986  0.00  0.00    +0.145 HD
ATOM     15 HE22 GLN A   1     -35.945  29.950   3.651  0.00  0.00    +0.145 HD
ENDBRANCH  10  13
ENDBRANCH   9  10
ENDBRANCH   4   9
ENDBRANCH   1   4
BRANCH   1  16
ATOM     16  C   UNK A   0     -33.882  26.088   5.635  0.00  0.00    -0.076 C 
BRANCH  16  17
ATOM     17  C   UNK A   0     -35.315  25.556   5.694  0.00  0.00    +0.003 C 
BRANCH  17  18
ATOM     18  C   UNK A   0     -35.432  24.204   5.037  0.00  0.00    -0.021 C 
ATOM     19  C   UNK A   0     -35.297  23.059   5.806  0.00  0.00    +0.035 C 
ATOM     20  C   UNK A   0     -35.672  24.128   3.673  0.00  0.00    -0.001 C 
ATOM     21  C   UNK A   0     -35.405  21.808   5.198  0.00  0.00    +0.167 C 
ATOM     22  C   UNK A   0     -35.779  22.878   3.065  0.00  0.00    +0.039 C 
ATOM     23  C   UNK A   0     -35.645  21.718   3.827  0.00  0.00    +0.167 C 
BRANCH  21  24
ATOM     24  O   UNK A   0     -35.273  20.682   5.954  0.00  0.00    -0.503 OA
ATOM     25  H   UNK A   0     -35.515  19.849   5.601  0.00  0.00    +0.292 HD
ENDBRANCH  21  24
BRANCH  23  26
ATOM     26  O   UNK A   0     -35.753  20.502   3.222  0.00  0.00    -0.503 OA
ATOM     27  H   UNK A   0     -35.790  20.446   2.287  0.00  0.00    +0.292 HD
ENDBRANCH  23  26
ENDBRANCH  17  18
ENDBRANCH  16  17
ENDBRANCH   1  16
TORSDOF 11
ENDMDL
MODEL 3
REMARK VINA RESULT:      -5.9      4.757      7.854
REMARK  Name = 194012
REMARK  11 active torsions:
REMARK  status: ('A' for Active; 'I' for Inactive)
REMARK    1  A    between atoms: N_1  and  CA_4
REMARK    2  A    between atoms: N_1  and  C_16
REMARK    3  A    between atoms: CA_4  and  C_6
REMARK    4  A    between atoms: CA_4  and  CB_9
REMARK    5  A    between atoms: C_6  and  O_7
REMARK    6  A    between atoms: CB_9  and  CG_10
REMARK    7  A    between atoms: CG_10  and  CD_13
REMARK    8  A    between atoms: C_16  and  C_17
REMARK    9  A    between atoms: C_17  and  C_18
REMARK   10  A    between atoms: C_21  and  O_24
REMARK   11  A    between atoms: C_23  and  O_26
REMARK                            x       y       z     vdW  Elec       q    Type
REMARK                         _______ _______ _______ _____ _____    ______ ____
ROOT
ATOM      1  N   GLN A   1     -35.902  27.032   4.080  0.00  0.00    +0.392 N 
ATOM      2  H1  GLN A   1     -35.536  27.323   4.987  0.00  0.00    -0.084 HD
ATOM      3  H2  GLN A   1     -36.775  27.518   3.878  0.00  0.00    -0.084 HD
ENDROOT
BRANCH   1   4
ATOM      4  CA  GLN A   1     -36.158  25.593   4.106  0.00  0.00    +0.040 C 
BRANCH   4   6
ATOM      5  OXT GLN A   1     -38.187  24.284   3.740  0.00  0.00    -0.253 OA
ATOM      6  C   GLN A   1     -37.607  25.362   3.716  0.00  0.00    +0.293 C 
BRANCH   6   7
ATOM      7  O   GLN A   1     -38.224  26.514   3.342  0.00  0.00    -0.482 OA
ATOM      8  H   GLN A   1     -39.144  26.623   3.490  0.00  0.00    +0.295 HD
ENDBRANCH   6   7
ENDBRANCH   4   6
BRANCH   4   9
ATOM      9  CB  GLN A   1     -35.789  24.975   5.465  0.00  0.00    -0.001 C 
BRANCH   9  10
ATOM     10  CG  GLN A   1     -34.857  23.757   5.426  0.00  0.00    +0.083 C 
BRANCH  10  13
ATOM     11  OE1 GLN A   1     -35.543  21.756   6.572  0.00  0.00    -0.275 OA
ATOM     12  NE2 GLN A   1     -36.233  22.050   4.398  0.00  0.00    -0.329 N 
ATOM     13  CD  GLN A   1     -35.573  22.429   5.545  0.00  0.00    +0.219 C 
ATOM     14 HE21 GLN A   1     -36.729  21.200   4.374  0.00  0.00    +0.145 HD
ATOM     15 HE22 GLN A   1     -36.208  22.628   3.601  0.00  0.00    +0.145 HD
ENDBRANCH  10  13
ENDBRANCH   9  10
ENDBRANCH   4   9
ENDBRANCH   1   4
BRANCH   1  16
ATOM     16  C   UNK A   0     -34.933  27.363   3.048  0.00  0.00    -0.076 C 
BRANCH  16  17
ATOM     17  C   UNK A   0     -33.549  26.814   3.399  0.00  0.00    +0.003 C 
BRANCH  17  18
ATOM     18  C   UNK A   0     -32.941  27.549   4.567  0.00  0.00    -0.021 C 
ATOM     19  C   UNK A   0     -32.412  28.816   4.374  0.00  0.00    +0.035 C 
ATOM     20  C   UNK A   0     -32.922  26.946   5.816  0.00  0.00    -0.001 C 
ATOM     21  C   UNK A   0     -31.849  29.496   5.454  0.00  0.00    +0.167 C 
ATOM     22  C   UNK A   0     -32.360  27.626   6.896  0.00  0.00    +0.039 C 
ATOM     23  C   UNK A   0     -31.823  28.901   6.714  0.00  0.00    +0.167 C 
BRANCH  21  24
ATOM     24  O   UNK A   0     -31.329  30.741   5.264  0.00  0.00    -0.503 OA
ATOM     25  H   UNK A   0     -30.860  30.938   4.477  0.00  0.00    +0.292 HD
ENDBRANCH  21  24
BRANCH  23  26
ATOM     26  O   UNK A   0     -31.277  29.555   7.778  0.00  0.00    -0.503 OA
ATOM     27  H   UNK A   0     -31.266  30.492   7.796  0.00  0.00    +0.292 HD
ENDBRANCH  23  26
ENDBRANCH  17  18
ENDBRANCH  16  17
ENDBRANCH   1  16
TORSDOF 11
ENDMDL
MODEL 4
REMARK VINA RESULT:      -5.8      3.824      6.455
REMARK  Name = 194012
REMARK  11 active torsions:
REMARK  status: ('A' for Active; 'I' for Inactive)
REMARK    1  A    between atoms: N_1  and  CA_4
REMARK    2  A    between atoms: N_1  and  C_16
REMARK    3  A    between atoms: CA_4  and  C_6
REMARK    4  A    between atoms: CA_4  and  CB_9
REMARK    5  A    between atoms: C_6  and  O_7
REMARK    6  A    between atoms: CB_9  and  CG_10
REMARK    7  A    between atoms: CG_10  and  CD_13
REMARK    8  A    between atoms: C_16  and  C_17
REMARK    9  A    between atoms: C_17  and  C_18
REMARK   10  A    between atoms: C_21  and  O_24
REMARK   11  A    between atoms: C_23  and  O_26
REMARK                            x       y       z     vdW  Elec       q    Type
REMARK                         _______ _______ _______ _____ _____    ______ ____
ROOT
ATOM      1  N   GLN A   1     -33.873  27.151   4.507  0.00  0.00    +0.392 N 
ATOM      2  H1  GLN A   1     -33.745  26.625   3.642  0.00  0.00    -0.084 HD
ATOM      3  H2  GLN A   1     -34.725  27.709   4.459  0.00  0.00    -0.084 HD
ENDROOT
BRANCH   1   4
ATOM      4  CA  GLN A   1     -32.733  28.047   4.698  0.00  0.00    +0.040 C 
BRANCH   4   6
ATOM      5  OXT GLN A   1     -31.487  26.656   3.125  0.00  0.00    -0.253 OA
ATOM      6  C   GLN A   1     -31.714  27.756   3.611  0.00  0.00    +0.293 C 
BRANCH   6   7
ATOM      7  O   GLN A   1     -31.069  28.881   3.203  0.00  0.00    -0.482 OA
ATOM      8  H   GLN A   1     -30.813  28.975   2.306  0.00  0.00    +0.295 HD
ENDBRANCH   6   7
ENDBRANCH   4   6
BRANCH   4   9
ATOM      9  CB  GLN A   1     -32.155  27.934   6.118  0.00  0.00    -0.001 C 
BRANCH   9  10
ATOM     10  CG  GLN A   1     -31.701  29.244   6.773  0.00  0.00    +0.083 C 
BRANCH  10  13
ATOM     11  OE1 GLN A   1     -29.834  30.183   5.580  0.00  0.00    -0.275 OA
ATOM     12  NE2 GLN A   1     -29.413  29.076   7.552  0.00  0.00    -0.329 N 
ATOM     13  CD  GLN A   1     -30.236  29.563   6.561  0.00  0.00    +0.219 C 
ATOM     14 HE21 GLN A   1     -28.442  29.231   7.505  0.00  0.00    +0.145 HD
ATOM     15 HE22 GLN A   1     -29.796  28.573   8.307  0.00  0.00    +0.145 HD
ENDBRANCH  10  13
ENDBRANCH   9  10
ENDBRANCH   4   9
ENDBRANCH   1   4
BRANCH   1  16
ATOM     16  C   UNK A   0     -33.987  26.219   5.618  0.00  0.00    -0.076 C 
BRANCH  16  17
ATOM     17  C   UNK A   0     -35.400  25.640   5.704  0.00  0.00    +0.003 C 
BRANCH  17  18
ATOM     18  C   UNK A   0     -35.483  24.282   5.052  0.00  0.00    -0.021 C 
ATOM     19  C   UNK A   0     -35.325  23.144   5.827  0.00  0.00    +0.035 C 
ATOM     20  C   UNK A   0     -35.715  24.195   3.688  0.00  0.00    -0.001 C 
ATOM     21  C   UNK A   0     -35.401  21.888   5.225  0.00  0.00    +0.167 C 
ATOM     22  C   UNK A   0     -35.791  22.940   3.085  0.00  0.00    +0.039 C 
ATOM     23  C   UNK A   0     -35.633  21.786   3.854  0.00  0.00    +0.167 C 
BRANCH  21  24
ATOM     24  O   UNK A   0     -35.247  20.769   5.987  0.00  0.00    -0.503 OA
ATOM     25  H   UNK A   0     -35.407  20.805   6.909  0.00  0.00    +0.292 HD
ENDBRANCH  21  24
BRANCH  23  26
ATOM     26  O   UNK A   0     -35.710  20.565   3.254  0.00  0.00    -0.503 OA
ATOM     27  H   UNK A   0     -35.007  19.952   3.347  0.00  0.00    +0.292 HD
ENDBRANCH  23  26
ENDBRANCH  17  18
ENDBRANCH  16  17
ENDBRANCH   1  16
TORSDOF 11
ENDMDL
MODEL 5
REMARK VINA RESULT:      -5.7      3.773      6.195
REMARK  Name = 194012
REMARK  11 active torsions:
REMARK  status: ('A' for Active; 'I' for Inactive)
REMARK    1  A    between atoms: N_1  and  CA_4
REMARK    2  A    between atoms: N_1  and  C_16
REMARK    3  A    between atoms: CA_4  and  C_6
REMARK    4  A    between atoms: CA_4  and  CB_9
REMARK    5  A    between atoms: C_6  and  O_7
REMARK    6  A    between atoms: CB_9  and  CG_10
REMARK    7  A    between atoms: CG_10  and  CD_13
REMARK    8  A    between atoms: C_16  and  C_17
REMARK    9  A    between atoms: C_17  and  C_18
REMARK   10  A    between atoms: C_21  and  O_24
REMARK   11  A    between atoms: C_23  and  O_26
REMARK                            x       y       z     vdW  Elec       q    Type
REMARK                         _______ _______ _______ _____ _____    ______ ____
ROOT
ATOM      1  N   GLN A   1     -34.219  27.209   4.518  0.00  0.00    +0.392 N 
ATOM      2  H1  GLN A   1     -34.832  26.880   3.771  0.00  0.00    -0.084 HD
ATOM      3  H2  GLN A   1     -34.570  28.086   4.902  0.00  0.00    -0.084 HD
ENDROOT
BRANCH   1   4
ATOM      4  CA  GLN A   1     -32.880  27.434   3.977  0.00  0.00    +0.040 C 
BRANCH   4   6
ATOM      5  OXT GLN A   1     -32.519  29.295   5.516  0.00  0.00    -0.253 OA
ATOM      6  C   GLN A   1     -32.103  28.282   4.968  0.00  0.00    +0.293 C 
BRANCH   6   7
ATOM      7  O   GLN A   1     -30.864  27.778   5.210  0.00  0.00    -0.482 OA
ATOM      8  H   GLN A   1     -30.568  27.021   4.744  0.00  0.00    +0.295 HD
ENDBRANCH   6   7
ENDBRANCH   4   6
BRANCH   4   9
ATOM      9  CB  GLN A   1     -32.933  28.044   2.566  0.00  0.00    -0.001 C 
BRANCH   9  10
ATOM     10  CG  GLN A   1     -31.692  27.837   1.690  0.00  0.00    +0.083 C 
BRANCH  10  13
ATOM     11  OE1 GLN A   1     -30.110  26.259   2.582  0.00  0.00    -0.275 OA
ATOM     12  NE2 GLN A   1     -31.632  25.508   1.030  0.00  0.00    -0.329 N 
ATOM     13  CD  GLN A   1     -31.059  26.470   1.831  0.00  0.00    +0.219 C 
ATOM     14 HE21 GLN A   1     -31.290  24.585   1.049  0.00  0.00    +0.145 HD
ATOM     15 HE22 GLN A   1     -32.382  25.743   0.437  0.00  0.00    +0.145 HD
ENDBRANCH  10  13
ENDBRANCH   9  10
ENDBRANCH   4   9
ENDBRANCH   1   4
BRANCH   1  16
ATOM     16  C   UNK A   0     -34.186  26.216   5.579  0.00  0.00    -0.076 C 
BRANCH  16  17
ATOM     17  C   UNK A   0     -35.551  25.548   5.747  0.00  0.00    +0.003 C 
BRANCH  17  18
ATOM     18  C   UNK A   0     -35.595  24.199   5.075  0.00  0.00    -0.021 C 
ATOM     19  C   UNK A   0     -35.383  23.055   5.828  0.00  0.00    +0.035 C 
ATOM     20  C   UNK A   0     -35.846  24.124   3.713  0.00  0.00    -0.001 C 
ATOM     21  C   UNK A   0     -35.423  21.807   5.206  0.00  0.00    +0.167 C 
ATOM     22  C   UNK A   0     -35.886  22.877   3.091  0.00  0.00    +0.039 C 
ATOM     23  C   UNK A   0     -35.674  21.718   3.838  0.00  0.00    +0.167 C 
BRANCH  21  24
ATOM     24  O   UNK A   0     -35.215  20.682   5.947  0.00  0.00    -0.503 OA
ATOM     25  H   UNK A   0     -35.667  19.890   5.734  0.00  0.00    +0.292 HD
ENDBRANCH  21  24
BRANCH  23  26
ATOM     26  O   UNK A   0     -35.716  20.505   3.218  0.00  0.00    -0.503 OA
ATOM     27  H   UNK A   0     -35.136  20.324   2.504  0.00  0.00    +0.292 HD
ENDBRANCH  23  26
ENDBRANCH  17  18
ENDBRANCH  16  17
ENDBRANCH   1  16
TORSDOF 11
ENDMDL
MODEL 6
REMARK VINA RESULT:      -5.7      1.676      1.924
REMARK  Name = 194012
REMARK  11 active torsions:
REMARK  status: ('A' for Active; 'I' for Inactive)
REMARK    1  A    between atoms: N_1  and  CA_4
REMARK    2  A    between atoms: N_1  and  C_16
REMARK    3  A    between atoms: CA_4  and  C_6
REMARK    4  A    between atoms: CA_4  and  CB_9
REMARK    5  A    between atoms: C_6  and  O_7
REMARK    6  A    between atoms: CB_9  and  CG_10
REMARK    7  A    between atoms: CG_10  and  CD_13
REMARK    8  A    between atoms: C_16  and  C_17
REMARK    9  A    between atoms: C_17  and  C_18
REMARK   10  A    between atoms: C_21  and  O_24
REMARK   11  A    between atoms: C_23  and  O_26
REMARK                            x       y       z     vdW  Elec       q    Type
REMARK                         _______ _______ _______ _____ _____    ______ ____
ROOT
ATOM      1  N   GLN A   1     -36.647  21.818   3.221  0.00  0.00    +0.392 N 
ATOM      2  H1  GLN A   1     -37.426  21.735   2.566  0.00  0.00    -0.084 HD
ATOM      3  H2  GLN A   1     -36.711  21.098   3.939  0.00  0.00    -0.084 HD
ENDROOT
BRANCH   1   4
ATOM      4  CA  GLN A   1     -36.700  23.130   3.864  0.00  0.00    +0.040 C 
BRANCH   4   6
ATOM      5  OXT GLN A   1     -37.985  23.935   1.950  0.00  0.00    -0.253 OA
ATOM      6  C   GLN A   1     -37.746  23.967   3.150  0.00  0.00    +0.293 C 
BRANCH   6   7
ATOM      7  O   GLN A   1     -38.429  24.770   4.008  0.00  0.00    -0.482 OA
ATOM      8  H   GLN A   1     -38.161  24.834   4.904  0.00  0.00    +0.295 HD
ENDBRANCH   6   7
ENDBRANCH   4   6
BRANCH   4   9
ATOM      9  CB  GLN A   1     -35.315  23.797   3.905  0.00  0.00    -0.001 C 
BRANCH   9  10
ATOM     10  CG  GLN A   1     -34.918  24.456   5.232  0.00  0.00    +0.083 C 
BRANCH  10  13
ATOM     11  OE1 GLN A   1     -34.152  26.733   5.116  0.00  0.00    -0.275 OA
ATOM     12  NE2 GLN A   1     -36.396  26.361   5.454  0.00  0.00    -0.329 N 
ATOM     13  CD  GLN A   1     -35.096  25.959   5.252  0.00  0.00    +0.219 C 
ATOM     14 HE21 GLN A   1     -36.615  27.320   5.483  0.00  0.00    +0.145 HD
ATOM     15 HE22 GLN A   1     -37.107  25.690   5.570  0.00  0.00    +0.145 HD
ENDBRANCH  10  13
ENDBRANCH   9  10
ENDBRANCH   4   9
ENDBRANCH   1   4
BRANCH   1  16
ATOM     16  C   UNK A   0     -35.397  21.648   2.498  0.00  0.00    -0.076 C 
BRANCH  16  17
ATOM     17  C   UNK A   0     -35.354  20.294   1.789  0.00  0.00    +0.003 C 
BRANCH  17  18
ATOM     18  C   UNK A   0     -33.983  20.003   1.233  0.00  0.00    -0.021 C 
ATOM     19  C   UNK A   0     -33.353  18.812   1.561  0.00  0.00    +0.035 C 
ATOM     20  C   UNK A   0     -33.374  20.932   0.403  0.00  0.00    -0.001 C 
ATOM     21  C   UNK A   0     -32.085  18.544   1.046  0.00  0.00    +0.167 C 
ATOM     22  C   UNK A   0     -32.106  20.664  -0.111  0.00  0.00    +0.039 C 
ATOM     23  C   UNK A   0     -31.461  19.469   0.211  0.00  0.00    +0.167 C 
BRANCH  21  24
ATOM     24  O   UNK A   0     -31.466  17.373   1.368  0.00  0.00    -0.503 OA
ATOM     25  H   UNK A   0     -31.254  16.755   0.697  0.00  0.00    +0.292 HD
ENDBRANCH  21  24
BRANCH  23  26
ATOM     26  O   UNK A   0     -30.222  19.218  -0.298  0.00  0.00    -0.503 OA
ATOM     27  H   UNK A   0     -29.761  18.442  -0.046  0.00  0.00    +0.292 HD
ENDBRANCH  23  26
ENDBRANCH  17  18
ENDBRANCH  16  17
ENDBRANCH   1  16
TORSDOF 11
ENDMDL
MODEL 7
REMARK VINA RESULT:      -5.6      2.952      7.058
REMARK  Name = 194012
REMARK  11 active torsions:
REMARK  status: ('A' for Active; 'I' for Inactive)
REMARK    1  A    between atoms: N_1  and  CA_4
REMARK    2  A    between atoms: N_1  and  C_16
REMARK    3  A    between atoms: CA_4  and  C_6
REMARK    4  A    between atoms: CA_4  and  CB_9
REMARK    5  A    between atoms: C_6  and  O_7
REMARK    6  A    between atoms: CB_9  and  CG_10
REMARK    7  A    between atoms: CG_10  and  CD_13
REMARK    8  A    between atoms: C_16  and  C_17
REMARK    9  A    between atoms: C_17  and  C_18
REMARK   10  A    between atoms: C_21  and  O_24
REMARK   11  A    between atoms: C_23  and  O_26
REMARK                            x       y       z     vdW  Elec       q    Type
REMARK                         _______ _______ _______ _____ _____    ______ ____
ROOT
ATOM      1  N   GLN A   1     -35.842  21.134   4.311  0.00  0.00    +0.392 N 
ATOM      2  H1  GLN A   1     -35.873  20.122   4.438  0.00  0.00    -0.084 HD
ATOM      3  H2  GLN A   1     -36.734  21.551   4.574  0.00  0.00    -0.084 HD
ENDROOT
BRANCH   1   4
ATOM      4  CA  GLN A   1     -35.580  21.433   2.903  0.00  0.00    +0.040 C 
BRANCH   4   6
ATOM      5  OXT GLN A   1     -37.033  22.971   1.685  0.00  0.00    -0.253 OA
ATOM      6  C   GLN A   1     -36.875  21.907   2.270  0.00  0.00    +0.293 C 
BRANCH   6   7
ATOM      7  O   GLN A   1     -37.873  20.994   2.405  0.00  0.00    -0.482 OA
ATOM      8  H   GLN A   1     -37.728  20.211   2.900  0.00  0.00    +0.295 HD
ENDBRANCH   6   7
ENDBRANCH   4   6
BRANCH   4   9
ATOM      9  CB  GLN A   1     -34.951  20.233   2.176  0.00  0.00    -0.001 C 
BRANCH   9  10
ATOM     10  CG  GLN A   1     -35.028  20.251   0.644  0.00  0.00    +0.083 C 
BRANCH  10  13
ATOM     11  OE1 GLN A   1     -35.438  18.569  -1.026  0.00  0.00    -0.275 OA
ATOM     12  NE2 GLN A   1     -36.815  18.626   0.814  0.00  0.00    -0.329 N 
ATOM     13  CD  GLN A   1     -35.759  19.067   0.050  0.00  0.00    +0.219 C 
ATOM     14 HE21 GLN A   1     -37.355  17.860   0.512  0.00  0.00    +0.145 HD
ATOM     15 HE22 GLN A   1     -37.032  19.077   1.662  0.00  0.00    +0.145 HD
ENDBRANCH  10  13
ENDBRANCH   9  10
ENDBRANCH   4   9
ENDBRANCH   1   4
BRANCH   1  16
ATOM     16  C   UNK A   0     -34.798  21.689   5.158  0.00  0.00    -0.076 C 
BRANCH  16  17
ATOM     17  C   UNK A   0     -35.362  22.764   6.088  0.00  0.00    +0.003 C 
BRANCH  17  18
ATOM     18  C   UNK A   0     -35.359  24.122   5.431  0.00  0.00    -0.021 C 
ATOM     19  C   UNK A   0     -36.524  24.602   4.853  0.00  0.00    +0.035 C 
ATOM     20  C   UNK A   0     -34.190  24.868   5.415  0.00  0.00    -0.001 C 
ATOM     21  C   UNK A   0     -36.521  25.857   4.244  0.00  0.00    +0.167 C 
ATOM     22  C   UNK A   0     -34.187  26.123   4.808  0.00  0.00    +0.039 C 
ATOM     23  C   UNK A   0     -35.353  26.617   4.222  0.00  0.00    +0.167 C 
BRANCH  21  24
ATOM     24  O   UNK A   0     -37.667  26.329   3.677  0.00  0.00    -0.503 OA
ATOM     25  H   UNK A   0     -38.152  25.791   3.083  0.00  0.00    +0.292 HD
ENDBRANCH  21  24
BRANCH  23  26
ATOM     26  O   UNK A   0     -35.337  27.846   3.631  0.00  0.00    -0.503 OA
ATOM     27  H   UNK A   0     -36.123  28.198   3.262  0.00  0.00    +0.292 HD
ENDBRANCH  23  26
ENDBRANCH  17  18
ENDBRANCH  16  17
ENDBRANCH   1  16
TORSDOF 11
ENDMDL
MODEL 8
REMARK VINA RESULT:      -5.6      3.640      4.699
REMARK  Name = 194012
REMARK  11 active torsions:
REMARK  status: ('A' for Active; 'I' for Inactive)
REMARK    1  A    between atoms: N_1  and  CA_4
REMARK    2  A    between atoms: N_1  and  C_16
REMARK    3  A    between atoms: CA_4  and  C_6
REMARK    4  A    between atoms: CA_4  and  CB_9
REMARK    5  A    between atoms: C_6  and  O_7
REMARK    6  A    between atoms: CB_9  and  CG_10
REMARK    7  A    between atoms: CG_10  and  CD_13
REMARK    8  A    between atoms: C_16  and  C_17
REMARK    9  A    between atoms: C_17  and  C_18
REMARK   10  A    between atoms: C_21  and  O_24
REMARK   11  A    between atoms: C_23  and  O_26
REMARK                            x       y       z     vdW  Elec       q    Type
REMARK                         _______ _______ _______ _____ _____    ______ ____
ROOT
ATOM      1  N   GLN A   1     -36.698  24.312   4.806  0.00  0.00    +0.392 N 
ATOM      2  H1  GLN A   1     -36.436  25.170   5.293  0.00  0.00    -0.084 HD
ATOM      3  H2  GLN A   1     -37.361  23.777   5.365  0.00  0.00    -0.084 HD
ENDROOT
BRANCH   1   4
ATOM      4  CA  GLN A   1     -35.501  23.500   4.588  0.00  0.00    +0.040 C 
BRANCH   4   6
ATOM      5  OXT GLN A   1     -35.986  22.064   6.503  0.00  0.00    -0.253 OA
ATOM      6  C   GLN A   1     -35.681  22.184   5.323  0.00  0.00    +0.293 C 
BRANCH   6   7
ATOM      7  O   GLN A   1     -35.481  21.114   4.509  0.00  0.00    -0.482 OA
ATOM      8  H   GLN A   1     -36.171  20.815   3.950  0.00  0.00    +0.295 HD
ENDBRANCH   6   7
ENDBRANCH   4   6
BRANCH   4   9
ATOM      9  CB  GLN A   1     -34.223  24.253   4.994  0.00  0.00    -0.001 C 
BRANCH   9  10
ATOM     10  CG  GLN A   1     -34.422  25.631   5.637  0.00  0.00    +0.083 C 
BRANCH  10  13
ATOM     11  OE1 GLN A   1     -32.704  27.093   4.802  0.00  0.00    -0.275 OA
ATOM     12  NE2 GLN A   1     -34.862  27.441   4.089  0.00  0.00    -0.329 N 
ATOM     13  CD  GLN A   1     -33.892  26.780   4.808  0.00  0.00    +0.219 C 
ATOM     14 HE21 GLN A   1     -34.617  28.205   3.518  0.00  0.00    +0.145 HD
ATOM     15 HE22 GLN A   1     -35.801  27.151   4.147  0.00  0.00    +0.145 HD
ENDBRANCH  10  13
ENDBRANCH   9  10
ENDBRANCH   4   9
ENDBRANCH   1   4
BRANCH   1  16
ATOM     16  C   UNK A   0     -37.324  24.655   3.539  0.00  0.00    -0.076 C 
BRANCH  16  17
ATOM     17  C   UNK A   0     -36.533  24.079   2.364  0.00  0.00    +0.003 C 
BRANCH  17  18
ATOM     18  C   UNK A   0     -37.260  22.925   1.720  0.00  0.00    -0.021 C 
ATOM     19  C   UNK A   0     -38.460  22.489   2.260  0.00  0.00    +0.035 C 
ATOM     20  C   UNK A   0     -36.716  22.319   0.597  0.00  0.00    -0.001 C 
ATOM     21  C   UNK A   0     -39.132  21.422   1.664  0.00  0.00    +0.167 C 
ATOM     22  C   UNK A   0     -37.388  21.252   0.002  0.00  0.00    +0.039 C 
ATOM     23  C   UNK A   0     -38.596  20.803   0.536  0.00  0.00    +0.167 C 
BRANCH  21  24
ATOM     24  O   UNK A   0     -40.312  20.994   2.195  0.00  0.00    -0.503 OA
ATOM     25  H   UNK A   0     -40.432  20.984   3.124  0.00  0.00    +0.292 HD
ENDBRANCH  21  24
BRANCH  23  26
ATOM     26  O   UNK A   0     -39.243  19.760  -0.055  0.00  0.00    -0.503 OA
ATOM     27  H   UNK A   0     -40.088  19.890  -0.440  0.00  0.00    +0.292 HD
ENDBRANCH  23  26
ENDBRANCH  17  18
ENDBRANCH  16  17
ENDBRANCH   1  16
TORSDOF 11
ENDMDL
MODEL 9
REMARK VINA RESULT:      -5.5      1.728      2.302
REMARK  Name = 194012
REMARK  11 active torsions:
REMARK  status: ('A' for Active; 'I' for Inactive)
REMARK    1  A    between atoms: N_1  and  CA_4
REMARK    2  A    between atoms: N_1  and  C_16
REMARK    3  A    between atoms: CA_4  and  C_6
REMARK    4  A    between atoms: CA_4  and  CB_9
REMARK    5  A    between atoms: C_6  and  O_7
REMARK    6  A    between atoms: CB_9  and  CG_10
REMARK    7  A    between atoms: CG_10  and  CD_13
REMARK    8  A    between atoms: C_16  and  C_17
REMARK    9  A    between atoms: C_17  and  C_18
REMARK   10  A    between atoms: C_21  and  O_24
REMARK   11  A    between atoms: C_23  and  O_26
REMARK                            x       y       z     vdW  Elec       q    Type
REMARK                         _______ _______ _______ _____ _____    ______ ____
ROOT
ATOM      1  N   GLN A   1     -36.666  22.263   3.804  0.00  0.00    +0.392 N 
ATOM      2  H1  GLN A   1     -37.324  23.042   3.849  0.00  0.00    -0.084 HD
ATOM      3  H2  GLN A   1     -37.040  21.455   4.302  0.00  0.00    -0.084 HD
ENDROOT
BRANCH   1   4
ATOM      4  CA  GLN A   1     -35.406  22.661   4.431  0.00  0.00    +0.040 C 
BRANCH   4   6
ATOM      5  OXT GLN A   1     -35.289  22.473   6.863  0.00  0.00    -0.253 OA
ATOM      6  C   GLN A   1     -35.290  21.939   5.762  0.00  0.00    +0.293 C 
BRANCH   6   7
ATOM      7  O   GLN A   1     -35.201  20.591   5.605  0.00  0.00    -0.482 OA
ATOM      8  H   GLN A   1     -34.366  20.168   5.651  0.00  0.00    +0.295 HD
ENDBRANCH   6   7
ENDBRANCH   4   6
BRANCH   4   9
ATOM      9  CB  GLN A   1     -35.294  24.189   4.558  0.00  0.00    -0.001 C 
BRANCH   9  10
ATOM     10  CG  GLN A   1     -36.613  24.956   4.713  0.00  0.00    +0.083 C 
BRANCH  10  13
ATOM     11  OE1 GLN A   1     -36.232  25.994   2.576  0.00  0.00    -0.275 OA
ATOM     12  NE2 GLN A   1     -38.339  26.132   3.486  0.00  0.00    -0.329 N 
ATOM     13  CD  GLN A   1     -37.022  25.734   3.480  0.00  0.00    +0.219 C 
ATOM     14 HE21 GLN A   1     -38.702  26.645   2.727  0.00  0.00    +0.145 HD
ATOM     15 HE22 GLN A   1     -38.919  25.904   4.248  0.00  0.00    +0.145 HD
ENDBRANCH  10  13
ENDBRANCH   9  10
ENDBRANCH   4   9
ENDBRANCH   1   4
BRANCH   1  16
ATOM     16  C   UNK A   0     -36.455  21.898   2.413  0.00  0.00    -0.076 C 
BRANCH  16  17
ATOM     17  C   UNK A   0     -35.914  20.472   2.297  0.00  0.00    +0.003 C 
BRANCH  17  18
ATOM     18  C   UNK A   0     -34.619  20.431   1.524  0.00  0.00    -0.021 C 
ATOM     19  C   UNK A   0     -34.233  21.538   0.785  0.00  0.00    +0.035 C 
ATOM     20  C   UNK A   0     -33.837  19.287   1.566  0.00  0.00    -0.001 C 
ATOM     21  C   UNK A   0     -33.035  21.501   0.070  0.00  0.00    +0.167 C 
ATOM     22  C   UNK A   0     -32.640  19.250   0.852  0.00  0.00    +0.039 C 
ATOM     23  C   UNK A   0     -32.240  20.357   0.103  0.00  0.00    +0.167 C 
BRANCH  21  24
ATOM     24  O   UNK A   0     -32.655  22.589  -0.657  0.00  0.00    -0.503 OA
ATOM     25  H   UNK A   0     -31.931  23.112  -0.374  0.00  0.00    +0.292 HD
ENDBRANCH  21  24
BRANCH  23  26
ATOM     26  O   UNK A   0     -31.068  20.308  -0.590  0.00  0.00    -0.503 OA
ATOM     27  H   UNK A   0     -31.079  20.223  -1.524  0.00  0.00    +0.292 HD
ENDBRANCH  23  26
ENDBRANCH  17  18
ENDBRANCH  16  17
ENDBRANCH   1  16
TORSDOF 11
ENDMDL
