MODEL 1
REMARK VINA RESULT:      -6.6      0.000      0.000
REMARK  Name = 192156
REMARK  6 active torsions:
REMARK  status: ('A' for Active; 'I' for Inactive)
REMARK    1  A    between atoms: C_6  and  O_21
REMARK    2  A    between atoms: C_6  and  C_26
REMARK    3  A    between atoms: C_9  and  O_23
REMARK    4  A    between atoms: C_26  and  C_27
REMARK    5  A    between atoms: C_27  and  O_28
REMARK    6  A    between atoms: O_28  and  C_30
REMARK                            x       y       z     vdW  Elec       q    Type
REMARK                         _______ _______ _______ _____ _____    ______ ____
ROOT
ATOM      1  O   UNL     1     -35.003  21.004   5.981  0.00  0.00    -0.287 OA
ATOM      2  C   UNL     1     -39.653  25.810   1.193  0.00  0.00    +0.031 C 
ATOM      3  C   UNL     1     -39.226  24.345   0.957  0.00  0.00    +0.003 C 
ATOM      4  C   UNL     1     -37.754  24.072   1.298  0.00  0.00    +0.003 C 
ATOM      5  C   UNL     1     -37.519  24.394   2.816  0.00  0.00    +0.034 C 
ATOM      6  C   UNL     1     -41.123  25.730   0.697  0.00  0.00    +0.143 C 
ATOM      7  C   UNL     1     -39.460  26.113   2.692  0.00  0.00    +0.032 C 
ATOM      8  C   UNL     1     -39.721  24.055  -0.457  0.00  0.00    +0.003 C 
ATOM      9  C   UNL     1     -38.027  25.823   3.192  0.00  0.00    +0.111 C 
ATOM     10  C   UNL     1     -36.054  24.034   3.284  0.00  0.00    +0.036 C 
ATOM     11  C   UNL     1     -41.050  24.832  -0.561  0.00  0.00    +0.034 C 
ATOM     12  C   UNL     1     -37.389  22.611   0.978  0.00  0.00    +0.004 C 
ATOM     13  C   UNL     1     -38.865  26.828   0.321  0.00  0.00    +0.003 C 
ATOM     14  C   UNL     1     -35.975  22.256   1.420  0.00  0.00    +0.022 C 
ATOM     15  C   UNL     1     -35.790  22.580   2.881  0.00  0.00    -0.038 C 
ATOM     16  C   UNL     1     -34.955  24.917   2.649  0.00  0.00    +0.009 C 
ATOM     17  C   UNL     1     -35.927  24.218   4.790  0.00  0.00    -0.020 C 
ATOM     18  C   UNL     1     -35.456  21.612   3.749  0.00  0.00    +0.034 C 
ATOM     19  C   UNL     1     -35.599  23.259   5.660  0.00  0.00    +0.038 C 
ATOM     20  C   UNL     1     -35.325  21.888   5.195  0.00  0.00    +0.195 C 
ENDROOT
BRANCH   6  21
ATOM     21  O   UNL     1     -41.964  25.113   1.668  0.00  0.00    -0.380 OA
ATOM     22  H   UNL     1     -42.870  25.445   1.568  0.00  0.00    +0.211 HD
ENDBRANCH   6  21
BRANCH   9  23
ATOM     23  O   UNL     1     -37.143  26.827   2.712  0.00  0.00    -0.384 OA
ATOM     24  H   UNL     1     -37.337  27.667   3.157  0.00  0.00    +0.210 HD
ENDBRANCH   9  23
BRANCH   6  26
ATOM     25  O   UNL     1     -41.542  27.684  -0.599  0.00  0.00    -0.290 OA
ATOM     26  C   UNL     1     -41.768  27.057   0.434  0.00  0.00    +0.218 C 
BRANCH  26  27
ATOM     27  C   UNL     1     -42.704  27.571   1.507  0.00  0.00    +0.274 C 
BRANCH  27  28
ATOM     28  O   UNL     1     -41.991  28.299   2.484  0.00  0.00    -0.440 OA
BRANCH  28  30
ATOM     29  O   UNL     1     -42.052  28.836   4.730  0.00  0.00    -0.250 OA
ATOM     30  C   UNL     1     -42.437  28.175   3.775  0.00  0.00    +0.318 C 
ATOM     31  C   UNL     1     -43.480  27.102   3.863  0.00  0.00    +0.121 C 
ENDBRANCH  28  30
ENDBRANCH  27  28
ENDBRANCH  26  27
ENDBRANCH   6  26
TORSDOF 6
ENDMDL
MODEL 2
REMARK VINA RESULT:      -6.5      4.717      9.257
REMARK  Name = 192156
REMARK  6 active torsions:
REMARK  status: ('A' for Active; 'I' for Inactive)
REMARK    1  A    between atoms: C_6  and  O_21
REMARK    2  A    between atoms: C_6  and  C_26
REMARK    3  A    between atoms: C_9  and  O_23
REMARK    4  A    between atoms: C_26  and  C_27
REMARK    5  A    between atoms: C_27  and  O_28
REMARK    6  A    between atoms: O_28  and  C_30
REMARK                            x       y       z     vdW  Elec       q    Type
REMARK                         _______ _______ _______ _____ _____    ______ ____
ROOT
ATOM      1  O   UNL     1     -34.941  26.120   5.924  0.00  0.00    -0.287 OA
ATOM      2  C   UNL     1     -34.352  20.021   0.437  0.00  0.00    +0.031 C 
ATOM      3  C   UNL     1     -34.107  21.531   0.224  0.00  0.00    +0.003 C 
ATOM      4  C   UNL     1     -35.155  22.425   0.903  0.00  0.00    +0.003 C 
ATOM      5  C   UNL     1     -35.125  22.154   2.448  0.00  0.00    +0.034 C 
ATOM      6  C   UNL     1     -33.183  19.451  -0.413  0.00  0.00    +0.143 C 
ATOM      7  C   UNL     1     -34.283  19.750   1.953  0.00  0.00    +0.032 C 
ATOM      8  C   UNL     1     -33.903  21.648  -1.283  0.00  0.00    +0.003 C 
ATOM      9  C   UNL     1     -35.251  20.631   2.774  0.00  0.00    +0.111 C 
ATOM     10  C   UNL     1     -36.097  23.115   3.242  0.00  0.00    +0.036 C 
ATOM     11  C   UNL     1     -33.148  20.358  -1.665  0.00  0.00    +0.034 C 
ATOM     12  C   UNL     1     -34.879  23.908   0.594  0.00  0.00    +0.004 C 
ATOM     13  C   UNL     1     -35.707  19.531  -0.148  0.00  0.00    +0.003 C 
ATOM     14  C   UNL     1     -35.815  24.842   1.350  0.00  0.00    +0.022 C 
ATOM     15  C   UNL     1     -35.758  24.551   2.828  0.00  0.00    -0.038 C 
ATOM     16  C   UNL     1     -37.596  22.871   2.955  0.00  0.00    +0.009 C 
ATOM     17  C   UNL     1     -35.915  22.917   4.741  0.00  0.00    -0.020 C 
ATOM     18  C   UNL     1     -35.386  25.509   3.691  0.00  0.00    +0.034 C 
ATOM     19  C   UNL     1     -35.542  23.866   5.605  0.00  0.00    +0.038 C 
ATOM     20  C   UNL     1     -35.265  25.237   5.138  0.00  0.00    +0.195 C 
ENDROOT
BRANCH   6  21
ATOM     21  O   UNL     1     -31.942  19.555   0.279  0.00  0.00    -0.380 OA
ATOM     22  H   UNL     1     -31.213  19.386  -0.337  0.00  0.00    +0.211 HD
ENDBRANCH   6  21
BRANCH   9  23
ATOM     23  O   UNL     1     -36.584  20.173   2.591  0.00  0.00    -0.384 OA
ATOM     24  H   UNL     1     -37.076  20.816   2.057  0.00  0.00    +0.210 HD
ENDBRANCH   9  23
BRANCH   6  26
ATOM     25  O   UNL     1     -33.545  17.619  -1.891  0.00  0.00    -0.290 OA
ATOM     26  C   UNL     1     -33.303  17.995  -0.745  0.00  0.00    +0.218 C 
BRANCH  26  27
ATOM     27  C   UNL     1     -33.111  17.027   0.403  0.00  0.00    +0.274 C 
BRANCH  27  28
ATOM     28  O   UNL     1     -31.742  16.890   0.717  0.00  0.00    -0.440 OA
BRANCH  28  30
ATOM     29  O   UNL     1     -31.209  14.702   0.202  0.00  0.00    -0.250 OA
ATOM     30  C   UNL     1     -31.063  15.906   0.045  0.00  0.00    +0.318 C 
ATOM     31  C   UNL     1     -30.098  16.514  -0.928  0.00  0.00    +0.121 C 
ENDBRANCH  28  30
ENDBRANCH  27  28
ENDBRANCH  26  27
ENDBRANCH   6  26
TORSDOF 6
ENDMDL
MODEL 3
REMARK VINA RESULT:      -6.5      3.511      5.761
REMARK  Name = 192156
REMARK  6 active torsions:
REMARK  status: ('A' for Active; 'I' for Inactive)
REMARK    1  A    between atoms: C_6  and  O_21
REMARK    2  A    between atoms: C_6  and  C_26
REMARK    3  A    between atoms: C_9  and  O_23
REMARK    4  A    between atoms: C_26  and  C_27
REMARK    5  A    between atoms: C_27  and  O_28
REMARK    6  A    between atoms: O_28  and  C_30
REMARK                            x       y       z     vdW  Elec       q    Type
REMARK                         _______ _______ _______ _____ _____    ______ ____
ROOT
ATOM      1  O   UNL     1     -31.656  16.506   0.779  0.00  0.00    -0.287 OA
ATOM      2  C   UNL     1     -36.815  22.871   1.513  0.00  0.00    +0.031 C 
ATOM      3  C   UNL     1     -37.153  21.367   1.412  0.00  0.00    +0.003 C 
ATOM      4  C   UNL     1     -36.326  20.620   0.355  0.00  0.00    +0.003 C 
ATOM      5  C   UNL     1     -34.806  20.740   0.728  0.00  0.00    +0.034 C 
ATOM      6  C   UNL     1     -37.851  23.293   2.590  0.00  0.00    +0.143 C 
ATOM      7  C   UNL     1     -35.332  22.985   1.918  0.00  0.00    +0.032 C 
ATOM      8  C   UNL     1     -38.675  21.353   1.302  0.00  0.00    +0.003 C 
ATOM      9  C   UNL     1     -34.381  22.224   0.967  0.00  0.00    +0.111 C 
ATOM     10  C   UNL     1     -33.885  19.904  -0.247  0.00  0.00    +0.036 C 
ATOM     11  C   UNL     1     -39.132  22.513   2.211  0.00  0.00    +0.034 C 
ATOM     12  C   UNL     1     -36.763  19.147   0.272  0.00  0.00    +0.004 C 
ATOM     13  C   UNL     1     -37.087  23.650   0.196  0.00  0.00    +0.003 C 
ATOM     14  C   UNL     1     -35.884  18.334  -0.671  0.00  0.00    +0.022 C 
ATOM     15  C   UNL     1     -34.435  18.474  -0.281  0.00  0.00    -0.038 C 
ATOM     16  C   UNL     1     -33.849  20.441  -1.696  0.00  0.00    +0.009 C 
ATOM     17  C   UNL     1     -32.445  19.927   0.249  0.00  0.00    -0.020 C 
ATOM     18  C   UNL     1     -33.717  17.389   0.051  0.00  0.00    +0.034 C 
ATOM     19  C   UNL     1     -31.727  18.852   0.584  0.00  0.00    +0.038 C 
ATOM     20  C   UNL     1     -32.312  17.502   0.493  0.00  0.00    +0.195 C 
ENDROOT
BRANCH   6  21
ATOM     21  O   UNL     1     -37.430  22.902   3.894  0.00  0.00    -0.380 OA
ATOM     22  H   UNL     1     -37.000  23.652   4.333  0.00  0.00    +0.211 HD
ENDBRANCH   6  21
BRANCH   9  23
ATOM     23  O   UNL     1     -34.266  22.932  -0.260  0.00  0.00    -0.384 OA
ATOM     24  H   UNL     1     -34.412  23.877  -0.102  0.00  0.00    +0.210 HD
ENDBRANCH   9  23
BRANCH   6  26
ATOM     25  O   UNL     1     -39.147  25.280   2.380  0.00  0.00    -0.290 OA
ATOM     26  C   UNL     1     -38.074  24.771   2.699  0.00  0.00    +0.218 C 
BRANCH  26  27
ATOM     27  C   UNL     1     -36.910  25.588   3.218  0.00  0.00    +0.274 C 
BRANCH  27  28
ATOM     28  O   UNL     1     -36.775  25.433   4.614  0.00  0.00    -0.440 OA
BRANCH  28  30
ATOM     29  O   UNL     1     -35.001  26.785   5.216  0.00  0.00    -0.250 OA
ATOM     30  C   UNL     1     -35.530  25.685   5.133  0.00  0.00    +0.318 C 
ATOM     31  C   UNL     1     -34.892  24.410   5.593  0.00  0.00    +0.121 C 
ENDBRANCH  28  30
ENDBRANCH  27  28
ENDBRANCH  26  27
ENDBRANCH   6  26
TORSDOF 6
ENDMDL
MODEL 4
REMARK VINA RESULT:      -6.4      4.126      7.126
REMARK  Name = 192156
REMARK  6 active torsions:
REMARK  status: ('A' for Active; 'I' for Inactive)
REMARK    1  A    between atoms: C_6  and  O_21
REMARK    2  A    between atoms: C_6  and  C_26
REMARK    3  A    between atoms: C_9  and  O_23
REMARK    4  A    between atoms: C_26  and  C_27
REMARK    5  A    between atoms: C_27  and  O_28
REMARK    6  A    between atoms: O_28  and  C_30
REMARK                            x       y       z     vdW  Elec       q    Type
REMARK                         _______ _______ _______ _____ _____    ______ ____
ROOT
ATOM      1  O   UNL     1     -32.939  33.567   2.613  0.00  0.00    -0.287 OA
ATOM      2  C   UNL     1     -35.257  25.717   3.422  0.00  0.00    +0.031 C 
ATOM      3  C   UNL     1     -34.478  26.596   4.424  0.00  0.00    +0.003 C 
ATOM      4  C   UNL     1     -33.385  27.454   3.769  0.00  0.00    +0.003 C 
ATOM      5  C   UNL     1     -34.055  28.411   2.721  0.00  0.00    +0.034 C 
ATOM      6  C   UNL     1     -36.193  24.971   4.412  0.00  0.00    +0.143 C 
ATOM      7  C   UNL     1     -35.947  26.661   2.417  0.00  0.00    +0.032 C 
ATOM      8  C   UNL     1     -34.084  25.615   5.524  0.00  0.00    +0.003 C 
ATOM      9  C   UNL     1     -34.967  27.631   1.721  0.00  0.00    +0.111 C 
ATOM     10  C   UNL     1     -33.016  29.412   2.076  0.00  0.00    +0.036 C 
ATOM     11  C   UNL     1     -35.288  24.655   5.625  0.00  0.00    +0.034 C 
ATOM     12  C   UNL     1     -32.614  28.251   4.836  0.00  0.00    +0.004 C 
ATOM     13  C   UNL     1     -34.359  24.687   2.680  0.00  0.00    +0.003 C 
ATOM     14  C   UNL     1     -31.605  29.215   4.224  0.00  0.00    +0.022 C 
ATOM     15  C   UNL     1     -32.286  30.115   3.225  0.00  0.00    -0.038 C 
ATOM     16  C   UNL     1     -31.958  28.730   1.179  0.00  0.00    +0.009 C 
ATOM     17  C   UNL     1     -33.741  30.415   1.190  0.00  0.00    -0.020 C 
ATOM     18  C   UNL     1     -32.267  31.447   3.394  0.00  0.00    +0.034 C 
ATOM     19  C   UNL     1     -33.728  31.741   1.354  0.00  0.00    +0.038 C 
ATOM     20  C   UNL     1     -32.974  32.351   2.464  0.00  0.00    +0.195 C 
ENDROOT
BRANCH   6  21
ATOM     21  O   UNL     1     -37.270  25.804   4.832  0.00  0.00    -0.380 OA
ATOM     22  H   UNL     1     -37.898  25.282   5.356  0.00  0.00    +0.211 HD
ENDBRANCH   6  21
BRANCH   9  23
ATOM     23  O   UNL     1     -34.192  26.920   0.764  0.00  0.00    -0.384 OA
ATOM     24  H   UNL     1     -33.914  26.070   1.141  0.00  0.00    +0.210 HD
ENDBRANCH   9  23
BRANCH   6  26
ATOM     25  O   UNL     1     -36.560  22.625   4.223  0.00  0.00    -0.290 OA
ATOM     26  C   UNL     1     -36.862  23.756   3.845  0.00  0.00    +0.218 C 
BRANCH  26  27
ATOM     27  C   UNL     1     -37.920  24.002   2.791  0.00  0.00    +0.274 C 
BRANCH  27  28
ATOM     28  O   UNL     1     -39.145  24.369   3.390  0.00  0.00    -0.440 OA
BRANCH  28  30
ATOM     29  O   UNL     1     -39.789  26.551   2.987  0.00  0.00    -0.250 OA
ATOM     30  C   UNL     1     -39.859  25.353   2.753  0.00  0.00    +0.318 C 
ATOM     31  C   UNL     1     -40.753  24.752   1.711  0.00  0.00    +0.121 C 
ENDBRANCH  28  30
ENDBRANCH  27  28
ENDBRANCH  26  27
ENDBRANCH   6  26
TORSDOF 6
ENDMDL
MODEL 5
REMARK VINA RESULT:      -6.3      3.161      7.247
REMARK  Name = 192156
REMARK  6 active torsions:
REMARK  status: ('A' for Active; 'I' for Inactive)
REMARK    1  A    between atoms: C_6  and  O_21
REMARK    2  A    between atoms: C_6  and  C_26
REMARK    3  A    between atoms: C_9  and  O_23
REMARK    4  A    between atoms: C_26  and  C_27
REMARK    5  A    between atoms: C_27  and  O_28
REMARK    6  A    between atoms: O_28  and  C_30
REMARK                            x       y       z     vdW  Elec       q    Type
REMARK                         _______ _______ _______ _____ _____    ______ ____
ROOT
ATOM      1  O   UNL     1     -40.396  22.854  -2.528  0.00  0.00    -0.287 OA
ATOM      2  C   UNL     1     -35.871  25.292   3.893  0.00  0.00    +0.031 C 
ATOM      3  C   UNL     1     -36.150  23.853   3.407  0.00  0.00    +0.003 C 
ATOM      4  C   UNL     1     -37.613  23.615   3.002  0.00  0.00    +0.003 C 
ATOM      5  C   UNL     1     -37.977  24.591   1.829  0.00  0.00    +0.034 C 
ATOM      6  C   UNL     1     -34.369  25.148   4.264  0.00  0.00    +0.143 C 
ATOM      7  C   UNL     1     -36.191  26.246   2.725  0.00  0.00    +0.032 C 
ATOM      8  C   UNL     1     -35.536  22.984   4.500  0.00  0.00    +0.003 C 
ATOM      9  C   UNL     1     -37.624  26.073   2.174  0.00  0.00    +0.111 C 
ATOM     10  C   UNL     1     -39.434  24.337   1.272  0.00  0.00    +0.036 C 
ATOM     11  C   UNL     1     -34.277  23.759   4.939  0.00  0.00    +0.034 C 
ATOM     12  C   UNL     1     -37.825  22.147   2.590  0.00  0.00    +0.004 C 
ATOM     13  C   UNL     1     -36.684  25.681   5.160  0.00  0.00    +0.003 C 
ATOM     14  C   UNL     1     -39.229  21.891   2.058  0.00  0.00    +0.022 C 
ATOM     15  C   UNL     1     -39.542  22.846   0.934  0.00  0.00    -0.038 C 
ATOM     16  C   UNL     1     -40.560  24.687   2.272  0.00  0.00    +0.009 C 
ATOM     17  C   UNL     1     -39.679  25.198   0.040  0.00  0.00    -0.020 C 
ATOM     18  C   UNL     1     -39.847  22.376  -0.285  0.00  0.00    +0.034 C 
ATOM     19  C   UNL     1     -39.981  24.737  -1.177  0.00  0.00    +0.038 C 
ATOM     20  C   UNL     1     -40.101  23.288  -1.420  0.00  0.00    +0.195 C 
ENDROOT
BRANCH   6  21
ATOM     21  O   UNL     1     -33.545  25.162   3.101  0.00  0.00    -0.380 OA
ATOM     22  H   UNL     1     -33.112  26.026   3.023  0.00  0.00    +0.211 HD
ENDBRANCH   6  21
BRANCH   9  23
ATOM     23  O   UNL     1     -38.558  26.625   3.092  0.00  0.00    -0.384 OA
ATOM     24  H   UNL     1     -39.082  27.310   2.647  0.00  0.00    +0.210 HD
ENDBRANCH   9  23
BRANCH   6  26
ATOM     25  O   UNL     1     -33.965  26.244   6.340  0.00  0.00    -0.290 OA
ATOM     26  C   UNL     1     -33.826  26.253   5.118  0.00  0.00    +0.218 C 
BRANCH  26  27
ATOM     27  C   UNL     1     -33.106  27.369   4.393  0.00  0.00    +0.274 C 
BRANCH  27  28
ATOM     28  O   UNL     1     -32.900  28.471   5.250  0.00  0.00    -0.440 OA
BRANCH  28  30
ATOM     29  O   UNL     1     -30.678  27.900   5.522  0.00  0.00    -0.250 OA
ATOM     30  C   UNL     1     -31.657  28.569   5.823  0.00  0.00    +0.318 C 
ATOM     31  C   UNL     1     -31.658  29.626   6.886  0.00  0.00    +0.121 C 
ENDBRANCH  28  30
ENDBRANCH  27  28
ENDBRANCH  26  27
ENDBRANCH   6  26
TORSDOF 6
ENDMDL
MODEL 6
REMARK VINA RESULT:      -6.3      4.696      6.873
REMARK  Name = 192156
REMARK  6 active torsions:
REMARK  status: ('A' for Active; 'I' for Inactive)
REMARK    1  A    between atoms: C_6  and  O_21
REMARK    2  A    between atoms: C_6  and  C_26
REMARK    3  A    between atoms: C_9  and  O_23
REMARK    4  A    between atoms: C_26  and  C_27
REMARK    5  A    between atoms: C_27  and  O_28
REMARK    6  A    between atoms: O_28  and  C_30
REMARK                            x       y       z     vdW  Elec       q    Type
REMARK                         _______ _______ _______ _____ _____    ______ ____
ROOT
ATOM      1  O   UNL     1     -32.229  17.853   0.893  0.00  0.00    -0.287 OA
ATOM      2  C   UNL     1     -34.552  25.574   2.523  0.00  0.00    +0.031 C 
ATOM      3  C   UNL     1     -34.943  24.277   3.264  0.00  0.00    +0.003 C 
ATOM      4  C   UNL     1     -35.272  23.107   2.324  0.00  0.00    +0.003 C 
ATOM      5  C   UNL     1     -34.007  22.790   1.451  0.00  0.00    +0.034 C 
ATOM      6  C   UNL     1     -34.362  26.516   3.743  0.00  0.00    +0.143 C 
ATOM      7  C   UNL     1     -33.286  25.271   1.697  0.00  0.00    +0.032 C 
ATOM      8  C   UNL     1     -36.001  24.743   4.260  0.00  0.00    +0.003 C 
ATOM      9  C   UNL     1     -33.455  24.068   0.742  0.00  0.00    +0.111 C 
ATOM     10  C   UNL     1     -34.219  21.524   0.530  0.00  0.00    +0.036 C 
ATOM     11  C   UNL     1     -35.522  26.143   4.695  0.00  0.00    +0.034 C 
ATOM     12  C   UNL     1     -35.711  21.874   3.133  0.00  0.00    +0.004 C 
ATOM     13  C   UNL     1     -35.684  26.125   1.611  0.00  0.00    +0.003 C 
ATOM     14  C   UNL     1     -35.925  20.649   2.253  0.00  0.00    +0.022 C 
ATOM     15  C   UNL     1     -34.690  20.377   1.432  0.00  0.00    -0.038 C 
ATOM     16  C   UNL     1     -35.271  21.724  -0.584  0.00  0.00    +0.009 C 
ATOM     17  C   UNL     1     -32.917  21.168  -0.175  0.00  0.00    -0.020 C 
ATOM     18  C   UNL     1     -34.047  19.205   1.546  0.00  0.00    +0.034 C 
ATOM     19  C   UNL     1     -32.271  20.005  -0.063  0.00  0.00    +0.038 C 
ATOM     20  C   UNL     1     -32.803  18.933   0.798  0.00  0.00    +0.195 C 
ENDROOT
BRANCH   6  21
ATOM     21  O   UNL     1     -33.119  26.273   4.396  0.00  0.00    -0.380 OA
ATOM     22  H   UNL     1     -32.527  25.794   3.796  0.00  0.00    +0.211 HD
ENDBRANCH   6  21
BRANCH   9  23
ATOM     23  O   UNL     1     -34.276  24.444  -0.356  0.00  0.00    -0.384 OA
ATOM     24  H   UNL     1     -33.914  25.242  -0.771  0.00  0.00    +0.210 HD
ENDBRANCH   9  23
BRANCH   6  26
ATOM     25  O   UNL     1     -35.357  28.608   3.188  0.00  0.00    -0.290 OA
ATOM     26  C   UNL     1     -34.325  27.976   3.406  0.00  0.00    +0.218 C 
BRANCH  26  27
ATOM     27  C   UNL     1     -32.955  28.617   3.349  0.00  0.00    +0.274 C 
BRANCH  27  28
ATOM     28  O   UNL     1     -32.726  29.408   4.495  0.00  0.00    -0.440 OA
BRANCH  28  30
ATOM     29  O   UNL     1     -31.006  28.013   5.154  0.00  0.00    -0.250 OA
ATOM     30  C   UNL     1     -31.742  28.972   5.345  0.00  0.00    +0.318 C 
ATOM     31  C   UNL     1     -31.685  29.842   6.564  0.00  0.00    +0.121 C 
ENDBRANCH  28  30
ENDBRANCH  27  28
ENDBRANCH  26  27
ENDBRANCH   6  26
TORSDOF 6
ENDMDL
MODEL 7
REMARK VINA RESULT:      -6.2      6.490     10.398
REMARK  Name = 192156
REMARK  6 active torsions:
REMARK  status: ('A' for Active; 'I' for Inactive)
REMARK    1  A    between atoms: C_6  and  O_21
REMARK    2  A    between atoms: C_6  and  C_26
REMARK    3  A    between atoms: C_9  and  O_23
REMARK    4  A    between atoms: C_26  and  C_27
REMARK    5  A    between atoms: C_27  and  O_28
REMARK    6  A    between atoms: O_28  and  C_30
REMARK                            x       y       z     vdW  Elec       q    Type
REMARK                         _______ _______ _______ _____ _____    ______ ____
ROOT
ATOM      1  O   UNL     1     -39.605  36.020   2.054  0.00  0.00    -0.287 OA
ATOM      2  C   UNL     1     -33.491  30.551   2.658  0.00  0.00    +0.031 C 
ATOM      3  C   UNL     1     -33.410  32.093   2.711  0.00  0.00    +0.003 C 
ATOM      4  C   UNL     1     -34.283  32.791   1.658  0.00  0.00    +0.003 C 
ATOM      5  C   UNL     1     -35.781  32.388   1.898  0.00  0.00    +0.034 C 
ATOM      6  C   UNL     1     -32.469  30.204   3.775  0.00  0.00    +0.143 C 
ATOM      7  C   UNL     1     -34.956  30.156   2.934  0.00  0.00    +0.032 C 
ATOM      8  C   UNL     1     -31.909  32.368   2.723  0.00  0.00    +0.003 C 
ATOM      9  C   UNL     1     -35.960  30.838   1.978  0.00  0.00    +0.111 C 
ATOM     10  C   UNL     1     -36.767  33.150   0.927  0.00  0.00    +0.036 C 
ATOM     11  C   UNL     1     -31.319  31.217   3.565  0.00  0.00    +0.034 C 
ATOM     12  C   UNL     1     -34.100  34.317   1.733  0.00  0.00    +0.004 C 
ATOM     13  C   UNL     1     -33.006  29.956   1.307  0.00  0.00    +0.003 C 
ATOM     14  C   UNL     1     -35.043  35.061   0.795  0.00  0.00    +0.022 C 
ATOM     15  C   UNL     1     -36.469  34.648   1.056  0.00  0.00    -0.038 C 
ATOM     16  C   UNL     1     -36.617  32.755  -0.560  0.00  0.00    +0.009 C 
ATOM     17  C   UNL     1     -38.210  32.843   1.304  0.00  0.00    -0.020 C 
ATOM     18  C   UNL     1     -37.381  35.562   1.420  0.00  0.00    +0.034 C 
ATOM     19  C   UNL     1     -39.122  33.748   1.669  0.00  0.00    +0.038 C 
ATOM     20  C   UNL     1     -38.772  35.178   1.738  0.00  0.00    +0.195 C 
ENDROOT
BRANCH   6  21
ATOM     21  O   UNL     1     -33.033  30.394   5.070  0.00  0.00    -0.380 OA
ATOM     22  H   UNL     1     -33.530  29.602   5.325  0.00  0.00    +0.211 HD
ENDBRANCH   6  21
BRANCH   9  23
ATOM     23  O   UNL     1     -35.874  30.241   0.691  0.00  0.00    -0.384 OA
ATOM     24  H   UNL     1     -36.033  30.915   0.012  0.00  0.00    +0.210 HD
ENDBRANCH   9  23
BRANCH   6  26
ATOM     25  O   UNL     1     -31.250  28.352   2.905  0.00  0.00    -0.290 OA
ATOM     26  C   UNL     1     -32.004  28.779   3.777  0.00  0.00    +0.218 C 
BRANCH  26  27
ATOM     27  C   UNL     1     -32.514  27.909   4.906  0.00  0.00    +0.274 C 
BRANCH  27  28
ATOM     28  O   UNL     1     -33.827  27.464   4.638  0.00  0.00    -0.440 OA
BRANCH  28  30
ATOM     29  O   UNL     1     -33.327  25.212   4.509  0.00  0.00    -0.250 OA
ATOM     30  C   UNL     1     -34.066  26.128   4.841  0.00  0.00    +0.318 C 
ATOM     31  C   UNL     1     -35.378  25.937   5.539  0.00  0.00    +0.121 C 
ENDBRANCH  28  30
ENDBRANCH  27  28
ENDBRANCH  26  27
ENDBRANCH   6  26
TORSDOF 6
ENDMDL
MODEL 8
REMARK VINA RESULT:      -6.2      4.878      8.483
REMARK  Name = 192156
REMARK  6 active torsions:
REMARK  status: ('A' for Active; 'I' for Inactive)
REMARK    1  A    between atoms: C_6  and  O_21
REMARK    2  A    between atoms: C_6  and  C_26
REMARK    3  A    between atoms: C_9  and  O_23
REMARK    4  A    between atoms: C_26  and  C_27
REMARK    5  A    between atoms: C_27  and  O_28
REMARK    6  A    between atoms: O_28  and  C_30
REMARK                            x       y       z     vdW  Elec       q    Type
REMARK                         _______ _______ _______ _____ _____    ______ ____
ROOT
ATOM      1  O   UNL     1     -31.186  34.067   3.572  0.00  0.00    -0.287 OA
ATOM      2  C   UNL     1     -34.552  26.567   3.837  0.00  0.00    +0.031 C 
ATOM      3  C   UNL     1     -33.747  27.298   4.935  0.00  0.00    +0.003 C 
ATOM      4  C   UNL     1     -32.505  28.028   4.403  0.00  0.00    +0.003 C 
ATOM      5  C   UNL     1     -32.962  29.103   3.355  0.00  0.00    +0.034 C 
ATOM      6  C   UNL     1     -35.652  25.915   4.720  0.00  0.00    +0.143 C 
ATOM      7  C   UNL     1     -35.034  27.631   2.831  0.00  0.00    +0.032 C 
ATOM      8  C   UNL     1     -33.571  26.233   6.014  0.00  0.00    +0.003 C 
ATOM      9  C   UNL     1     -33.884  28.488   2.255  0.00  0.00    +0.111 C 
ATOM     10  C   UNL     1     -31.755  29.981   2.836  0.00  0.00    +0.036 C 
ATOM     11  C   UNL     1     -34.893  25.437   5.980  0.00  0.00    +0.034 C 
ATOM     12  C   UNL     1     -31.725  28.676   5.560  0.00  0.00    +0.004 C 
ATOM     13  C   UNL     1     -33.738  25.456   3.116  0.00  0.00    +0.003 C 
ATOM     14  C   UNL     1     -30.555  29.520   5.070  0.00  0.00    +0.022 C 
ATOM     15  C   UNL     1     -31.033  30.539   4.067  0.00  0.00    -0.038 C 
ATOM     16  C   UNL     1     -30.726  29.200   1.987  0.00  0.00    +0.009 C 
ATOM     17  C   UNL     1     -32.272  31.104   1.947  0.00  0.00    -0.020 C 
ATOM     18  C   UNL     1     -30.856  31.849   4.299  0.00  0.00    +0.034 C 
ATOM     19  C   UNL     1     -32.102  32.409   2.173  0.00  0.00    +0.038 C 
ATOM     20  C   UNL     1     -31.366  32.873   3.364  0.00  0.00    +0.195 C 
ENDROOT
BRANCH   6  21
ATOM     21  O   UNL     1     -36.642  26.866   5.099  0.00  0.00    -0.380 OA
ATOM     22  H   UNL     1     -36.315  27.394   5.844  0.00  0.00    +0.211 HD
ENDBRANCH   6  21
BRANCH   9  23
ATOM     23  O   UNL     1     -33.135  27.717   1.325  0.00  0.00    -0.384 OA
ATOM     24  H   UNL     1     -32.462  27.204   1.799  0.00  0.00    +0.210 HD
ENDBRANCH   9  23
BRANCH   6  26
ATOM     25  O   UNL     1     -37.132  25.046   3.069  0.00  0.00    -0.290 OA
ATOM     26  C   UNL     1     -36.425  24.820   4.049  0.00  0.00    +0.218 C 
BRANCH  26  27
ATOM     27  C   UNL     1     -36.285  23.437   4.647  0.00  0.00    +0.274 C 
BRANCH  27  28
ATOM     28  O   UNL     1     -36.051  22.479   3.637  0.00  0.00    -0.440 OA
BRANCH  28  30
ATOM     29  O   UNL     1     -35.111  20.395   3.299  0.00  0.00    -0.250 OA
ATOM     30  C   UNL     1     -35.400  21.336   4.026  0.00  0.00    +0.318 C 
ATOM     31  C   UNL     1     -35.083  21.393   5.490  0.00  0.00    +0.121 C 
ENDBRANCH  28  30
ENDBRANCH  27  28
ENDBRANCH  26  27
ENDBRANCH   6  26
TORSDOF 6
ENDMDL
MODEL 9
REMARK VINA RESULT:      -6.2      3.804      6.137
REMARK  Name = 192156
REMARK  6 active torsions:
REMARK  status: ('A' for Active; 'I' for Inactive)
REMARK    1  A    between atoms: C_6  and  O_21
REMARK    2  A    between atoms: C_6  and  C_26
REMARK    3  A    between atoms: C_9  and  O_23
REMARK    4  A    between atoms: C_26  and  C_27
REMARK    5  A    between atoms: C_27  and  O_28
REMARK    6  A    between atoms: O_28  and  C_30
REMARK                            x       y       z     vdW  Elec       q    Type
REMARK                         _______ _______ _______ _____ _____    ______ ____
ROOT
ATOM      1  O   UNL     1     -30.782  17.694   1.192  0.00  0.00    -0.287 OA
ATOM      2  C   UNL     1     -35.599  24.351   1.544  0.00  0.00    +0.031 C 
ATOM      3  C   UNL     1     -35.799  22.984   2.233  0.00  0.00    +0.003 C 
ATOM      4  C   UNL     1     -35.487  21.786   1.324  0.00  0.00    +0.003 C 
ATOM      5  C   UNL     1     -33.987  21.873   0.871  0.00  0.00    +0.034 C 
ATOM      6  C   UNL     1     -36.054  25.287   2.698  0.00  0.00    +0.143 C 
ATOM      7  C   UNL     1     -34.116  24.451   1.135  0.00  0.00    +0.032 C 
ATOM      8  C   UNL     1     -37.189  23.099   2.851  0.00  0.00    +0.003 C 
ATOM      9  C   UNL     1     -33.645  23.269   0.259  0.00  0.00    +0.111 C 
ATOM     10  C   UNL     1     -33.547  20.616   0.020  0.00  0.00    +0.036 C 
ATOM     11  C   UNL     1     -37.283  24.571   3.304  0.00  0.00    +0.034 C 
ATOM     12  C   UNL     1     -35.770  20.464   2.060  0.00  0.00    +0.004 C 
ATOM     13  C   UNL     1     -36.523  24.559   0.311  0.00  0.00    +0.003 C 
ATOM     14  C   UNL     1     -35.354  19.246   1.245  0.00  0.00    +0.022 C 
ATOM     15  C   UNL     1     -33.910  19.366   0.829  0.00  0.00    -0.038 C 
ATOM     16  C   UNL     1     -34.239  20.515  -1.359  0.00  0.00    +0.009 C 
ATOM     17  C   UNL     1     -32.051  20.674  -0.259  0.00  0.00    -0.020 C 
ATOM     18  C   UNL     1     -33.020  18.435   1.204  0.00  0.00    +0.034 C 
ATOM     19  C   UNL     1     -31.160  19.752   0.113  0.00  0.00    +0.038 C 
ATOM     20  C   UNL     1     -31.588  18.556   0.862  0.00  0.00    +0.195 C 
ENDROOT
BRANCH   6  21
ATOM     21  O   UNL     1     -35.041  25.411   3.693  0.00  0.00    -0.380 OA
ATOM     22  H   UNL     1     -34.998  26.330   3.996  0.00  0.00    +0.211 HD
ENDBRANCH   6  21
BRANCH   9  23
ATOM     23  O   UNL     1     -34.180  23.403  -1.050  0.00  0.00    -0.384 OA
ATOM     24  H   UNL     1     -33.959  24.280  -1.401  0.00  0.00    +0.210 HD
ENDBRANCH   9  23
BRANCH   6  26
ATOM     25  O   UNL     1     -37.492  27.081   2.075  0.00  0.00    -0.290 OA
ATOM     26  C   UNL     1     -36.342  26.698   2.282  0.00  0.00    +0.218 C 
BRANCH  26  27
ATOM     27  C   UNL     1     -35.144  27.611   2.135  0.00  0.00    +0.274 C 
BRANCH  27  28
ATOM     28  O   UNL     1     -34.811  28.201   3.373  0.00  0.00    -0.440 OA
BRANCH  28  30
ATOM     29  O   UNL     1     -33.067  29.352   4.361  0.00  0.00    -0.250 OA
ATOM     30  C   UNL     1     -33.494  28.548   3.543  0.00  0.00    +0.318 C 
ATOM     31  C   UNL     1     -32.631  27.797   2.575  0.00  0.00    +0.121 C 
ENDBRANCH  28  30
ENDBRANCH  27  28
ENDBRANCH  26  27
ENDBRANCH   6  26
TORSDOF 6
ENDMDL
