MODEL 1
REMARK VINA RESULT:      -5.8      0.000      0.000
REMARK  Name = 5487631
REMARK  6 active torsions:
REMARK  status: ('A' for Active; 'I' for Inactive)
REMARK    1  A    between atoms: C_8  and  O_16
REMARK    2  A    between atoms: C_9  and  O_22
REMARK    3  A    between atoms: C_10  and  O_18
REMARK    4  A    between atoms: C_11  and  O_20
REMARK    5  A    between atoms: C_12  and  O_24
REMARK    6  A    between atoms: C_14  and  O_26
REMARK                            x       y       z     vdW  Elec       q    Type
REMARK                         _______ _______ _______ _____ _____    ______ ____
ROOT
ATOM      1  O   UNL     1     -34.905  20.575   2.117  0.00  0.00    -0.450 OA
ATOM      2  O   UNL     1     -37.706  18.762  -0.252  0.00  0.00    -0.286 OA
ATOM      3  C   UNL     1     -37.191  20.491   1.263  0.00  0.00    +0.114 A 
ATOM      4  C   UNL     1     -36.188  21.058   2.048  0.00  0.00    +0.188 A 
ATOM      5  C   UNL     1     -35.491  18.800   0.545  0.00  0.00    +0.107 A 
ATOM      6  C   UNL     1     -34.587  19.466   1.372  0.00  0.00    +0.154 A 
ATOM      7  C   UNL     1     -36.870  19.304   0.456  0.00  0.00    +0.208 A 
ATOM      8  C   UNL     1     -36.471  22.187   2.820  0.00  0.00    +0.210 A 
ATOM      9  C   UNL     1     -38.474  21.043   1.243  0.00  0.00    +0.177 A 
ATOM     10  C   UNL     1     -37.751  22.740   2.805  0.00  0.00    +0.212 A 
ATOM     11  C   UNL     1     -38.751  22.170   2.017  0.00  0.00    +0.209 A 
ATOM     12  C   UNL     1     -35.092  17.677  -0.183  0.00  0.00    +0.143 C 
ATOM     13  C   UNL     1     -33.272  19.005   1.471  0.00  0.00    +0.075 C 
ATOM     14  C   UNL     1     -32.869  17.884   0.746  0.00  0.00    +0.145 C 
ATOM     15  C   UNL     1     -33.777  17.221  -0.080  0.00  0.00    +0.074 C 
ENDROOT
BRANCH   8  16
ATOM     16  O   UNL     1     -35.498  22.751   3.594  0.00  0.00    -0.465 OA
ATOM     17  C   UNL     1     -35.454  22.359   4.963  0.00  0.00    +0.253 C 
ENDBRANCH   8  16
BRANCH  10  18
ATOM     18  O   UNL     1     -38.026  23.842   3.561  0.00  0.00    -0.465 OA
ATOM     19  C   UNL     1     -37.663  25.108   3.013  0.00  0.00    +0.253 C 
ENDBRANCH  10  18
BRANCH  11  20
ATOM     20  O   UNL     1     -40.001  22.716   2.007  0.00  0.00    -0.465 OA
ATOM     21  C   UNL     1     -40.293  23.642   0.963  0.00  0.00    +0.253 C 
ENDBRANCH  11  20
BRANCH   9  22
ATOM     22  O   UNL     1     -39.480  20.516   0.488  0.00  0.00    -0.503 OA
ATOM     23  H   UNL     1     -39.286  20.113  -0.336  0.00  0.00    +0.292 HD
ENDBRANCH   9  22
BRANCH  12  24
ATOM     24  O   UNL     1     -35.936  16.992  -1.004  0.00  0.00    -0.505 OA
ATOM     25  H   UNL     1     -36.288  17.408  -1.767  0.00  0.00    +0.292 HD
ENDBRANCH  12  24
BRANCH  14  26
ATOM     26  O   UNL     1     -31.588  17.436   0.843  0.00  0.00    -0.471 OA
ATOM     27  C   UNL     1     -30.555  18.330   0.430  0.00  0.00    +0.252 C 
ENDBRANCH  14  26
TORSDOF 6
ENDMDL
MODEL 2
REMARK VINA RESULT:      -5.7      2.492      7.613
REMARK  Name = 5487631
REMARK  6 active torsions:
REMARK  status: ('A' for Active; 'I' for Inactive)
REMARK    1  A    between atoms: C_8  and  O_16
REMARK    2  A    between atoms: C_9  and  O_22
REMARK    3  A    between atoms: C_10  and  O_18
REMARK    4  A    between atoms: C_11  and  O_20
REMARK    5  A    between atoms: C_12  and  O_24
REMARK    6  A    between atoms: C_14  and  O_26
REMARK                            x       y       z     vdW  Elec       q    Type
REMARK                         _______ _______ _______ _____ _____    ______ ____
ROOT
ATOM      1  O   UNL     1     -38.722  25.030   3.358  0.00  0.00    -0.450 OA
ATOM      2  O   UNL     1     -40.313  22.229   0.836  0.00  0.00    -0.286 OA
ATOM      3  C   UNL     1     -38.569  22.835   2.299  0.00  0.00    +0.114 A 
ATOM      4  C   UNL     1     -38.085  23.833   3.143  0.00  0.00    +0.188 A 
ATOM      5  C   UNL     1     -40.503  24.354   1.830  0.00  0.00    +0.107 A 
ATOM      6  C   UNL     1     -39.906  25.263   2.702  0.00  0.00    +0.154 A 
ATOM      7  C   UNL     1     -39.837  23.064   1.589  0.00  0.00    +0.208 A 
ATOM      8  C   UNL     1     -36.884  23.635   3.828  0.00  0.00    +0.210 A 
ATOM      9  C   UNL     1     -37.864  21.641   2.133  0.00  0.00    +0.177 A 
ATOM     10  C   UNL     1     -36.175  22.445   3.665  0.00  0.00    +0.212 A 
ATOM     11  C   UNL     1     -36.665  21.449   2.819  0.00  0.00    +0.209 A 
ATOM     12  C   UNL     1     -41.711  24.663   1.200  0.00  0.00    +0.143 C 
ATOM     13  C   UNL     1     -40.522  26.493   2.947  0.00  0.00    +0.075 C 
ATOM     14  C   UNL     1     -41.728  26.806   2.320  0.00  0.00    +0.145 C 
ATOM     15  C   UNL     1     -42.321  25.893   1.449  0.00  0.00    +0.074 C 
ENDROOT
BRANCH   8  16
ATOM     16  O   UNL     1     -36.398  24.604   4.657  0.00  0.00    -0.465 OA
ATOM     17  C   UNL     1     -35.512  25.561   4.081  0.00  0.00    +0.253 C 
ENDBRANCH   8  16
BRANCH  10  18
ATOM     18  O   UNL     1     -35.002  22.253   4.334  0.00  0.00    -0.465 OA
ATOM     19  C   UNL     1     -35.088  21.680   5.637  0.00  0.00    +0.253 C 
ENDBRANCH  10  18
BRANCH  11  20
ATOM     20  O   UNL     1     -35.966  20.287   2.664  0.00  0.00    -0.465 OA
ATOM     21  C   UNL     1     -34.936  20.280   1.679  0.00  0.00    +0.253 C 
ENDBRANCH  11  20
BRANCH   9  22
ATOM     22  O   UNL     1     -38.307  20.642   1.316  0.00  0.00    -0.503 OA
ATOM     23  H   UNL     1     -37.754  20.316   0.633  0.00  0.00    +0.292 HD
ENDBRANCH   9  22
BRANCH  12  24
ATOM     24  O   UNL     1     -42.334  23.809   0.341  0.00  0.00    -0.505 OA
ATOM     25  H   UNL     1     -43.202  23.508   0.526  0.00  0.00    +0.292 HD
ENDBRANCH  12  24
BRANCH  14  26
ATOM     26  O   UNL     1     -42.327  28.004   2.559  0.00  0.00    -0.471 OA
ATOM     27  C   UNL     1     -42.661  28.304   3.914  0.00  0.00    +0.252 C 
ENDBRANCH  14  26
TORSDOF 6
ENDMDL
MODEL 3
REMARK VINA RESULT:      -5.7      4.436      6.429
REMARK  Name = 5487631
REMARK  6 active torsions:
REMARK  status: ('A' for Active; 'I' for Inactive)
REMARK    1  A    between atoms: C_8  and  O_16
REMARK    2  A    between atoms: C_9  and  O_22
REMARK    3  A    between atoms: C_10  and  O_18
REMARK    4  A    between atoms: C_11  and  O_20
REMARK    5  A    between atoms: C_12  and  O_24
REMARK    6  A    between atoms: C_14  and  O_26
REMARK                            x       y       z     vdW  Elec       q    Type
REMARK                         _______ _______ _______ _____ _____    ______ ____
ROOT
ATOM      1  O   UNL     1     -37.318  25.963   3.006  0.00  0.00    -0.450 OA
ATOM      2  O   UNL     1     -36.676  22.009   3.837  0.00  0.00    -0.286 OA
ATOM      3  C   UNL     1     -37.992  23.630   2.747  0.00  0.00    +0.114 A 
ATOM      4  C   UNL     1     -38.152  24.994   2.505  0.00  0.00    +0.188 A 
ATOM      5  C   UNL     1     -35.988  24.243   4.117  0.00  0.00    +0.107 A 
ATOM      6  C   UNL     1     -36.264  25.571   3.794  0.00  0.00    +0.154 A 
ATOM      7  C   UNL     1     -36.869  23.189   3.588  0.00  0.00    +0.208 A 
ATOM      8  C   UNL     1     -39.211  25.435   1.708  0.00  0.00    +0.210 A 
ATOM      9  C   UNL     1     -38.882  22.703   2.200  0.00  0.00    +0.177 A 
ATOM     10  C   UNL     1     -40.103  24.512   1.160  0.00  0.00    +0.212 A 
ATOM     11  C   UNL     1     -39.938  23.149   1.405  0.00  0.00    +0.209 A 
ATOM     12  C   UNL     1     -34.896  23.921   4.926  0.00  0.00    +0.143 C 
ATOM     13  C   UNL     1     -35.441  26.587   4.285  0.00  0.00    +0.075 C 
ATOM     14  C   UNL     1     -34.349  26.271   5.093  0.00  0.00    +0.145 C 
ATOM     15  C   UNL     1     -34.077  24.941   5.413  0.00  0.00    +0.074 C 
ENDROOT
BRANCH   8  16
ATOM     16  O   UNL     1     -39.379  26.767   1.463  0.00  0.00    -0.465 OA
ATOM     17  C   UNL     1     -38.788  27.284   0.274  0.00  0.00    +0.253 C 
ENDBRANCH   8  16
BRANCH  10  18
ATOM     18  O   UNL     1     -41.137  24.944   0.382  0.00  0.00    -0.465 OA
ATOM     19  C   UNL     1     -42.376  25.200   1.039  0.00  0.00    +0.253 C 
ENDBRANCH  10  18
BRANCH  11  20
ATOM     20  O   UNL     1     -40.814  22.253   0.867  0.00  0.00    -0.465 OA
ATOM     21  C   UNL     1     -40.503  21.744  -0.429  0.00  0.00    +0.253 C 
ENDBRANCH  11  20
BRANCH   9  22
ATOM     22  O   UNL     1     -38.757  21.362   2.415  0.00  0.00    -0.503 OA
ATOM     23  H   UNL     1     -38.044  21.034   2.926  0.00  0.00    +0.292 HD
ENDBRANCH   9  22
BRANCH  12  24
ATOM     24  O   UNL     1     -34.584  22.641   5.269  0.00  0.00    -0.505 OA
ATOM     25  H   UNL     1     -35.258  22.050   5.540  0.00  0.00    +0.292 HD
ENDBRANCH  12  24
BRANCH  14  26
ATOM     26  O   UNL     1     -33.548  27.262   5.570  0.00  0.00    -0.471 OA
ATOM     27  C   UNL     1     -32.860  27.008   6.794  0.00  0.00    +0.252 C 
ENDBRANCH  14  26
TORSDOF 6
ENDMDL
MODEL 4
REMARK VINA RESULT:      -5.5      3.983      5.999
REMARK  Name = 5487631
REMARK  6 active torsions:
REMARK  status: ('A' for Active; 'I' for Inactive)
REMARK    1  A    between atoms: C_8  and  O_16
REMARK    2  A    between atoms: C_9  and  O_22
REMARK    3  A    between atoms: C_10  and  O_18
REMARK    4  A    between atoms: C_11  and  O_20
REMARK    5  A    between atoms: C_12  and  O_24
REMARK    6  A    between atoms: C_14  and  O_26
REMARK                            x       y       z     vdW  Elec       q    Type
REMARK                         _______ _______ _______ _____ _____    ______ ____
ROOT
ATOM      1  O   UNL     1     -38.498  25.264   3.329  0.00  0.00    -0.450 OA
ATOM      2  O   UNL     1     -37.766  21.423   2.125  0.00  0.00    -0.286 OA
ATOM      3  C   UNL     1     -39.149  23.325   1.995  0.00  0.00    +0.114 A 
ATOM      4  C   UNL     1     -39.338  24.631   2.447  0.00  0.00    +0.188 A 
ATOM      5  C   UNL     1     -37.099  23.266   3.430  0.00  0.00    +0.107 A 
ATOM      6  C   UNL     1     -37.407  24.575   3.798  0.00  0.00    +0.154 A 
ATOM      7  C   UNL     1     -37.986  22.570   2.484  0.00  0.00    +0.208 A 
ATOM      8  C   UNL     1     -40.436  25.366   1.994  0.00  0.00    +0.210 A 
ATOM      9  C   UNL     1     -40.048  22.749   1.095  0.00  0.00    +0.177 A 
ATOM     10  C   UNL     1     -41.337  24.794   1.096  0.00  0.00    +0.212 A 
ATOM     11  C   UNL     1     -41.143  23.488   0.646  0.00  0.00    +0.209 A 
ATOM     12  C   UNL     1     -35.969  22.629   3.949  0.00  0.00    +0.143 C 
ATOM     13  C   UNL     1     -36.578  25.254   4.693  0.00  0.00    +0.075 C 
ATOM     14  C   UNL     1     -35.449  24.623   5.215  0.00  0.00    +0.145 C 
ATOM     15  C   UNL     1     -35.145  23.313   4.844  0.00  0.00    +0.074 C 
ENDROOT
BRANCH   8  16
ATOM     16  O   UNL     1     -40.633  26.645   2.429  0.00  0.00    -0.465 OA
ATOM     17  C   UNL     1     -41.443  26.814   3.589  0.00  0.00    +0.253 C 
ENDBRANCH   8  16
BRANCH  10  18
ATOM     18  O   UNL     1     -42.408  25.514   0.655  0.00  0.00    -0.465 OA
ATOM     19  C   UNL     1     -43.668  25.237   1.264  0.00  0.00    +0.253 C 
ENDBRANCH  10  18
BRANCH  11  20
ATOM     20  O   UNL     1     -42.028  22.935  -0.232  0.00  0.00    -0.465 OA
ATOM     21  C   UNL     1     -41.777  23.146  -1.620  0.00  0.00    +0.253 C 
ENDBRANCH  11  20
BRANCH   9  22
ATOM     22  O   UNL     1     -39.896  21.475   0.631  0.00  0.00    -0.503 OA
ATOM     23  H   UNL     1     -39.037  21.114   0.527  0.00  0.00    +0.292 HD
ENDBRANCH   9  22
BRANCH  12  24
ATOM     24  O   UNL     1     -35.625  21.353   3.621  0.00  0.00    -0.505 OA
ATOM     25  H   UNL     1     -34.833  21.187   3.149  0.00  0.00    +0.292 HD
ENDBRANCH  12  24
BRANCH  14  26
ATOM     26  O   UNL     1     -34.642  25.286   6.088  0.00  0.00    -0.471 OA
ATOM     27  C   UNL     1     -33.824  26.326   5.553  0.00  0.00    +0.252 C 
ENDBRANCH  14  26
TORSDOF 6
ENDMDL
MODEL 5
REMARK VINA RESULT:      -5.5      6.051      9.219
REMARK  Name = 5487631
REMARK  6 active torsions:
REMARK  status: ('A' for Active; 'I' for Inactive)
REMARK    1  A    between atoms: C_8  and  O_16
REMARK    2  A    between atoms: C_9  and  O_22
REMARK    3  A    between atoms: C_10  and  O_18
REMARK    4  A    between atoms: C_11  and  O_20
REMARK    5  A    between atoms: C_12  and  O_24
REMARK    6  A    between atoms: C_14  and  O_26
REMARK                            x       y       z     vdW  Elec       q    Type
REMARK                         _______ _______ _______ _____ _____    ______ ____
ROOT
ATOM      1  O   UNL     1     -33.010  26.652   4.758  0.00  0.00    -0.450 OA
ATOM      2  O   UNL     1     -35.850  28.256   2.289  0.00  0.00    -0.286 OA
ATOM      3  C   UNL     1     -33.674  28.393   3.180  0.00  0.00    +0.114 A 
ATOM      4  C   UNL     1     -32.754  27.793   4.039  0.00  0.00    +0.188 A 
ATOM      5  C   UNL     1     -35.257  26.557   3.807  0.00  0.00    +0.107 A 
ATOM      6  C   UNL     1     -34.244  26.064   4.629  0.00  0.00    +0.154 A 
ATOM      7  C   UNL     1     -35.001  27.778   3.026  0.00  0.00    +0.208 A 
ATOM      8  C   UNL     1     -31.487  28.359   4.199  0.00  0.00    +0.210 A 
ATOM      9  C   UNL     1     -33.339  29.554   2.480  0.00  0.00    +0.177 A 
ATOM     10  C   UNL     1     -31.148  29.519   3.502  0.00  0.00    +0.212 A 
ATOM     11  C   UNL     1     -32.072  30.115   2.643  0.00  0.00    +0.209 A 
ATOM     12  C   UNL     1     -36.488  25.903   3.727  0.00  0.00    +0.143 C 
ATOM     13  C   UNL     1     -34.465  24.907   5.378  0.00  0.00    +0.075 C 
ATOM     14  C   UNL     1     -35.693  24.249   5.302  0.00  0.00    +0.145 C 
ATOM     15  C   UNL     1     -36.703  24.747   4.478  0.00  0.00    +0.074 C 
ENDROOT
BRANCH   8  16
ATOM     16  O   UNL     1     -30.577  27.782   5.037  0.00  0.00    -0.465 OA
ATOM     17  C   UNL     1     -30.431  28.365   6.329  0.00  0.00    +0.253 C 
ENDBRANCH   8  16
BRANCH  10  18
ATOM     18  O   UNL     1     -29.911  30.071   3.660  0.00  0.00    -0.465 OA
ATOM     19  C   UNL     1     -28.882  29.610   2.787  0.00  0.00    +0.253 C 
ENDBRANCH  10  18
BRANCH  11  20
ATOM     20  O   UNL     1     -31.734  31.249   1.966  0.00  0.00    -0.465 OA
ATOM     21  C   UNL     1     -31.976  32.491   2.623  0.00  0.00    +0.253 C 
ENDBRANCH  11  20
BRANCH   9  22
ATOM     22  O   UNL     1     -34.212  30.168   1.631  0.00  0.00    -0.503 OA
ATOM     23  H   UNL     1     -33.924  30.447   0.784  0.00  0.00    +0.292 HD
ENDBRANCH   9  22
BRANCH  12  24
ATOM     24  O   UNL     1     -37.508  26.344   2.939  0.00  0.00    -0.505 OA
ATOM     25  H   UNL     1     -37.376  26.454   2.018  0.00  0.00    +0.292 HD
ENDBRANCH  12  24
BRANCH  14  26
ATOM     26  O   UNL     1     -35.906  23.121   6.032  0.00  0.00    -0.471 OA
ATOM     27  C   UNL     1     -35.154  21.963   5.673  0.00  0.00    +0.252 C 
ENDBRANCH  14  26
TORSDOF 6
ENDMDL
MODEL 6
REMARK VINA RESULT:      -5.4      2.023      6.156
REMARK  Name = 5487631
REMARK  6 active torsions:
REMARK  status: ('A' for Active; 'I' for Inactive)
REMARK    1  A    between atoms: C_8  and  O_16
REMARK    2  A    between atoms: C_9  and  O_22
REMARK    3  A    between atoms: C_10  and  O_18
REMARK    4  A    between atoms: C_11  and  O_20
REMARK    5  A    between atoms: C_12  and  O_24
REMARK    6  A    between atoms: C_14  and  O_26
REMARK                            x       y       z     vdW  Elec       q    Type
REMARK                         _______ _______ _______ _____ _____    ______ ____
ROOT
ATOM      1  O   UNL     1     -35.264  22.284   3.160  0.00  0.00    -0.450 OA
ATOM      2  O   UNL     1     -38.776  24.307   2.601  0.00  0.00    -0.286 OA
ATOM      3  C   UNL     1     -37.481  22.394   2.142  0.00  0.00    +0.114 A 
ATOM      4  C   UNL     1     -36.261  21.760   2.375  0.00  0.00    +0.188 A 
ATOM      5  C   UNL     1     -36.646  24.247   3.603  0.00  0.00    +0.107 A 
ATOM      6  C   UNL     1     -35.475  23.505   3.752  0.00  0.00    +0.154 A 
ATOM      7  C   UNL     1     -37.727  23.702   2.767  0.00  0.00    +0.208 A 
ATOM      8  C   UNL     1     -36.006  20.517   1.792  0.00  0.00    +0.210 A 
ATOM      9  C   UNL     1     -38.448  21.796   1.331  0.00  0.00    +0.177 A 
ATOM     10  C   UNL     1     -36.969  19.916   0.981  0.00  0.00    +0.212 A 
ATOM     11  C   UNL     1     -38.188  20.554   0.751  0.00  0.00    +0.209 A 
ATOM     12  C   UNL     1     -36.788  25.483   4.238  0.00  0.00    +0.143 C 
ATOM     13  C   UNL     1     -34.437  24.003   4.541  0.00  0.00    +0.075 C 
ATOM     14  C   UNL     1     -34.574  25.237   5.177  0.00  0.00    +0.145 C 
ATOM     15  C   UNL     1     -35.747  25.976   5.025  0.00  0.00    +0.074 C 
ENDROOT
BRANCH   8  16
ATOM     16  O   UNL     1     -34.816  19.885   2.012  0.00  0.00    -0.465 OA
ATOM     17  C   UNL     1     -33.746  20.200   1.125  0.00  0.00    +0.253 C 
ENDBRANCH   8  16
BRANCH  10  18
ATOM     18  O   UNL     1     -36.718  18.702   0.412  0.00  0.00    -0.465 OA
ATOM     19  C   UNL     1     -36.129  18.706  -0.887  0.00  0.00    +0.253 C 
ENDBRANCH  10  18
BRANCH  11  20
ATOM     20  O   UNL     1     -39.124  19.961  -0.044  0.00  0.00    -0.465 OA
ATOM     21  C   UNL     1     -39.196  20.403  -1.397  0.00  0.00    +0.253 C 
ENDBRANCH  11  20
BRANCH   9  22
ATOM     22  O   UNL     1     -39.652  22.386   1.080  0.00  0.00    -0.503 OA
ATOM     23  H   UNL     1     -40.333  22.349   1.722  0.00  0.00    +0.292 HD
ENDBRANCH   9  22
BRANCH  12  24
ATOM     24  O   UNL     1     -37.912  26.246   4.125  0.00  0.00    -0.505 OA
ATOM     25  H   UNL     1     -38.751  25.876   4.314  0.00  0.00    +0.292 HD
ENDBRANCH  12  24
BRANCH  14  26
ATOM     26  O   UNL     1     -33.561  25.721   5.947  0.00  0.00    -0.471 OA
ATOM     27  C   UNL     1     -33.035  27.001   5.597  0.00  0.00    +0.252 C 
ENDBRANCH  14  26
TORSDOF 6
ENDMDL
MODEL 7
REMARK VINA RESULT:      -5.4      4.566      7.180
REMARK  Name = 5487631
REMARK  6 active torsions:
REMARK  status: ('A' for Active; 'I' for Inactive)
REMARK    1  A    between atoms: C_8  and  O_16
REMARK    2  A    between atoms: C_9  and  O_22
REMARK    3  A    between atoms: C_10  and  O_18
REMARK    4  A    between atoms: C_11  and  O_20
REMARK    5  A    between atoms: C_12  and  O_24
REMARK    6  A    between atoms: C_14  and  O_26
REMARK                            x       y       z     vdW  Elec       q    Type
REMARK                         _______ _______ _______ _____ _____    ______ ____
ROOT
ATOM      1  O   UNL     1     -33.905  24.937   1.741  0.00  0.00    -0.450 OA
ATOM      2  O   UNL     1     -35.029  24.326   5.627  0.00  0.00    -0.286 OA
ATOM      3  C   UNL     1     -33.919  25.694   4.063  0.00  0.00    +0.114 A 
ATOM      4  C   UNL     1     -33.570  25.838   2.721  0.00  0.00    +0.188 A 
ATOM      5  C   UNL     1     -35.040  23.554   3.403  0.00  0.00    +0.107 A 
ATOM      6  C   UNL     1     -34.626  23.824   2.100  0.00  0.00    +0.154 A 
ATOM      7  C   UNL     1     -34.693  24.509   4.467  0.00  0.00    +0.208 A 
ATOM      8  C   UNL     1     -32.837  26.955   2.314  0.00  0.00    +0.210 A 
ATOM      9  C   UNL     1     -33.543  26.656   5.002  0.00  0.00    +0.177 A 
ATOM     10  C   UNL     1     -32.458  27.919   3.249  0.00  0.00    +0.212 A 
ATOM     11  C   UNL     1     -32.811  27.770   4.590  0.00  0.00    +0.209 A 
ATOM     12  C   UNL     1     -35.772  22.400   3.691  0.00  0.00    +0.143 C 
ATOM     13  C   UNL     1     -34.945  22.931   1.074  0.00  0.00    +0.075 C 
ATOM     14  C   UNL     1     -35.676  21.777   1.356  0.00  0.00    +0.145 C 
ATOM     15  C   UNL     1     -36.088  21.512   2.662  0.00  0.00    +0.074 C 
ENDROOT
BRANCH   8  16
ATOM     16  O   UNL     1     -32.488  27.109   1.004  0.00  0.00    -0.465 OA
ATOM     17  C   UNL     1     -31.225  26.582   0.607  0.00  0.00    +0.253 C 
ENDBRANCH   8  16
BRANCH  10  18
ATOM     18  O   UNL     1     -31.742  29.009   2.851  0.00  0.00    -0.465 OA
ATOM     19  C   UNL     1     -32.485  30.161   2.455  0.00  0.00    +0.253 C 
ENDBRANCH  10  18
BRANCH  11  20
ATOM     20  O   UNL     1     -32.436  28.716   5.499  0.00  0.00    -0.465 OA
ATOM     21  C   UNL     1     -31.171  28.537   6.133  0.00  0.00    +0.253 C 
ENDBRANCH  11  20
BRANCH   9  22
ATOM     22  O   UNL     1     -33.867  26.548   6.323  0.00  0.00    -0.503 OA
ATOM     23  H   UNL     1     -34.253  27.275   6.771  0.00  0.00    +0.292 HD
ENDBRANCH   9  22
BRANCH  12  24
ATOM     24  O   UNL     1     -36.200  22.092   4.947  0.00  0.00    -0.505 OA
ATOM     25  H   UNL     1     -37.032  21.679   5.071  0.00  0.00    +0.292 HD
ENDBRANCH  12  24
BRANCH  14  26
ATOM     26  O   UNL     1     -35.987  20.908   0.356  0.00  0.00    -0.471 OA
ATOM     27  C   UNL     1     -36.177  19.541   0.720  0.00  0.00    +0.252 C 
ENDBRANCH  14  26
TORSDOF 6
ENDMDL
MODEL 8
REMARK VINA RESULT:      -5.3      3.068      7.032
REMARK  Name = 5487631
REMARK  6 active torsions:
REMARK  status: ('A' for Active; 'I' for Inactive)
REMARK    1  A    between atoms: C_8  and  O_16
REMARK    2  A    between atoms: C_9  and  O_22
REMARK    3  A    between atoms: C_10  and  O_18
REMARK    4  A    between atoms: C_11  and  O_20
REMARK    5  A    between atoms: C_12  and  O_24
REMARK    6  A    between atoms: C_14  and  O_26
REMARK                            x       y       z     vdW  Elec       q    Type
REMARK                         _______ _______ _______ _____ _____    ______ ____
ROOT
ATOM      1  O   UNL     1     -38.372  22.395   1.836  0.00  0.00    -0.450 OA
ATOM      2  O   UNL     1     -39.308  26.261   2.793  0.00  0.00    -0.286 OA
ATOM      3  C   UNL     1     -37.903  24.403   3.144  0.00  0.00    +0.114 A 
ATOM      4  C   UNL     1     -37.641  23.086   2.770  0.00  0.00    +0.188 A 
ATOM      5  C   UNL     1     -39.800  24.349   1.512  0.00  0.00    +0.107 A 
ATOM      6  C   UNL     1     -39.427  23.035   1.233  0.00  0.00    +0.154 A 
ATOM      7  C   UNL     1     -39.028  25.107   2.508  0.00  0.00    +0.208 A 
ATOM      8  C   UNL     1     -36.577  22.399   3.360  0.00  0.00    +0.210 A 
ATOM      9  C   UNL     1     -37.112  25.040   4.102  0.00  0.00    +0.177 A 
ATOM     10  C   UNL     1     -35.784  23.031   4.319  0.00  0.00    +0.212 A 
ATOM     11  C   UNL     1     -36.051  24.349   4.688  0.00  0.00    +0.209 A 
ATOM     12  C   UNL     1     -40.886  24.933   0.856  0.00  0.00    +0.143 C 
ATOM     13  C   UNL     1     -40.146  22.297   0.290  0.00  0.00    +0.075 C 
ATOM     14  C   UNL     1     -41.231  22.875  -0.368  0.00  0.00    +0.145 C 
ATOM     15  C   UNL     1     -41.601  24.191  -0.086  0.00  0.00    +0.074 C 
ENDROOT
BRANCH   8  16
ATOM     16  O   UNL     1     -36.310  21.109   3.004  0.00  0.00    -0.465 OA
ATOM     17  C   UNL     1     -35.376  20.912   1.946  0.00  0.00    +0.253 C 
ENDBRANCH   8  16
BRANCH  10  18
ATOM     18  O   UNL     1     -34.746  22.359   4.894  0.00  0.00    -0.465 OA
ATOM     19  C   UNL     1     -35.029  21.633   6.088  0.00  0.00    +0.253 C 
ENDBRANCH  10  18
BRANCH  11  20
ATOM     20  O   UNL     1     -35.272  24.961   5.626  0.00  0.00    -0.465 OA
ATOM     21  C   UNL     1     -34.104  25.632   5.158  0.00  0.00    +0.253 C 
ENDBRANCH  11  20
BRANCH   9  22
ATOM     22  O   UNL     1     -37.338  26.327   4.493  0.00  0.00    -0.503 OA
ATOM     23  H   UNL     1     -37.163  27.033   3.901  0.00  0.00    +0.292 HD
ENDBRANCH   9  22
BRANCH  12  24
ATOM     24  O   UNL     1     -41.290  26.212   1.092  0.00  0.00    -0.505 OA
ATOM     25  H   UNL     1     -42.081  26.533   0.706  0.00  0.00    +0.292 HD
ENDBRANCH  12  24
BRANCH  14  26
ATOM     26  O   UNL     1     -41.931  22.156  -1.287  0.00  0.00    -0.471 OA
ATOM     27  C   UNL     1     -41.393  20.890  -1.667  0.00  0.00    +0.252 C 
ENDBRANCH  14  26
TORSDOF 6
ENDMDL
MODEL 9
REMARK VINA RESULT:      -5.3      4.542      7.091
REMARK  Name = 5487631
REMARK  6 active torsions:
REMARK  status: ('A' for Active; 'I' for Inactive)
REMARK    1  A    between atoms: C_8  and  O_16
REMARK    2  A    between atoms: C_9  and  O_22
REMARK    3  A    between atoms: C_10  and  O_18
REMARK    4  A    between atoms: C_11  and  O_20
REMARK    5  A    between atoms: C_12  and  O_24
REMARK    6  A    between atoms: C_14  and  O_26
REMARK                            x       y       z     vdW  Elec       q    Type
REMARK                         _______ _______ _______ _____ _____    ______ ____
ROOT
ATOM      1  O   UNL     1     -36.924  23.767   2.939  0.00  0.00    -0.450 OA
ATOM      2  O   UNL     1     -38.294  27.180   1.146  0.00  0.00    -0.286 OA
ATOM      3  C   UNL     1     -36.678  26.161   2.525  0.00  0.00    +0.114 A 
ATOM      4  C   UNL     1     -36.268  24.962   3.106  0.00  0.00    +0.188 A 
ATOM      5  C   UNL     1     -38.573  24.872   1.517  0.00  0.00    +0.107 A 
ATOM      6  C   UNL     1     -38.052  23.748   2.156  0.00  0.00    +0.154 A 
ATOM      7  C   UNL     1     -37.884  26.162   1.682  0.00  0.00    +0.208 A 
ATOM      8  C   UNL     1     -35.126  24.939   3.909  0.00  0.00    +0.210 A 
ATOM      9  C   UNL     1     -35.957  27.338   2.741  0.00  0.00    +0.177 A 
ATOM     10  C   UNL     1     -34.402  26.111   4.128  0.00  0.00    +0.212 A 
ATOM     11  C   UNL     1     -34.817  27.308   3.544  0.00  0.00    +0.209 A 
ATOM     12  C   UNL     1     -39.726  24.774   0.736  0.00  0.00    +0.143 C 
ATOM     13  C   UNL     1     -38.690  22.514   2.013  0.00  0.00    +0.075 C 
ATOM     14  C   UNL     1     -39.842  22.410   1.234  0.00  0.00    +0.145 C 
ATOM     15  C   UNL     1     -40.359  23.538   0.596  0.00  0.00    +0.074 C 
ENDROOT
BRANCH   8  16
ATOM     16  O   UNL     1     -34.713  23.771   4.484  0.00  0.00    -0.465 OA
ATOM     17  C   UNL     1     -35.331  23.405   5.714  0.00  0.00    +0.253 C 
ENDBRANCH   8  16
BRANCH  10  18
ATOM     18  O   UNL     1     -33.287  26.087   4.913  0.00  0.00    -0.465 OA
ATOM     19  C   UNL     1     -33.441  26.505   6.267  0.00  0.00    +0.253 C 
ENDBRANCH  10  18
BRANCH  11  20
ATOM     20  O   UNL     1     -34.105  28.451   3.762  0.00  0.00    -0.465 OA
ATOM     21  C   UNL     1     -33.025  28.720   2.870  0.00  0.00    +0.253 C 
ENDBRANCH  11  20
BRANCH   9  22
ATOM     22  O   UNL     1     -36.328  28.529   2.189  0.00  0.00    -0.503 OA
ATOM     23  H   UNL     1     -36.027  29.333   2.565  0.00  0.00    +0.292 HD
ENDBRANCH   9  22
BRANCH  12  24
ATOM     24  O   UNL     1     -40.274  25.841   0.091  0.00  0.00    -0.505 OA
ATOM     25  H   UNL     1     -41.202  25.891  -0.030  0.00  0.00    +0.292 HD
ENDBRANCH  12  24
BRANCH  14  26
ATOM     26  O   UNL     1     -40.462  21.207   1.094  0.00  0.00    -0.471 OA
ATOM     27  C   UNL     1     -40.764  20.782  -0.234  0.00  0.00    +0.252 C 
ENDBRANCH  14  26
TORSDOF 6
ENDMDL
