MODEL 1
REMARK VINA RESULT:      -5.6      0.000      0.000
REMARK  Name = 195067
REMARK  11 active torsions:
REMARK  status: ('A' for Active; 'I' for Inactive)
REMARK    1  A    between atoms: C_2  and  N_15
REMARK    2  A    between atoms: C_3  and  O_9
REMARK    3  A    between atoms: O_9  and  C_10
REMARK    4  A    between atoms: C_10  and  C_12
REMARK    5  A    between atoms: C_12  and  O_13
REMARK    6  A    between atoms: N_15  and  C_16
REMARK    7  A    between atoms: N_15  and  C_21
REMARK    8  A    between atoms: C_16  and  C_18
REMARK    9  A    between atoms: C_18  and  O_19
REMARK   10  A    between atoms: C_21  and  C_23
REMARK   11  A    between atoms: C_23  and  O_24
REMARK                            x       y       z     vdW  Elec       q    Type
REMARK                         _______ _______ _______ _____ _____    ______ ____
ROOT
ATOM      1  F   UNL     1     -40.167  22.856   2.093  0.00  0.00    -0.204 F 
ATOM      2  C   UNL     1     -36.999  25.210   3.312  0.00  0.00    +0.083 C 
ATOM      3  C   UNL     1     -36.827  23.837   3.142  0.00  0.00    +0.155 C 
ATOM      4  C   UNL     1     -38.245  25.791   3.071  0.00  0.00    +0.016 C 
ATOM      5  C   UNL     1     -39.316  24.999   2.659  0.00  0.00    +0.007 C 
ATOM      6  C   UNL     1     -37.898  23.044   2.730  0.00  0.00    +0.067 C 
ATOM      7  C   UNL     1     -39.144  23.625   2.490  0.00  0.00    +0.139 C 
ATOM      8  C   UNL     1     -40.646  25.623   2.402  0.00  0.00    +0.033 C 
ENDROOT
BRANCH   3   9
ATOM      9  O   UNL     1     -35.618  23.250   3.373  0.00  0.00    -0.462 OA
BRANCH   9  10
ATOM     10  C   UNL     1     -35.631  21.903   3.842  0.00  0.00    +0.314 C 
BRANCH  10  12
ATOM     11  O   UNL     1     -35.765  22.839   6.080  0.00  0.00    -0.246 OA
ATOM     12  C   UNL     1     -35.555  21.887   5.343  0.00  0.00    +0.359 C 
BRANCH  12  13
ATOM     13  O   UNL     1     -35.215  20.648   5.782  0.00  0.00    -0.478 OA
ATOM     14  H   UNL     1     -34.341  20.333   5.664  0.00  0.00    +0.295 HD
ENDBRANCH  12  13
ENDBRANCH  10  12
ENDBRANCH   9  10
ENDBRANCH   3   9
BRANCH   2  15
ATOM     15  N   UNL     1     -35.923  26.023   3.729  0.00  0.00    -0.286 N 
BRANCH  15  16
ATOM     16  C   UNL     1     -35.667  26.235   5.138  0.00  0.00    +0.202 C 
BRANCH  16  18
ATOM     17  O   UNL     1     -33.495  26.892   5.948  0.00  0.00    -0.248 OA
ATOM     18  C   UNL     1     -34.202  26.050   5.410  0.00  0.00    +0.334 C 
BRANCH  18  19
ATOM     19  O   UNL     1     -33.744  24.837   5.009  0.00  0.00    -0.479 OA
ATOM     20  H   UNL     1     -34.167  24.386   4.304  0.00  0.00    +0.295 HD
ENDBRANCH  18  19
ENDBRANCH  16  18
ENDBRANCH  15  16
BRANCH  15  21
ATOM     21  C   UNL     1     -35.070  26.667   2.750  0.00  0.00    +0.202 C 
BRANCH  21  23
ATOM     22  O   UNL     1     -34.633  28.962   3.342  0.00  0.00    -0.248 OA
ATOM     23  C   UNL     1     -35.335  28.145   2.760  0.00  0.00    +0.334 C 
BRANCH  23  24
ATOM     24  O   UNL     1     -36.432  28.485   2.038  0.00  0.00    -0.479 OA
ATOM     25  H   UNL     1     -37.265  28.563   2.460  0.00  0.00    +0.295 HD
ENDBRANCH  23  24
ENDBRANCH  21  23
ENDBRANCH  15  21
ENDBRANCH   2  15
TORSDOF 11
ENDMDL
MODEL 2
REMARK VINA RESULT:      -5.5      0.084      2.358
REMARK  Name = 195067
REMARK  11 active torsions:
REMARK  status: ('A' for Active; 'I' for Inactive)
REMARK    1  A    between atoms: C_2  and  N_15
REMARK    2  A    between atoms: C_3  and  O_9
REMARK    3  A    between atoms: O_9  and  C_10
REMARK    4  A    between atoms: C_10  and  C_12
REMARK    5  A    between atoms: C_12  and  O_13
REMARK    6  A    between atoms: N_15  and  C_16
REMARK    7  A    between atoms: N_15  and  C_21
REMARK    8  A    between atoms: C_16  and  C_18
REMARK    9  A    between atoms: C_18  and  O_19
REMARK   10  A    between atoms: C_21  and  C_23
REMARK   11  A    between atoms: C_23  and  O_24
REMARK                            x       y       z     vdW  Elec       q    Type
REMARK                         _______ _______ _______ _____ _____    ______ ____
ROOT
ATOM      1  F   UNL     1     -40.235  22.927   2.131  0.00  0.00    -0.204 F 
ATOM      2  C   UNL     1     -37.033  25.257   3.308  0.00  0.00    +0.083 C 
ATOM      3  C   UNL     1     -36.878  23.879   3.155  0.00  0.00    +0.155 C 
ATOM      4  C   UNL     1     -38.273  25.850   3.066  0.00  0.00    +0.016 C 
ATOM      5  C   UNL     1     -39.355  25.066   2.668  0.00  0.00    +0.007 C 
ATOM      6  C   UNL     1     -37.960  23.095   2.756  0.00  0.00    +0.067 C 
ATOM      7  C   UNL     1     -39.200  23.688   2.514  0.00  0.00    +0.139 C 
ATOM      8  C   UNL     1     -40.679  25.702   2.409  0.00  0.00    +0.033 C 
ENDROOT
BRANCH   3   9
ATOM      9  O   UNL     1     -35.675  23.281   3.387  0.00  0.00    -0.462 OA
BRANCH   9  10
ATOM     10  C   UNL     1     -35.702  21.932   3.851  0.00  0.00    +0.314 C 
BRANCH  10  12
ATOM     11  O   UNL     1     -35.751  22.843   6.102  0.00  0.00    -0.246 OA
ATOM     12  C   UNL     1     -35.548  21.906   5.345  0.00  0.00    +0.359 C 
BRANCH  12  13
ATOM     13  O   UNL     1     -35.145  20.675   5.753  0.00  0.00    -0.478 OA
ATOM     14  H   UNL     1     -34.450  20.237   5.304  0.00  0.00    +0.295 HD
ENDBRANCH  12  13
ENDBRANCH  10  12
ENDBRANCH   9  10
ENDBRANCH   3   9
BRANCH   2  15
ATOM     15  N   UNL     1     -35.945  26.062   3.711  0.00  0.00    -0.286 N 
BRANCH  15  16
ATOM     16  C   UNL     1     -35.109  26.711   2.723  0.00  0.00    +0.202 C 
BRANCH  16  18
ATOM     17  O   UNL     1     -34.759  29.017   3.330  0.00  0.00    -0.248 OA
ATOM     18  C   UNL     1     -35.407  28.183   2.711  0.00  0.00    +0.334 C 
BRANCH  18  19
ATOM     19  O   UNL     1     -36.468  28.496   1.925  0.00  0.00    -0.479 OA
ATOM     20  H   UNL     1     -36.723  29.391   1.815  0.00  0.00    +0.295 HD
ENDBRANCH  18  19
ENDBRANCH  16  18
ENDBRANCH  15  16
BRANCH  15  21
ATOM     21  C   UNL     1     -35.644  26.234   5.118  0.00  0.00    +0.202 C 
BRANCH  21  23
ATOM     22  O   UNL     1     -33.437  26.922   5.801  0.00  0.00    -0.248 OA
ATOM     23  C   UNL     1     -34.168  26.059   5.332  0.00  0.00    +0.334 C 
BRANCH  23  24
ATOM     24  O   UNL     1     -33.728  24.829   4.963  0.00  0.00    -0.479 OA
ATOM     25  H   UNL     1     -34.180  24.351   4.296  0.00  0.00    +0.295 HD
ENDBRANCH  23  24
ENDBRANCH  21  23
ENDBRANCH  15  21
ENDBRANCH   2  15
TORSDOF 11
ENDMDL
MODEL 3
REMARK VINA RESULT:      -5.4      2.182      4.895
REMARK  Name = 195067
REMARK  11 active torsions:
REMARK  status: ('A' for Active; 'I' for Inactive)
REMARK    1  A    between atoms: C_2  and  N_15
REMARK    2  A    between atoms: C_3  and  O_9
REMARK    3  A    between atoms: O_9  and  C_10
REMARK    4  A    between atoms: C_10  and  C_12
REMARK    5  A    between atoms: C_12  and  O_13
REMARK    6  A    between atoms: N_15  and  C_16
REMARK    7  A    between atoms: N_15  and  C_21
REMARK    8  A    between atoms: C_16  and  C_18
REMARK    9  A    between atoms: C_18  and  O_19
REMARK   10  A    between atoms: C_21  and  C_23
REMARK   11  A    between atoms: C_23  and  O_24
REMARK                            x       y       z     vdW  Elec       q    Type
REMARK                         _______ _______ _______ _____ _____    ______ ____
ROOT
ATOM      1  F   UNL     1     -37.901  20.246   0.681  0.00  0.00    -0.204 F 
ATOM      2  C   UNL     1     -35.897  22.852   3.182  0.00  0.00    +0.083 C 
ATOM      3  C   UNL     1     -37.276  22.968   3.010  0.00  0.00    +0.155 C 
ATOM      4  C   UNL     1     -35.192  21.855   2.507  0.00  0.00    +0.016 C 
ATOM      5  C   UNL     1     -35.866  20.974   1.662  0.00  0.00    +0.007 C 
ATOM      6  C   UNL     1     -37.951  22.086   2.165  0.00  0.00    +0.067 C 
ATOM      7  C   UNL     1     -37.245  21.089   1.490  0.00  0.00    +0.139 C 
ATOM      8  C   UNL     1     -35.109  19.909   0.942  0.00  0.00    +0.033 C 
ENDROOT
BRANCH   3   9
ATOM      9  O   UNL     1     -37.984  23.935   3.660  0.00  0.00    -0.462 OA
BRANCH   9  10
ATOM     10  C   UNL     1     -39.167  24.411   3.022  0.00  0.00    +0.314 C 
BRANCH  10  12
ATOM     11  O   UNL     1     -38.197  26.565   2.457  0.00  0.00    -0.246 OA
ATOM     12  C   UNL     1     -39.120  25.909   2.916  0.00  0.00    +0.359 C 
BRANCH  12  13
ATOM     13  O   UNL     1     -40.264  26.450   3.408  0.00  0.00    -0.478 OA
ATOM     14  H   UNL     1     -40.237  26.984   4.177  0.00  0.00    +0.295 HD
ENDBRANCH  12  13
ENDBRANCH  10  12
ENDBRANCH   9  10
ENDBRANCH   3   9
BRANCH   2  15
ATOM     15  N   UNL     1     -35.203  23.738   4.034  0.00  0.00    -0.286 N 
BRANCH  15  16
ATOM     16  C   UNL     1     -35.219  25.164   3.779  0.00  0.00    +0.202 C 
BRANCH  16  18
ATOM     17  O   UNL     1     -34.610  26.214   5.860  0.00  0.00    -0.248 OA
ATOM     18  C   UNL     1     -35.483  25.894   5.064  0.00  0.00    +0.334 C 
BRANCH  18  19
ATOM     19  O   UNL     1     -36.798  26.179   5.243  0.00  0.00    -0.479 OA
ATOM     20  H   UNL     1     -37.193  26.059   6.084  0.00  0.00    +0.295 HD
ENDBRANCH  18  19
ENDBRANCH  16  18
ENDBRANCH  15  16
BRANCH  15  21
ATOM     21  C   UNL     1     -34.454  23.230   5.165  0.00  0.00    +0.202 C 
BRANCH  21  23
ATOM     22  O   UNL     1     -36.253  22.432   6.557  0.00  0.00    -0.248 OA
ATOM     23  C   UNL     1     -35.271  22.185   5.870  0.00  0.00    +0.334 C 
BRANCH  23  24
ATOM     24  O   UNL     1     -34.811  20.926   5.651  0.00  0.00    -0.479 OA
ATOM     25  H   UNL     1     -35.027  20.481   4.856  0.00  0.00    +0.295 HD
ENDBRANCH  23  24
ENDBRANCH  21  23
ENDBRANCH  15  21
ENDBRANCH   2  15
TORSDOF 11
ENDMDL
MODEL 4
REMARK VINA RESULT:      -5.3      2.100      4.296
REMARK  Name = 195067
REMARK  11 active torsions:
REMARK  status: ('A' for Active; 'I' for Inactive)
REMARK    1  A    between atoms: C_2  and  N_15
REMARK    2  A    between atoms: C_3  and  O_9
REMARK    3  A    between atoms: O_9  and  C_10
REMARK    4  A    between atoms: C_10  and  C_12
REMARK    5  A    between atoms: C_12  and  O_13
REMARK    6  A    between atoms: N_15  and  C_16
REMARK    7  A    between atoms: N_15  and  C_21
REMARK    8  A    between atoms: C_16  and  C_18
REMARK    9  A    between atoms: C_18  and  O_19
REMARK   10  A    between atoms: C_21  and  C_23
REMARK   11  A    between atoms: C_23  and  O_24
REMARK                            x       y       z     vdW  Elec       q    Type
REMARK                         _______ _______ _______ _____ _____    ______ ____
ROOT
ATOM      1  F   UNL     1     -38.298  20.602   0.920  0.00  0.00    -0.204 F 
ATOM      2  C   UNL     1     -36.136  23.097   3.403  0.00  0.00    +0.083 C 
ATOM      3  C   UNL     1     -37.490  23.338   3.175  0.00  0.00    +0.155 C 
ATOM      4  C   UNL     1     -35.508  22.012   2.790  0.00  0.00    +0.016 C 
ATOM      5  C   UNL     1     -36.236  21.168   1.952  0.00  0.00    +0.007 C 
ATOM      6  C   UNL     1     -38.218  22.493   2.337  0.00  0.00    +0.067 C 
ATOM      7  C   UNL     1     -37.591  21.409   1.724  0.00  0.00    +0.139 C 
ATOM      8  C   UNL     1     -35.562  20.008   1.298  0.00  0.00    +0.033 C 
ENDROOT
BRANCH   3   9
ATOM      9  O   UNL     1     -38.122  24.393   3.764  0.00  0.00    -0.462 OA
BRANCH   9  10
ATOM     10  C   UNL     1     -39.413  24.737   3.264  0.00  0.00    +0.314 C 
BRANCH  10  12
ATOM     11  O   UNL     1     -38.389  26.681   2.229  0.00  0.00    -0.246 OA
ATOM     12  C   UNL     1     -39.377  26.118   2.674  0.00  0.00    +0.359 C 
BRANCH  12  13
ATOM     13  O   UNL     1     -40.617  26.671   2.701  0.00  0.00    -0.478 OA
ATOM     14  H   UNL     1     -41.345  26.174   3.018  0.00  0.00    +0.295 HD
ENDBRANCH  12  13
ENDBRANCH  10  12
ENDBRANCH   9  10
ENDBRANCH   3   9
BRANCH   2  15
ATOM     15  N   UNL     1     -35.388  23.944   4.249  0.00  0.00    -0.286 N 
BRANCH  15  16
ATOM     16  C   UNL     1     -35.483  23.813   5.688  0.00  0.00    +0.202 C 
BRANCH  16  18
ATOM     17  O   UNL     1     -34.221  21.778   5.954  0.00  0.00    -0.248 OA
ATOM     18  C   UNL     1     -35.284  22.374   6.069  0.00  0.00    +0.334 C 
BRANCH  18  19
ATOM     19  O   UNL     1     -36.408  21.805   6.573  0.00  0.00    -0.479 OA
ATOM     20  H   UNL     1     -36.689  22.012   7.442  0.00  0.00    +0.295 HD
ENDBRANCH  18  19
ENDBRANCH  16  18
ENDBRANCH  15  16
BRANCH  15  21
ATOM     21  C   UNL     1     -34.528  24.966   3.687  0.00  0.00    +0.202 C 
BRANCH  21  23
ATOM     22  O   UNL     1     -34.150  27.016   4.897  0.00  0.00    -0.248 OA
ATOM     23  C   UNL     1     -34.910  26.303   4.256  0.00  0.00    +0.334 C 
BRANCH  23  24
ATOM     24  O   UNL     1     -36.192  26.645   3.970  0.00  0.00    -0.479 OA
ATOM     25  H   UNL     1     -36.900  26.130   4.303  0.00  0.00    +0.295 HD
ENDBRANCH  23  24
ENDBRANCH  21  23
ENDBRANCH  15  21
ENDBRANCH   2  15
TORSDOF 11
ENDMDL
MODEL 5
REMARK VINA RESULT:      -5.3      2.602      4.496
REMARK  Name = 195067
REMARK  11 active torsions:
REMARK  status: ('A' for Active; 'I' for Inactive)
REMARK    1  A    between atoms: C_2  and  N_15
REMARK    2  A    between atoms: C_3  and  O_9
REMARK    3  A    between atoms: O_9  and  C_10
REMARK    4  A    between atoms: C_10  and  C_12
REMARK    5  A    between atoms: C_12  and  O_13
REMARK    6  A    between atoms: N_15  and  C_16
REMARK    7  A    between atoms: N_15  and  C_21
REMARK    8  A    between atoms: C_16  and  C_18
REMARK    9  A    between atoms: C_18  and  O_19
REMARK   10  A    between atoms: C_21  and  C_23
REMARK   11  A    between atoms: C_23  and  O_24
REMARK                            x       y       z     vdW  Elec       q    Type
REMARK                         _______ _______ _______ _____ _____    ______ ____
ROOT
ATOM      1  F   UNL     1     -34.774  20.240   3.051  0.00  0.00    -0.204 F 
ATOM      2  C   UNL     1     -37.116  23.477   2.002  0.00  0.00    +0.083 C 
ATOM      3  C   UNL     1     -36.597  23.377   3.293  0.00  0.00    +0.155 C 
ATOM      4  C   UNL     1     -36.845  22.482   1.062  0.00  0.00    +0.016 C 
ATOM      5  C   UNL     1     -36.054  21.388   1.414  0.00  0.00    +0.007 C 
ATOM      6  C   UNL     1     -35.807  22.283   3.644  0.00  0.00    +0.067 C 
ATOM      7  C   UNL     1     -35.536  21.287   2.705  0.00  0.00    +0.139 C 
ATOM      8  C   UNL     1     -35.766  20.325   0.408  0.00  0.00    +0.033 C 
ENDROOT
BRANCH   3   9
ATOM      9  O   UNL     1     -36.851  24.338   4.225  0.00  0.00    -0.462 OA
BRANCH   9  10
ATOM     10  C   UNL     1     -35.945  24.431   5.323  0.00  0.00    +0.314 C 
BRANCH  10  12
ATOM     11  O   UNL     1     -34.477  26.288   5.871  0.00  0.00    -0.246 OA
ATOM     12  C   UNL     1     -35.583  25.870   5.563  0.00  0.00    +0.359 C 
BRANCH  12  13
ATOM     13  O   UNL     1     -36.672  26.662   5.388  0.00  0.00    -0.478 OA
ATOM     14  H   UNL     1     -36.671  27.319   4.720  0.00  0.00    +0.295 HD
ENDBRANCH  12  13
ENDBRANCH  10  12
ENDBRANCH   9  10
ENDBRANCH   3   9
BRANCH   2  15
ATOM     15  N   UNL     1     -37.917  24.579   1.634  0.00  0.00    -0.286 N 
BRANCH  15  16
ATOM     16  C   UNL     1     -39.305  24.645   2.042  0.00  0.00    +0.202 C 
BRANCH  16  18
ATOM     17  O   UNL     1     -40.410  26.786   1.992  0.00  0.00    -0.248 OA
ATOM     18  C   UNL     1     -39.613  26.031   2.532  0.00  0.00    +0.334 C 
BRANCH  18  19
ATOM     19  O   UNL     1     -38.921  26.354   3.654  0.00  0.00    -0.479 OA
ATOM     20  H   UNL     1     -39.267  26.136   4.498  0.00  0.00    +0.295 HD
ENDBRANCH  18  19
ENDBRANCH  16  18
ENDBRANCH  15  16
BRANCH  15  21
ATOM     21  C   UNL     1     -37.364  25.651   0.830  0.00  0.00    +0.202 C 
BRANCH  21  23
ATOM     22  O   UNL     1     -34.991  25.945   1.130  0.00  0.00    -0.248 OA
ATOM     23  C   UNL     1     -36.132  26.187   1.501  0.00  0.00    +0.334 C 
BRANCH  23  24
ATOM     24  O   UNL     1     -36.419  26.986   2.560  0.00  0.00    -0.479 OA
ATOM     25  H   UNL     1     -37.105  27.621   2.495  0.00  0.00    +0.295 HD
ENDBRANCH  23  24
ENDBRANCH  21  23
ENDBRANCH  15  21
ENDBRANCH   2  15
TORSDOF 11
ENDMDL
MODEL 6
REMARK VINA RESULT:      -5.2      3.008      5.263
REMARK  Name = 195067
REMARK  11 active torsions:
REMARK  status: ('A' for Active; 'I' for Inactive)
REMARK    1  A    between atoms: C_2  and  N_15
REMARK    2  A    between atoms: C_3  and  O_9
REMARK    3  A    between atoms: O_9  and  C_10
REMARK    4  A    between atoms: C_10  and  C_12
REMARK    5  A    between atoms: C_12  and  O_13
REMARK    6  A    between atoms: N_15  and  C_16
REMARK    7  A    between atoms: N_15  and  C_21
REMARK    8  A    between atoms: C_16  and  C_18
REMARK    9  A    between atoms: C_18  and  O_19
REMARK   10  A    between atoms: C_21  and  C_23
REMARK   11  A    between atoms: C_23  and  O_24
REMARK                            x       y       z     vdW  Elec       q    Type
REMARK                         _______ _______ _______ _____ _____    ______ ____
ROOT
ATOM      1  F   UNL     1     -34.245  19.693   2.297  0.00  0.00    -0.204 F 
ATOM      2  C   UNL     1     -37.159  22.620   2.219  0.00  0.00    +0.083 C 
ATOM      3  C   UNL     1     -36.412  22.405   3.377  0.00  0.00    +0.155 C 
ATOM      4  C   UNL     1     -36.924  21.843   1.084  0.00  0.00    +0.016 C 
ATOM      5  C   UNL     1     -35.940  20.854   1.107  0.00  0.00    +0.007 C 
ATOM      6  C   UNL     1     -35.428  21.417   3.401  0.00  0.00    +0.067 C 
ATOM      7  C   UNL     1     -35.193  20.640   2.266  0.00  0.00    +0.139 C 
ATOM      8  C   UNL     1     -35.690  20.026  -0.107  0.00  0.00    +0.033 C 
ENDROOT
BRANCH   3   9
ATOM      9  O   UNL     1     -36.627  23.153   4.497  0.00  0.00    -0.462 OA
BRANCH   9  10
ATOM     10  C   UNL     1     -35.537  23.285   5.407  0.00  0.00    +0.314 C 
BRANCH  10  12
ATOM     11  O   UNL     1     -35.472  25.704   5.623  0.00  0.00    -0.246 OA
ATOM     12  C   UNL     1     -34.938  24.658   5.286  0.00  0.00    +0.359 C 
BRANCH  12  13
ATOM     13  O   UNL     1     -33.697  24.582   4.740  0.00  0.00    -0.478 OA
ATOM     14  H   UNL     1     -32.940  24.713   5.276  0.00  0.00    +0.295 HD
ENDBRANCH  12  13
ENDBRANCH  10  12
ENDBRANCH   9  10
ENDBRANCH   3   9
BRANCH   2  15
ATOM     15  N   UNL     1     -38.158  23.617   2.183  0.00  0.00    -0.286 N 
BRANCH  15  16
ATOM     16  C   UNL     1     -37.845  24.950   1.712  0.00  0.00    +0.202 C 
BRANCH  16  18
ATOM     17  O   UNL     1     -39.384  26.688   2.359  0.00  0.00    -0.248 OA
ATOM     18  C   UNL     1     -38.444  25.960   2.649  0.00  0.00    +0.334 C 
BRANCH  18  19
ATOM     19  O   UNL     1     -37.840  25.968   3.864  0.00  0.00    -0.479 OA
ATOM     20  H   UNL     1     -38.313  26.255   4.621  0.00  0.00    +0.295 HD
ENDBRANCH  18  19
ENDBRANCH  16  18
ENDBRANCH  15  16
BRANCH  15  21
ATOM     21  C   UNL     1     -39.504  23.322   2.632  0.00  0.00    +0.202 C 
BRANCH  21  23
ATOM     22  O   UNL     1     -40.555  22.680   0.560  0.00  0.00    -0.248 OA
ATOM     23  C   UNL     1     -40.147  22.364   1.669  0.00  0.00    +0.334 C 
BRANCH  23  24
ATOM     24  O   UNL     1     -40.213  21.099   2.157  0.00  0.00    -0.479 OA
ATOM     25  H   UNL     1     -39.885  20.384   1.649  0.00  0.00    +0.295 HD
ENDBRANCH  23  24
ENDBRANCH  21  23
ENDBRANCH  15  21
ENDBRANCH   2  15
TORSDOF 11
ENDMDL
MODEL 7
REMARK VINA RESULT:      -5.2      3.198      6.096
REMARK  Name = 195067
REMARK  11 active torsions:
REMARK  status: ('A' for Active; 'I' for Inactive)
REMARK    1  A    between atoms: C_2  and  N_15
REMARK    2  A    between atoms: C_3  and  O_9
REMARK    3  A    between atoms: O_9  and  C_10
REMARK    4  A    between atoms: C_10  and  C_12
REMARK    5  A    between atoms: C_12  and  O_13
REMARK    6  A    between atoms: N_15  and  C_16
REMARK    7  A    between atoms: N_15  and  C_21
REMARK    8  A    between atoms: C_16  and  C_18
REMARK    9  A    between atoms: C_18  and  O_19
REMARK   10  A    between atoms: C_21  and  C_23
REMARK   11  A    between atoms: C_23  and  O_24
REMARK                            x       y       z     vdW  Elec       q    Type
REMARK                         _______ _______ _______ _____ _____    ______ ____
ROOT
ATOM      1  F   UNL     1     -34.918  25.056   6.264  0.00  0.00    -0.204 F 
ATOM      2  C   UNL     1     -36.284  23.123   2.878  0.00  0.00    +0.083 C 
ATOM      3  C   UNL     1     -36.097  24.505   2.869  0.00  0.00    +0.155 C 
ATOM      4  C   UNL     1     -36.010  22.391   4.034  0.00  0.00    +0.016 C 
ATOM      5  C   UNL     1     -35.548  23.041   5.179  0.00  0.00    +0.007 C 
ATOM      6  C   UNL     1     -35.636  25.156   4.013  0.00  0.00    +0.067 C 
ATOM      7  C   UNL     1     -35.362  24.424   5.169  0.00  0.00    +0.139 C 
ATOM      8  C   UNL     1     -35.257  22.256   6.413  0.00  0.00    +0.033 C 
ENDROOT
BRANCH   3   9
ATOM      9  O   UNL     1     -36.359  25.239   1.750  0.00  0.00    -0.462 OA
BRANCH   9  10
ATOM     10  C   UNL     1     -36.958  26.519   1.940  0.00  0.00    +0.314 C 
BRANCH  10  12
ATOM     11  O   UNL     1     -39.159  26.276   0.940  0.00  0.00    -0.246 OA
ATOM     12  C   UNL     1     -38.455  26.386   1.932  0.00  0.00    +0.359 C 
BRANCH  12  13
ATOM     13  O   UNL     1     -38.933  26.404   3.203  0.00  0.00    -0.478 OA
ATOM     14  H   UNL     1     -38.965  27.209   3.680  0.00  0.00    +0.295 HD
ENDBRANCH  12  13
ENDBRANCH  10  12
ENDBRANCH   9  10
ENDBRANCH   3   9
BRANCH   2  15
ATOM     15  N   UNL     1     -36.751  22.454   1.727  0.00  0.00    -0.286 N 
BRANCH  15  16
ATOM     16  C   UNL     1     -35.953  21.416   1.108  0.00  0.00    +0.202 C 
BRANCH  16  18
ATOM     17  O   UNL     1     -37.228  19.585   0.197  0.00  0.00    -0.248 OA
ATOM     18  C   UNL     1     -36.700  20.115   1.167  0.00  0.00    +0.334 C 
BRANCH  18  19
ATOM     19  O   UNL     1     -36.715  19.575   2.412  0.00  0.00    -0.479 OA
ATOM     20  H   UNL     1     -36.238  18.788   2.588  0.00  0.00    +0.295 HD
ENDBRANCH  18  19
ENDBRANCH  16  18
ENDBRANCH  15  16
BRANCH  15  21
ATOM     21  C   UNL     1     -38.028  22.809   1.141  0.00  0.00    +0.202 C 
BRANCH  21  23
ATOM     22  O   UNL     1     -39.782  23.383   2.691  0.00  0.00    -0.248 OA
ATOM     23  C   UNL     1     -39.122  22.519   2.128  0.00  0.00    +0.334 C 
BRANCH  23  24
ATOM     24  O   UNL     1     -39.314  21.189   2.321  0.00  0.00    -0.479 OA
ATOM     25  H   UNL     1     -38.819  20.568   1.824  0.00  0.00    +0.295 HD
ENDBRANCH  23  24
ENDBRANCH  21  23
ENDBRANCH  15  21
ENDBRANCH   2  15
TORSDOF 11
ENDMDL
MODEL 8
REMARK VINA RESULT:      -5.2      3.027      5.185
REMARK  Name = 195067
REMARK  11 active torsions:
REMARK  status: ('A' for Active; 'I' for Inactive)
REMARK    1  A    between atoms: C_2  and  N_15
REMARK    2  A    between atoms: C_3  and  O_9
REMARK    3  A    between atoms: O_9  and  C_10
REMARK    4  A    between atoms: C_10  and  C_12
REMARK    5  A    between atoms: C_12  and  O_13
REMARK    6  A    between atoms: N_15  and  C_16
REMARK    7  A    between atoms: N_15  and  C_21
REMARK    8  A    between atoms: C_16  and  C_18
REMARK    9  A    between atoms: C_18  and  O_19
REMARK   10  A    between atoms: C_21  and  C_23
REMARK   11  A    between atoms: C_23  and  O_24
REMARK                            x       y       z     vdW  Elec       q    Type
REMARK                         _______ _______ _______ _____ _____    ______ ____
ROOT
ATOM      1  F   UNL     1     -34.406  19.845   2.748  0.00  0.00    -0.204 F 
ATOM      2  C   UNL     1     -37.332  22.736   2.368  0.00  0.00    +0.083 C 
ATOM      3  C   UNL     1     -36.504  22.721   3.489  0.00  0.00    +0.155 C 
ATOM      4  C   UNL     1     -37.175  21.771   1.372  0.00  0.00    +0.016 C 
ATOM      5  C   UNL     1     -36.187  20.794   1.498  0.00  0.00    +0.007 C 
ATOM      6  C   UNL     1     -35.516  21.744   3.615  0.00  0.00    +0.067 C 
ATOM      7  C   UNL     1     -35.358  20.779   2.619  0.00  0.00    +0.139 C 
ATOM      8  C   UNL     1     -36.020  19.764   0.431  0.00  0.00    +0.033 C 
ENDROOT
BRANCH   3   9
ATOM      9  O   UNL     1     -36.642  23.654   4.473  0.00  0.00    -0.462 OA
BRANCH   9  10
ATOM     10  C   UNL     1     -35.553  23.803   5.383  0.00  0.00    +0.314 C 
BRANCH  10  12
ATOM     11  O   UNL     1     -35.468  26.231   5.403  0.00  0.00    -0.246 OA
ATOM     12  C   UNL     1     -34.923  25.156   5.204  0.00  0.00    +0.359 C 
BRANCH  12  13
ATOM     13  O   UNL     1     -33.639  25.022   4.783  0.00  0.00    -0.478 OA
ATOM     14  H   UNL     1     -33.254  25.680   4.238  0.00  0.00    +0.295 HD
ENDBRANCH  12  13
ENDBRANCH  10  12
ENDBRANCH   9  10
ENDBRANCH   3   9
BRANCH   2  15
ATOM     15  N   UNL     1     -38.335  23.719   2.229  0.00  0.00    -0.286 N 
BRANCH  15  16
ATOM     16  C   UNL     1     -39.699  23.436   2.625  0.00  0.00    +0.202 C 
BRANCH  16  18
ATOM     17  O   UNL     1     -40.504  22.348   0.632  0.00  0.00    -0.248 OA
ATOM     18  C   UNL     1     -40.554  23.301   1.399  0.00  0.00    +0.334 C 
BRANCH  18  19
ATOM     19  O   UNL     1     -41.407  24.344   1.237  0.00  0.00    -0.479 OA
ATOM     20  H   UNL     1     -42.321  24.187   1.107  0.00  0.00    +0.295 HD
ENDBRANCH  18  19
ENDBRANCH  16  18
ENDBRANCH  15  16
BRANCH  15  21
ATOM     21  C   UNL     1     -38.015  25.019   1.674  0.00  0.00    +0.202 C 
BRANCH  21  23
ATOM     22  O   UNL     1     -39.575  26.748   2.292  0.00  0.00    -0.248 OA
ATOM     23  C   UNL     1     -38.580  26.090   2.562  0.00  0.00    +0.334 C 
BRANCH  23  24
ATOM     24  O   UNL     1     -37.875  26.241   3.712  0.00  0.00    -0.479 OA
ATOM     25  H   UNL     1     -37.282  26.960   3.807  0.00  0.00    +0.295 HD
ENDBRANCH  23  24
ENDBRANCH  21  23
ENDBRANCH  15  21
ENDBRANCH   2  15
TORSDOF 11
ENDMDL
MODEL 9
REMARK VINA RESULT:      -5.1      2.276      4.522
REMARK  Name = 195067
REMARK  11 active torsions:
REMARK  status: ('A' for Active; 'I' for Inactive)
REMARK    1  A    between atoms: C_2  and  N_15
REMARK    2  A    between atoms: C_3  and  O_9
REMARK    3  A    between atoms: O_9  and  C_10
REMARK    4  A    between atoms: C_10  and  C_12
REMARK    5  A    between atoms: C_12  and  O_13
REMARK    6  A    between atoms: N_15  and  C_16
REMARK    7  A    between atoms: N_15  and  C_21
REMARK    8  A    between atoms: C_16  and  C_18
REMARK    9  A    between atoms: C_18  and  O_19
REMARK   10  A    between atoms: C_21  and  C_23
REMARK   11  A    between atoms: C_23  and  O_24
REMARK                            x       y       z     vdW  Elec       q    Type
REMARK                         _______ _______ _______ _____ _____    ______ ____
ROOT
ATOM      1  F   UNL     1     -37.581  19.932   1.134  0.00  0.00    -0.204 F 
ATOM      2  C   UNL     1     -36.045  23.200   3.141  0.00  0.00    +0.083 C 
ATOM      3  C   UNL     1     -37.419  23.092   2.927  0.00  0.00    +0.155 C 
ATOM      4  C   UNL     1     -35.186  22.204   2.674  0.00  0.00    +0.016 C 
ATOM      5  C   UNL     1     -35.703  21.099   1.997  0.00  0.00    +0.007 C 
ATOM      6  C   UNL     1     -37.935  21.987   2.249  0.00  0.00    +0.067 C 
ATOM      7  C   UNL     1     -37.077  20.991   1.783  0.00  0.00    +0.139 C 
ATOM      8  C   UNL     1     -34.783  20.035   1.500  0.00  0.00    +0.033 C 
ENDROOT
BRANCH   3   9
ATOM      9  O   UNL     1     -38.274  24.055   3.374  0.00  0.00    -0.462 OA
BRANCH   9  10
ATOM     10  C   UNL     1     -39.311  24.465   2.484  0.00  0.00    +0.314 C 
BRANCH  10  12
ATOM     11  O   UNL     1     -40.378  26.596   2.015  0.00  0.00    -0.246 OA
ATOM     12  C   UNL     1     -39.582  25.932   2.661  0.00  0.00    +0.359 C 
BRANCH  12  13
ATOM     13  O   UNL     1     -38.808  26.434   3.658  0.00  0.00    -0.478 OA
ATOM     14  H   UNL     1     -39.029  26.267   4.552  0.00  0.00    +0.295 HD
ENDBRANCH  12  13
ENDBRANCH  10  12
ENDBRANCH   9  10
ENDBRANCH   3   9
BRANCH   2  15
ATOM     15  N   UNL     1     -35.510  24.313   3.824  0.00  0.00    -0.286 N 
BRANCH  15  16
ATOM     16  C   UNL     1     -34.749  25.316   3.110  0.00  0.00    +0.202 C 
BRANCH  16  18
ATOM     17  O   UNL     1     -35.769  25.634   0.950  0.00  0.00    -0.248 OA
ATOM     18  C   UNL     1     -35.640  25.997   2.112  0.00  0.00    +0.334 C 
BRANCH  18  19
ATOM     19  O   UNL     1     -36.305  27.056   2.640  0.00  0.00    -0.479 OA
ATOM     20  H   UNL     1     -36.834  26.943   3.405  0.00  0.00    +0.295 HD
ENDBRANCH  18  19
ENDBRANCH  16  18
ENDBRANCH  15  16
BRANCH  15  21
ATOM     21  C   UNL     1     -35.705  24.457   5.253  0.00  0.00    +0.202 C 
BRANCH  21  23
ATOM     22  O   UNL     1     -34.443  26.358   6.031  0.00  0.00    -0.248 OA
ATOM     23  C   UNL     1     -35.506  25.895   5.637  0.00  0.00    +0.334 C 
BRANCH  23  24
ATOM     24  O   UNL     1     -36.632  26.637   5.486  0.00  0.00    -0.479 OA
ATOM     25  H   UNL     1     -36.841  27.006   4.650  0.00  0.00    +0.295 HD
ENDBRANCH  23  24
ENDBRANCH  21  23
ENDBRANCH  15  21
ENDBRANCH   2  15
TORSDOF 11
ENDMDL
