MODEL 1
REMARK VINA RESULT:      -5.5      0.000      0.000
REMARK  Name = 60149580
REMARK  13 active torsions:
REMARK  status: ('A' for Active; 'I' for Inactive)
REMARK    1  A    between atoms: C_1  and  N_3
REMARK    2  A    between atoms: C_1  and  C_19
REMARK    3  A    between atoms: C_1  and  C_23
REMARK    4  A    between atoms: C_4  and  C_6
REMARK    5  A    between atoms: C_6  and  N_9
REMARK    6  A    between atoms: C_10  and  C_12
REMARK    7  A    between atoms: C_13  and  C_16
REMARK    8  A    between atoms: C_23  and  O_24
REMARK    9  A    between atoms: O_24  and  C_25
REMARK   10  A    between atoms: C_25  and  C_28
REMARK   11  A    between atoms: C_25  and  C_32
REMARK   12  A    between atoms: C_32  and  C_34
REMARK   13  A    between atoms: C_34  and  C_35
REMARK                            x       y       z     vdW  Elec       q    Type
REMARK                         _______ _______ _______ _____ _____    ______ ____
ROOT
ATOM      1  C   UNL     1     -36.323  22.861   3.758  0.00  0.00    +0.171 C 
ENDROOT
BRANCH   1   3
ATOM      2  O   UNL     1     -38.673  24.520   3.765  0.00  0.00    -0.273 OA
ATOM      3  N   UNL     1     -36.450  24.181   3.190  0.00  0.00    -0.295 N 
ATOM      4  C   UNL     1     -37.631  24.910   3.241  0.00  0.00    +0.241 C 
ATOM      5  H   UNL     1     -35.668  24.581   2.747  0.00  0.00    +0.150 HD
BRANCH   4   6
ATOM      6  C   UNL     1     -37.483  26.289   2.612  0.00  0.00    +0.149 C 
ATOM      7  C   UNL     1     -38.423  26.451   1.428  0.00  0.00    +0.031 C 
BRANCH   6   9
ATOM      8  O   UNL     1     -35.360  27.489   4.154  0.00  0.00    -0.270 OA
ATOM      9  N   UNL     1     -36.109  26.450   2.214  0.00  0.00    -0.295 N 
ATOM     10  C   UNL     1     -35.154  27.043   3.029  0.00  0.00    +0.246 C 
ATOM     11  H   UNL     1     -35.833  26.125   1.326  0.00  0.00    +0.150 HD
BRANCH  10  12
ATOM     12  C   UNL     1     -33.814  27.090   2.381  0.00  0.00    +0.062 C 
ATOM     13  C   UNL     1     -32.954  26.079   2.557  0.00  0.00    +0.062 C 
BRANCH  13  16
ATOM     14  O   UNL     1     -30.567  25.942   2.514  0.00  0.00    -0.270 OA
ATOM     15  N   UNL     1     -31.697  26.402   0.564  0.00  0.00    -0.325 N 
ATOM     16  C   UNL     1     -31.618  26.128   1.909  0.00  0.00    +0.243 C 
ATOM     17  H   UNL     1     -30.875  26.460   0.024  0.00  0.00    +0.145 HD
ATOM     18  H   UNL     1     -32.575  26.540   0.140  0.00  0.00    +0.145 HD
ENDBRANCH  13  16
ENDBRANCH  10  12
ENDBRANCH   6   9
ENDBRANCH   4   6
ENDBRANCH   1   3
BRANCH   1  19
ATOM     19  C   UNL     1     -35.103  22.738   4.695  0.00  0.00    +0.029 C 
ATOM     20  C   UNL     1     -35.337  21.784   5.872  0.00  0.00    +0.002 C 
ATOM     21  C   UNL     1     -34.661  24.110   5.215  0.00  0.00    +0.002 C 
ENDBRANCH   1  19
BRANCH   1  23
ATOM     22  O   UNL     1     -37.326  21.301   2.206  0.00  0.00    -0.248 OA
ATOM     23  C   UNL     1     -36.303  21.785   2.678  0.00  0.00    +0.335 C 
BRANCH  23  24
ATOM     24  O   UNL     1     -35.034  21.437   2.315  0.00  0.00    -0.451 OA
BRANCH  24  25
ATOM     25  C   UNL     1     -34.769  21.421   0.912  0.00  0.00    +0.179 C 
BRANCH  25  28
ATOM     26  O   UNL     1     -33.463  24.253  -0.893  0.00  0.00    -0.448 OA
ATOM     27  O   UNL     1     -35.361  24.272   0.392  0.00  0.00    -0.250 OA
ATOM     28  C   UNL     1     -33.724  22.485   0.636  0.00  0.00    +0.143 C 
ATOM     29  C   UNL     1     -32.747  22.081  -0.450  0.00  0.00    +0.062 C 
ATOM     30  C   UNL     1     -34.311  23.748   0.057  0.00  0.00    +0.320 C 
ATOM     31  C   UNL     1     -32.306  23.415  -0.996  0.00  0.00    +0.209 C 
ENDBRANCH  25  28
BRANCH  25  32
ATOM     32  C   UNL     1     -34.379  19.989   0.475  0.00  0.00    +0.041 C 
ATOM     33  C   UNL     1     -35.550  19.236  -0.170  0.00  0.00    +0.004 C 
BRANCH  32  34
ATOM     34  C   UNL     1     -33.771  19.203   1.656  0.00  0.00    +0.004 C 
BRANCH  34  35
ATOM     35  C   UNL     1     -32.747  18.151   1.220  0.00  0.00    +0.000 C 
ATOM     36  C   UNL     1     -31.504  18.800   0.628  0.00  0.00    +0.000 C 
ENDBRANCH  34  35
ENDBRANCH  32  34
ENDBRANCH  25  32
ENDBRANCH  24  25
ENDBRANCH  23  24
ENDBRANCH   1  23
TORSDOF 13
ENDMDL
MODEL 2
REMARK VINA RESULT:      -5.1      4.238      6.995
REMARK  Name = 60149580
REMARK  13 active torsions:
REMARK  status: ('A' for Active; 'I' for Inactive)
REMARK    1  A    between atoms: C_1  and  N_3
REMARK    2  A    between atoms: C_1  and  C_19
REMARK    3  A    between atoms: C_1  and  C_23
REMARK    4  A    between atoms: C_4  and  C_6
REMARK    5  A    between atoms: C_6  and  N_9
REMARK    6  A    between atoms: C_10  and  C_12
REMARK    7  A    between atoms: C_13  and  C_16
REMARK    8  A    between atoms: C_23  and  O_24
REMARK    9  A    between atoms: O_24  and  C_25
REMARK   10  A    between atoms: C_25  and  C_28
REMARK   11  A    between atoms: C_25  and  C_32
REMARK   12  A    between atoms: C_32  and  C_34
REMARK   13  A    between atoms: C_34  and  C_35
REMARK                            x       y       z     vdW  Elec       q    Type
REMARK                         _______ _______ _______ _____ _____    ______ ____
ROOT
ATOM      1  C   UNL     1     -38.855  23.956   1.500  0.00  0.00    +0.171 C 
ENDROOT
BRANCH   1   3
ATOM      2  O   UNL     1     -39.414  26.422   2.871  0.00  0.00    -0.273 OA
ATOM      3  N   UNL     1     -40.152  24.550   1.715  0.00  0.00    -0.295 N 
ATOM      4  C   UNL     1     -40.326  25.750   2.392  0.00  0.00    +0.241 C 
ATOM      5  H   UNL     1     -40.947  24.085   1.368  0.00  0.00    +0.150 HD
BRANCH   4   6
ATOM      6  C   UNL     1     -41.787  26.178   2.437  0.00  0.00    +0.149 C 
ATOM      7  C   UNL     1     -42.321  26.437   1.038  0.00  0.00    +0.031 C 
BRANCH   6   9
ATOM      8  O   UNL     1     -44.028  26.988   4.062  0.00  0.00    -0.270 OA
ATOM      9  N   UNL     1     -41.879  27.356   3.259  0.00  0.00    -0.295 N 
ATOM     10  C   UNL     1     -43.006  27.663   4.010  0.00  0.00    +0.246 C 
ATOM     11  H   UNL     1     -41.110  27.971   3.290  0.00  0.00    +0.150 HD
BRANCH  10  12
ATOM     12  C   UNL     1     -42.845  28.936   4.765  0.00  0.00    +0.062 C 
ATOM     13  C   UNL     1     -43.898  29.473   5.395  0.00  0.00    +0.062 C 
BRANCH  13  16
ATOM     14  O   UNL     1     -43.824  31.852   5.630  0.00  0.00    -0.270 OA
ATOM     15  N   UNL     1     -43.478  30.533   7.483  0.00  0.00    -0.325 N 
ATOM     16  C   UNL     1     -43.735  30.744   6.149  0.00  0.00    +0.243 C 
ATOM     17  H   UNL     1     -43.351  31.301   8.087  0.00  0.00    +0.145 HD
ATOM     18  H   UNL     1     -43.421  29.616   7.836  0.00  0.00    +0.145 HD
ENDBRANCH  13  16
ENDBRANCH  10  12
ENDBRANCH   6   9
ENDBRANCH   4   6
ENDBRANCH   1   3
BRANCH   1  19
ATOM     19  C   UNL     1     -38.586  23.649   0.011  0.00  0.00    +0.029 C 
ATOM     20  C   UNL     1     -37.539  24.574  -0.618  0.00  0.00    +0.002 C 
ATOM     21  C   UNL     1     -39.880  23.693  -0.807  0.00  0.00    +0.002 C 
ENDBRANCH   1  19
BRANCH   1  23
ATOM     22  O   UNL     1     -39.279  21.676   2.188  0.00  0.00    -0.248 OA
ATOM     23  C   UNL     1     -38.655  22.717   2.366  0.00  0.00    +0.335 C 
BRANCH  23  24
ATOM     24  O   UNL     1     -37.717  22.909   3.338  0.00  0.00    -0.451 OA
BRANCH  24  25
ATOM     25  C   UNL     1     -36.648  23.796   3.009  0.00  0.00    +0.179 C 
BRANCH  25  28
ATOM     26  O   UNL     1     -35.242  26.723   4.570  0.00  0.00    -0.448 OA
ATOM     27  O   UNL     1     -36.187  26.670   2.482  0.00  0.00    -0.250 OA
ATOM     28  C   UNL     1     -36.609  24.875   4.075  0.00  0.00    +0.143 C 
ATOM     29  C   UNL     1     -35.684  24.532   5.224  0.00  0.00    +0.062 C 
ATOM     30  C   UNL     1     -36.007  26.166   3.580  0.00  0.00    +0.320 C 
ATOM     31  C   UNL     1     -35.292  25.894   5.737  0.00  0.00    +0.209 C 
ENDBRANCH  25  28
BRANCH  25  32
ATOM     32  C   UNL     1     -35.338  22.989   2.843  0.00  0.00    +0.041 C 
ATOM     33  C   UNL     1     -34.718  23.163   1.451  0.00  0.00    +0.004 C 
BRANCH  32  34
ATOM     34  C   UNL     1     -35.563  21.503   3.192  0.00  0.00    +0.004 C 
BRANCH  34  35
ATOM     35  C   UNL     1     -35.186  20.551   2.054  0.00  0.00    +0.000 C 
ATOM     36  C   UNL     1     -36.422  19.922   1.427  0.00  0.00    +0.000 C 
ENDBRANCH  34  35
ENDBRANCH  32  34
ENDBRANCH  25  32
ENDBRANCH  24  25
ENDBRANCH  23  24
ENDBRANCH   1  23
TORSDOF 13
ENDMDL
MODEL 3
REMARK VINA RESULT:      -5.0      5.800     10.331
REMARK  Name = 60149580
REMARK  13 active torsions:
REMARK  status: ('A' for Active; 'I' for Inactive)
REMARK    1  A    between atoms: C_1  and  N_3
REMARK    2  A    between atoms: C_1  and  C_19
REMARK    3  A    between atoms: C_1  and  C_23
REMARK    4  A    between atoms: C_4  and  C_6
REMARK    5  A    between atoms: C_6  and  N_9
REMARK    6  A    between atoms: C_10  and  C_12
REMARK    7  A    between atoms: C_13  and  C_16
REMARK    8  A    between atoms: C_23  and  O_24
REMARK    9  A    between atoms: O_24  and  C_25
REMARK   10  A    between atoms: C_25  and  C_28
REMARK   11  A    between atoms: C_25  and  C_32
REMARK   12  A    between atoms: C_32  and  C_34
REMARK   13  A    between atoms: C_34  and  C_35
REMARK                            x       y       z     vdW  Elec       q    Type
REMARK                         _______ _______ _______ _____ _____    ______ ____
ROOT
ATOM      1  C   UNL     1     -41.922  26.580   2.964  0.00  0.00    +0.171 C 
ENDROOT
BRANCH   1   3
ATOM      2  O   UNL     1     -40.169  24.461   3.810  0.00  0.00    -0.273 OA
ATOM      3  N   UNL     1     -40.486  26.542   2.831  0.00  0.00    -0.295 N 
ATOM      4  C   UNL     1     -39.719  25.471   3.271  0.00  0.00    +0.241 C 
ATOM      5  H   UNL     1     -40.031  27.307   2.411  0.00  0.00    +0.150 HD
BRANCH   4   6
ATOM      6  C   UNL     1     -38.238  25.661   2.967  0.00  0.00    +0.149 C 
ATOM      7  C   UNL     1     -38.043  26.377   1.641  0.00  0.00    +0.031 C 
BRANCH   6   9
ATOM      8  O   UNL     1     -36.199  24.701   4.768  0.00  0.00    -0.270 OA
ATOM      9  N   UNL     1     -37.617  24.363   2.958  0.00  0.00    -0.295 N 
ATOM     10  C   UNL     1     -36.639  23.990   3.870  0.00  0.00    +0.246 C 
ATOM     11  H   UNL     1     -37.897  23.711   2.275  0.00  0.00    +0.150 HD
BRANCH  10  12
ATOM     12  C   UNL     1     -36.159  22.600   3.640  0.00  0.00    +0.062 C 
ATOM     13  C   UNL     1     -36.276  22.049   2.425  0.00  0.00    +0.062 C 
BRANCH  13  16
ATOM     14  O   UNL     1     -34.626  20.382   1.958  0.00  0.00    -0.270 OA
ATOM     15  N   UNL     1     -36.809  19.734   2.286  0.00  0.00    -0.325 N 
ATOM     16  C   UNL     1     -35.796  20.660   2.197  0.00  0.00    +0.243 C 
ATOM     17  H   UNL     1     -36.615  18.778   2.154  0.00  0.00    +0.145 HD
ATOM     18  H   UNL     1     -37.729  20.027   2.482  0.00  0.00    +0.145 HD
ENDBRANCH  13  16
ENDBRANCH  10  12
ENDBRANCH   6   9
ENDBRANCH   4   6
ENDBRANCH   1   3
BRANCH   1  19
ATOM     19  C   UNL     1     -42.642  26.500   1.601  0.00  0.00    +0.029 C 
ATOM     20  C   UNL     1     -42.828  25.065   1.097  0.00  0.00    +0.002 C 
ATOM     21  C   UNL     1     -41.919  27.336   0.540  0.00  0.00    +0.002 C 
ENDBRANCH   1  19
BRANCH   1  23
ATOM     22  O   UNL     1     -41.633  28.414   4.513  0.00  0.00    -0.248 OA
ATOM     23  C   UNL     1     -42.380  27.795   3.762  0.00  0.00    +0.335 C 
BRANCH  23  24
ATOM     24  O   UNL     1     -43.692  28.097   3.542  0.00  0.00    -0.451 OA
BRANCH  24  25
ATOM     25  C   UNL     1     -44.462  28.415   4.701  0.00  0.00    +0.179 C 
BRANCH  25  28
ATOM     26  O   UNL     1     -45.061  31.648   6.174  0.00  0.00    -0.448 OA
ATOM     27  O   UNL     1     -43.056  30.537   6.207  0.00  0.00    -0.250 OA
ATOM     28  C   UNL     1     -44.799  29.893   4.631  0.00  0.00    +0.143 C 
ATOM     29  C   UNL     1     -46.273  30.170   4.843  0.00  0.00    +0.062 C 
ATOM     30  C   UNL     1     -44.179  30.688   5.753  0.00  0.00    +0.320 C 
ATOM     31  C   UNL     1     -46.259  31.574   5.392  0.00  0.00    +0.209 C 
ENDBRANCH  25  28
BRANCH  25  32
ATOM     32  C   UNL     1     -45.684  27.468   4.787  0.00  0.00    +0.041 C 
ATOM     33  C   UNL     1     -45.631  26.560   6.023  0.00  0.00    +0.004 C 
BRANCH  32  34
ATOM     34  C   UNL     1     -45.839  26.657   3.483  0.00  0.00    +0.004 C 
BRANCH  34  35
ATOM     35  C   UNL     1     -46.029  25.156   3.723  0.00  0.00    +0.000 C 
ATOM     36  C   UNL     1     -46.249  24.411   2.414  0.00  0.00    +0.000 C 
ENDBRANCH  34  35
ENDBRANCH  32  34
ENDBRANCH  25  32
ENDBRANCH  24  25
ENDBRANCH  23  24
ENDBRANCH   1  23
TORSDOF 13
ENDMDL
MODEL 4
REMARK VINA RESULT:      -5.0      7.663     12.368
REMARK  Name = 60149580
REMARK  13 active torsions:
REMARK  status: ('A' for Active; 'I' for Inactive)
REMARK    1  A    between atoms: C_1  and  N_3
REMARK    2  A    between atoms: C_1  and  C_19
REMARK    3  A    between atoms: C_1  and  C_23
REMARK    4  A    between atoms: C_4  and  C_6
REMARK    5  A    between atoms: C_6  and  N_9
REMARK    6  A    between atoms: C_10  and  C_12
REMARK    7  A    between atoms: C_13  and  C_16
REMARK    8  A    between atoms: C_23  and  O_24
REMARK    9  A    between atoms: O_24  and  C_25
REMARK   10  A    between atoms: C_25  and  C_28
REMARK   11  A    between atoms: C_25  and  C_32
REMARK   12  A    between atoms: C_32  and  C_34
REMARK   13  A    between atoms: C_34  and  C_35
REMARK                            x       y       z     vdW  Elec       q    Type
REMARK                         _______ _______ _______ _____ _____    ______ ____
ROOT
ATOM      1  C   UNL     1     -44.609  27.880   4.221  0.00  0.00    +0.171 C 
ENDROOT
BRANCH   1   3
ATOM      2  O   UNL     1     -41.733  27.828   4.238  0.00  0.00    -0.273 OA
ATOM      3  N   UNL     1     -43.751  27.230   3.261  0.00  0.00    -0.295 N 
ATOM      4  C   UNL     1     -42.366  27.258   3.351  0.00  0.00    +0.241 C 
ATOM      5  H   UNL     1     -44.165  26.746   2.511  0.00  0.00    +0.150 HD
BRANCH   4   6
ATOM      6  C   UNL     1     -41.701  26.454   2.241  0.00  0.00    +0.149 C 
ATOM      7  C   UNL     1     -42.718  25.595   1.507  0.00  0.00    +0.031 C 
BRANCH   6   9
ATOM      8  O   UNL     1     -38.854  26.739   1.873  0.00  0.00    -0.270 OA
ATOM      9  N   UNL     1     -40.667  25.649   2.835  0.00  0.00    -0.295 N 
ATOM     10  C   UNL     1     -39.316  25.863   2.597  0.00  0.00    +0.246 C 
ATOM     11  H   UNL     1     -40.928  24.914   3.436  0.00  0.00    +0.150 HD
BRANCH  10  12
ATOM     12  C   UNL     1     -38.457  24.890   3.327  0.00  0.00    +0.062 C 
ATOM     13  C   UNL     1     -37.312  25.302   3.885  0.00  0.00    +0.062 C 
BRANCH  13  16
ATOM     14  O   UNL     1     -35.554  24.662   5.375  0.00  0.00    -0.270 OA
ATOM     15  N   UNL     1     -36.792  23.025   4.336  0.00  0.00    -0.325 N 
ATOM     16  C   UNL     1     -36.456  24.329   4.613  0.00  0.00    +0.243 C 
ATOM     17  H   UNL     1     -36.295  22.287   4.760  0.00  0.00    +0.145 HD
ATOM     18  H   UNL     1     -37.529  22.827   3.714  0.00  0.00    +0.145 HD
ENDBRANCH  13  16
ENDBRANCH  10  12
ENDBRANCH   6   9
ENDBRANCH   4   6
ENDBRANCH   1   3
BRANCH   1  19
ATOM     19  C   UNL     1     -45.768  26.972   4.686  0.00  0.00    +0.029 C 
ATOM     20  C   UNL     1     -45.719  26.647   6.183  0.00  0.00    +0.002 C 
ATOM     21  C   UNL     1     -45.820  25.676   3.872  0.00  0.00    +0.002 C 
ENDBRANCH   1  19
BRANCH   1  23
ATOM     22  O   UNL     1     -45.909  29.299   2.756  0.00  0.00    -0.248 OA
ATOM     23  C   UNL     1     -45.127  29.215   3.698  0.00  0.00    +0.335 C 
BRANCH  23  24
ATOM     24  O   UNL     1     -44.622  30.276   4.391  0.00  0.00    -0.451 OA
BRANCH  24  25
ATOM     25  C   UNL     1     -45.572  31.058   5.115  0.00  0.00    +0.179 C 
BRANCH  25  28
ATOM     26  O   UNL     1     -43.811  29.732   7.965  0.00  0.00    -0.448 OA
ATOM     27  O   UNL     1     -42.821  30.496   6.044  0.00  0.00    -0.250 OA
ATOM     28  C   UNL     1     -45.126  31.088   6.565  0.00  0.00    +0.143 C 
ATOM     29  C   UNL     1     -46.023  30.272   7.473  0.00  0.00    +0.062 C 
ATOM     30  C   UNL     1     -43.791  30.421   6.781  0.00  0.00    +0.320 C 
ATOM     31  C   UNL     1     -45.087  29.898   8.594  0.00  0.00    +0.209 C 
ENDBRANCH  25  28
BRANCH  25  32
ATOM     32  C   UNL     1     -45.719  32.445   4.444  0.00  0.00    +0.041 C 
ATOM     33  C   UNL     1     -44.572  33.395   4.812  0.00  0.00    +0.004 C 
BRANCH  32  34
ATOM     34  C   UNL     1     -47.099  33.060   4.759  0.00  0.00    +0.004 C 
BRANCH  34  35
ATOM     35  C   UNL     1     -47.040  34.172   5.810  0.00  0.00    +0.000 C 
ATOM     36  C   UNL     1     -47.702  33.739   7.111  0.00  0.00    +0.000 C 
ENDBRANCH  34  35
ENDBRANCH  32  34
ENDBRANCH  25  32
ENDBRANCH  24  25
ENDBRANCH  23  24
ENDBRANCH   1  23
TORSDOF 13
ENDMDL
MODEL 5
REMARK VINA RESULT:      -5.0      3.441      6.604
REMARK  Name = 60149580
REMARK  13 active torsions:
REMARK  status: ('A' for Active; 'I' for Inactive)
REMARK    1  A    between atoms: C_1  and  N_3
REMARK    2  A    between atoms: C_1  and  C_19
REMARK    3  A    between atoms: C_1  and  C_23
REMARK    4  A    between atoms: C_4  and  C_6
REMARK    5  A    between atoms: C_6  and  N_9
REMARK    6  A    between atoms: C_10  and  C_12
REMARK    7  A    between atoms: C_13  and  C_16
REMARK    8  A    between atoms: C_23  and  O_24
REMARK    9  A    between atoms: O_24  and  C_25
REMARK   10  A    between atoms: C_25  and  C_28
REMARK   11  A    between atoms: C_25  and  C_32
REMARK   12  A    between atoms: C_32  and  C_34
REMARK   13  A    between atoms: C_34  and  C_35
REMARK                            x       y       z     vdW  Elec       q    Type
REMARK                         _______ _______ _______ _____ _____    ______ ____
ROOT
ATOM      1  C   UNL     1     -38.489  23.704   1.755  0.00  0.00    +0.171 C 
ENDROOT
BRANCH   1   3
ATOM      2  O   UNL     1     -38.397  25.967  -0.019  0.00  0.00    -0.273 OA
ATOM      3  N   UNL     1     -39.603  24.305   1.064  0.00  0.00    -0.295 N 
ATOM      4  C   UNL     1     -39.463  25.402   0.223  0.00  0.00    +0.241 C 
ATOM      5  H   UNL     1     -40.500  23.923   1.194  0.00  0.00    +0.150 HD
BRANCH   4   6
ATOM      6  C   UNL     1     -40.783  25.807  -0.418  0.00  0.00    +0.149 C 
ATOM      7  C   UNL     1     -40.549  26.659  -1.655  0.00  0.00    +0.031 C 
BRANCH   6   9
ATOM      8  O   UNL     1     -42.862  24.727   1.266  0.00  0.00    -0.270 OA
ATOM      9  N   UNL     1     -41.556  26.518   0.567  0.00  0.00    -0.295 N 
ATOM     10  C   UNL     1     -42.540  25.909   1.334  0.00  0.00    +0.246 C 
ATOM     11  H   UNL     1     -41.377  27.477   0.705  0.00  0.00    +0.150 HD
BRANCH  10  12
ATOM     12  C   UNL     1     -43.190  26.865   2.273  0.00  0.00    +0.062 C 
ATOM     13  C   UNL     1     -42.434  27.666   3.034  0.00  0.00    +0.062 C 
BRANCH  13  16
ATOM     14  O   UNL     1     -42.499  29.150   4.909  0.00  0.00    -0.270 OA
ATOM     15  N   UNL     1     -44.408  28.836   3.663  0.00  0.00    -0.325 N 
ATOM     16  C   UNL     1     -43.085  28.620   3.970  0.00  0.00    +0.243 C 
ATOM     17  H   UNL     1     -44.947  29.450   4.213  0.00  0.00    +0.145 HD
ATOM     18  H   UNL     1     -44.817  28.378   2.894  0.00  0.00    +0.145 HD
ENDBRANCH  13  16
ENDBRANCH  10  12
ENDBRANCH   6   9
ENDBRANCH   4   6
ENDBRANCH   1   3
BRANCH   1  19
ATOM     19  C   UNL     1     -38.449  22.170   1.588  0.00  0.00    +0.029 C 
ATOM     20  C   UNL     1     -37.945  21.723   0.212  0.00  0.00    +0.002 C 
ATOM     21  C   UNL     1     -39.819  21.545   1.871  0.00  0.00    +0.002 C 
ENDBRANCH   1  19
BRANCH   1  23
ATOM     22  O   UNL     1     -39.356  24.756   3.753  0.00  0.00    -0.248 OA
ATOM     23  C   UNL     1     -38.461  24.102   3.227  0.00  0.00    +0.335 C 
BRANCH  23  24
ATOM     24  O   UNL     1     -37.343  23.652   3.866  0.00  0.00    -0.451 OA
BRANCH  24  25
ATOM     25  C   UNL     1     -36.099  24.156   3.378  0.00  0.00    +0.179 C 
BRANCH  25  28
ATOM     26  O   UNL     1     -34.437  27.267   4.117  0.00  0.00    -0.448 OA
ATOM     27  O   UNL     1     -36.266  27.043   2.754  0.00  0.00    -0.250 OA
ATOM     28  C   UNL     1     -35.664  25.270   4.312  0.00  0.00    +0.143 C 
ATOM     29  C   UNL     1     -34.266  25.065   4.859  0.00  0.00    +0.062 C 
ATOM     30  C   UNL     1     -35.522  26.599   3.614  0.00  0.00    +0.320 C 
ATOM     31  C   UNL     1     -33.823  26.478   5.143  0.00  0.00    +0.209 C 
ENDBRANCH  25  28
BRANCH  25  32
ATOM     32  C   UNL     1     -35.090  22.992   3.230  0.00  0.00    +0.041 C 
ATOM     33  C   UNL     1     -34.725  22.720   1.765  0.00  0.00    +0.004 C 
BRANCH  32  34
ATOM     34  C   UNL     1     -35.611  21.724   3.939  0.00  0.00    +0.004 C 
BRANCH  34  35
ATOM     35  C   UNL     1     -34.862  21.405   5.236  0.00  0.00    +0.000 C 
ATOM     36  C   UNL     1     -35.558  22.020   6.443  0.00  0.00    +0.000 C 
ENDBRANCH  34  35
ENDBRANCH  32  34
ENDBRANCH  25  32
ENDBRANCH  24  25
ENDBRANCH  23  24
ENDBRANCH   1  23
TORSDOF 13
ENDMDL
MODEL 6
REMARK VINA RESULT:      -5.0      7.736     12.105
REMARK  Name = 60149580
REMARK  13 active torsions:
REMARK  status: ('A' for Active; 'I' for Inactive)
REMARK    1  A    between atoms: C_1  and  N_3
REMARK    2  A    between atoms: C_1  and  C_19
REMARK    3  A    between atoms: C_1  and  C_23
REMARK    4  A    between atoms: C_4  and  C_6
REMARK    5  A    between atoms: C_6  and  N_9
REMARK    6  A    between atoms: C_10  and  C_12
REMARK    7  A    between atoms: C_13  and  C_16
REMARK    8  A    between atoms: C_23  and  O_24
REMARK    9  A    between atoms: O_24  and  C_25
REMARK   10  A    between atoms: C_25  and  C_28
REMARK   11  A    between atoms: C_25  and  C_32
REMARK   12  A    between atoms: C_32  and  C_34
REMARK   13  A    between atoms: C_34  and  C_35
REMARK                            x       y       z     vdW  Elec       q    Type
REMARK                         _______ _______ _______ _____ _____    ______ ____
ROOT
ATOM      1  C   UNL     1     -44.820  27.811   4.994  0.00  0.00    +0.171 C 
ENDROOT
BRANCH   1   3
ATOM      2  O   UNL     1     -42.083  28.627   4.646  0.00  0.00    -0.273 OA
ATOM      3  N   UNL     1     -43.909  27.364   3.969  0.00  0.00    -0.295 N 
ATOM      4  C   UNL     1     -42.598  27.815   3.879  0.00  0.00    +0.241 C 
ATOM      5  H   UNL     1     -44.229  26.711   3.305  0.00  0.00    +0.150 HD
BRANCH   4   6
ATOM      6  C   UNL     1     -41.838  27.151   2.739  0.00  0.00    +0.149 C 
ATOM      7  C   UNL     1     -42.780  26.358   1.847  0.00  0.00    +0.031 C 
BRANCH   6   9
ATOM      8  O   UNL     1     -39.211  26.618   1.673  0.00  0.00    -0.270 OA
ATOM      9  N   UNL     1     -40.826  26.304   3.314  0.00  0.00    -0.295 N 
ATOM     10  C   UNL     1     -39.584  26.108   2.724  0.00  0.00    +0.246 C 
ATOM     11  H   UNL     1     -41.022  25.845   4.163  0.00  0.00    +0.150 HD
BRANCH  10  12
ATOM     12  C   UNL     1     -38.726  25.186   3.518  0.00  0.00    +0.062 C 
ATOM     13  C   UNL     1     -37.452  25.513   3.768  0.00  0.00    +0.062 C 
BRANCH  13  16
ATOM     14  O   UNL     1     -36.670  23.369   4.483  0.00  0.00    -0.270 OA
ATOM     15  N   UNL     1     -35.724  25.262   5.384  0.00  0.00    -0.325 N 
ATOM     16  C   UNL     1     -36.598  24.591   4.561  0.00  0.00    +0.243 C 
ATOM     17  H   UNL     1     -35.104  24.759   5.960  0.00  0.00    +0.145 HD
ATOM     18  H   UNL     1     -35.717  26.247   5.397  0.00  0.00    +0.145 HD
ENDBRANCH  13  16
ENDBRANCH  10  12
ENDBRANCH   6   9
ENDBRANCH   4   6
ENDBRANCH   1   3
BRANCH   1  19
ATOM     19  C   UNL     1     -45.363  26.646   5.849  0.00  0.00    +0.029 C 
ATOM     20  C   UNL     1     -46.406  25.793   5.119  0.00  0.00    +0.002 C 
ATOM     21  C   UNL     1     -45.938  27.153   7.176  0.00  0.00    +0.002 C 
ENDBRANCH   1  19
BRANCH   1  23
ATOM     22  O   UNL     1     -46.546  28.334   3.383  0.00  0.00    -0.248 OA
ATOM     23  C   UNL     1     -45.954  28.646   4.411  0.00  0.00    +0.335 C 
BRANCH  23  24
ATOM     24  O   UNL     1     -46.220  29.756   5.159  0.00  0.00    -0.451 OA
BRANCH  24  25
ATOM     25  C   UNL     1     -45.107  30.611   5.423  0.00  0.00    +0.179 C 
BRANCH  25  28
ATOM     26  O   UNL     1     -43.702  32.770   2.903  0.00  0.00    -0.448 OA
ATOM     27  O   UNL     1     -44.062  30.520   2.657  0.00  0.00    -0.250 OA
ATOM     28  C   UNL     1     -45.174  31.760   4.435  0.00  0.00    +0.143 C 
ATOM     29  C   UNL     1     -44.651  33.061   5.010  0.00  0.00    +0.062 C 
ATOM     30  C   UNL     1     -44.261  31.568   3.250  0.00  0.00    +0.320 C 
ATOM     31  C   UNL     1     -44.190  33.794   3.777  0.00  0.00    +0.209 C 
ENDBRANCH  25  28
BRANCH  25  32
ATOM     32  C   UNL     1     -45.116  31.027   6.914  0.00  0.00    +0.041 C 
ATOM     33  C   UNL     1     -43.949  30.412   7.697  0.00  0.00    +0.004 C 
BRANCH  32  34
ATOM     34  C   UNL     1     -46.478  30.705   7.563  0.00  0.00    +0.004 C 
BRANCH  34  35
ATOM     35  C   UNL     1     -47.102  31.902   8.286  0.00  0.00    +0.000 C 
ATOM     36  C   UNL     1     -47.497  32.996   7.304  0.00  0.00    +0.000 C 
ENDBRANCH  34  35
ENDBRANCH  32  34
ENDBRANCH  25  32
ENDBRANCH  24  25
ENDBRANCH  23  24
ENDBRANCH   1  23
TORSDOF 13
ENDMDL
MODEL 7
REMARK VINA RESULT:      -5.0      3.080      5.721
REMARK  Name = 60149580
REMARK  13 active torsions:
REMARK  status: ('A' for Active; 'I' for Inactive)
REMARK    1  A    between atoms: C_1  and  N_3
REMARK    2  A    between atoms: C_1  and  C_19
REMARK    3  A    between atoms: C_1  and  C_23
REMARK    4  A    between atoms: C_4  and  C_6
REMARK    5  A    between atoms: C_6  and  N_9
REMARK    6  A    between atoms: C_10  and  C_12
REMARK    7  A    between atoms: C_13  and  C_16
REMARK    8  A    between atoms: C_23  and  O_24
REMARK    9  A    between atoms: O_24  and  C_25
REMARK   10  A    between atoms: C_25  and  C_28
REMARK   11  A    between atoms: C_25  and  C_32
REMARK   12  A    between atoms: C_32  and  C_34
REMARK   13  A    between atoms: C_34  and  C_35
REMARK                            x       y       z     vdW  Elec       q    Type
REMARK                         _______ _______ _______ _____ _____    ______ ____
ROOT
ATOM      1  C   UNL     1     -34.024  20.360   1.031  0.00  0.00    +0.171 C 
ENDROOT
BRANCH   1   3
ATOM      2  O   UNL     1     -35.032  20.447   3.724  0.00  0.00    -0.273 OA
ATOM      3  N   UNL     1     -35.035  21.251   1.547  0.00  0.00    -0.295 N 
ATOM      4  C   UNL     1     -35.461  21.219   2.868  0.00  0.00    +0.241 C 
ATOM      5  H   UNL     1     -35.440  21.907   0.936  0.00  0.00    +0.150 HD
BRANCH   4   6
ATOM      6  C   UNL     1     -36.499  22.294   3.163  0.00  0.00    +0.149 C 
ATOM      7  C   UNL     1     -37.187  22.751   1.887  0.00  0.00    +0.031 C 
BRANCH   6   9
ATOM      8  O   UNL     1     -36.084  22.625   5.999  0.00  0.00    -0.270 OA
ATOM      9  N   UNL     1     -35.831  23.388   3.819  0.00  0.00    -0.295 N 
ATOM     10  C   UNL     1     -35.679  23.460   5.197  0.00  0.00    +0.246 C 
ATOM     11  H   UNL     1     -35.466  24.117   3.266  0.00  0.00    +0.150 HD
BRANCH  10  12
ATOM     12  C   UNL     1     -34.958  24.693   5.617  0.00  0.00    +0.062 C 
ATOM     13  C   UNL     1     -34.304  25.424   4.705  0.00  0.00    +0.062 C 
BRANCH  13  16
ATOM     14  O   UNL     1     -32.924  26.730   6.158  0.00  0.00    -0.270 OA
ATOM     15  N   UNL     1     -33.744  27.687   4.233  0.00  0.00    -0.325 N 
ATOM     16  C   UNL     1     -33.585  26.655   5.127  0.00  0.00    +0.243 C 
ATOM     17  H   UNL     1     -33.313  28.557   4.403  0.00  0.00    +0.145 HD
ATOM     18  H   UNL     1     -34.288  27.559   3.422  0.00  0.00    +0.145 HD
ENDBRANCH  13  16
ENDBRANCH  10  12
ENDBRANCH   6   9
ENDBRANCH   4   6
ENDBRANCH   1   3
BRANCH   1  19
ATOM     19  C   UNL     1     -33.278  20.955  -0.182  0.00  0.00    +0.029 C 
ATOM     20  C   UNL     1     -31.780  20.631  -0.191  0.00  0.00    +0.002 C 
ATOM     21  C   UNL     1     -33.485  22.470  -0.273  0.00  0.00    +0.002 C 
ENDBRANCH   1  19
BRANCH   1  23
ATOM     22  O   UNL     1     -33.914  17.967   0.702  0.00  0.00    -0.248 OA
ATOM     23  C   UNL     1     -34.598  18.985   0.709  0.00  0.00    +0.335 C 
BRANCH  23  24
ATOM     24  O   UNL     1     -35.934  19.031   0.436  0.00  0.00    -0.451 OA
BRANCH  24  25
ATOM     25  C   UNL     1     -36.370  18.250  -0.677  0.00  0.00    +0.179 C 
BRANCH  25  28
ATOM     26  O   UNL     1     -38.051  15.064  -0.606  0.00  0.00    -0.448 OA
ATOM     27  O   UNL     1     -35.880  15.421   0.036  0.00  0.00    -0.250 OA
ATOM     28  C   UNL     1     -37.430  17.290  -0.170  0.00  0.00    +0.143 C 
ATOM     29  C   UNL     1     -38.668  17.267  -1.043  0.00  0.00    +0.062 C 
ATOM     30  C   UNL     1     -36.992  15.848  -0.232  0.00  0.00    +0.320 C 
ATOM     31  C   UNL     1     -39.211  15.884  -0.792  0.00  0.00    +0.209 C 
ENDBRANCH  25  28
BRANCH  25  32
ATOM     32  C   UNL     1     -36.828  19.188  -1.820  0.00  0.00    +0.041 C 
ATOM     33  C   UNL     1     -35.821  19.231  -2.977  0.00  0.00    +0.004 C 
BRANCH  32  34
ATOM     34  C   UNL     1     -37.142  20.598  -1.277  0.00  0.00    +0.004 C 
BRANCH  34  35
ATOM     35  C   UNL     1     -38.580  21.046  -1.553  0.00  0.00    +0.000 C 
ATOM     36  C   UNL     1     -39.477  20.797  -0.349  0.00  0.00    +0.000 C 
ENDBRANCH  34  35
ENDBRANCH  32  34
ENDBRANCH  25  32
ENDBRANCH  24  25
ENDBRANCH  23  24
ENDBRANCH   1  23
TORSDOF 13
ENDMDL
MODEL 8
REMARK VINA RESULT:      -5.0      2.244      3.350
REMARK  Name = 60149580
REMARK  13 active torsions:
REMARK  status: ('A' for Active; 'I' for Inactive)
REMARK    1  A    between atoms: C_1  and  N_3
REMARK    2  A    between atoms: C_1  and  C_19
REMARK    3  A    between atoms: C_1  and  C_23
REMARK    4  A    between atoms: C_4  and  C_6
REMARK    5  A    between atoms: C_6  and  N_9
REMARK    6  A    between atoms: C_10  and  C_12
REMARK    7  A    between atoms: C_13  and  C_16
REMARK    8  A    between atoms: C_23  and  O_24
REMARK    9  A    between atoms: O_24  and  C_25
REMARK   10  A    between atoms: C_25  and  C_28
REMARK   11  A    between atoms: C_25  and  C_32
REMARK   12  A    between atoms: C_32  and  C_34
REMARK   13  A    between atoms: C_34  and  C_35
REMARK                            x       y       z     vdW  Elec       q    Type
REMARK                         _______ _______ _______ _____ _____    ______ ____
ROOT
ATOM      1  C   UNL     1     -36.226  22.832   3.934  0.00  0.00    +0.171 C 
ENDROOT
BRANCH   1   3
ATOM      2  O   UNL     1     -38.631  24.403   3.786  0.00  0.00    -0.273 OA
ATOM      3  N   UNL     1     -36.409  24.064   3.207  0.00  0.00    -0.295 N 
ATOM      4  C   UNL     1     -37.613  24.757   3.193  0.00  0.00    +0.241 C 
ATOM      5  H   UNL     1     -35.649  24.429   2.700  0.00  0.00    +0.150 HD
BRANCH   4   6
ATOM      6  C   UNL     1     -37.523  26.049   2.391  0.00  0.00    +0.149 C 
ATOM      7  C   UNL     1     -37.643  25.774   0.901  0.00  0.00    +0.031 C 
BRANCH   6   9
ATOM      8  O   UNL     1     -36.648  28.672   1.570  0.00  0.00    -0.270 OA
ATOM      9  N   UNL     1     -36.269  26.681   2.707  0.00  0.00    -0.295 N 
ATOM     10  C   UNL     1     -35.935  27.954   2.264  0.00  0.00    +0.246 C 
ATOM     11  H   UNL     1     -35.620  26.190   3.262  0.00  0.00    +0.150 HD
BRANCH  10  12
ATOM     12  C   UNL     1     -34.583  28.371   2.726  0.00  0.00    +0.062 C 
ATOM     13  C   UNL     1     -33.968  27.679   3.693  0.00  0.00    +0.062 C 
BRANCH  13  16
ATOM     14  O   UNL     1     -31.700  28.374   3.387  0.00  0.00    -0.270 OA
ATOM     15  N   UNL     1     -32.519  28.138   5.524  0.00  0.00    -0.325 N 
ATOM     16  C   UNL     1     -32.617  28.097   4.153  0.00  0.00    +0.243 C 
ATOM     17  H   UNL     1     -31.671  28.402   5.949  0.00  0.00    +0.145 HD
ATOM     18  H   UNL     1     -33.297  27.904   6.081  0.00  0.00    +0.145 HD
ENDBRANCH  13  16
ENDBRANCH  10  12
ENDBRANCH   6   9
ENDBRANCH   4   6
ENDBRANCH   1   3
BRANCH   1  19
ATOM     19  C   UNL     1     -35.145  22.949   5.030  0.00  0.00    +0.029 C 
ATOM     20  C   UNL     1     -35.509  22.207   6.321  0.00  0.00    +0.002 C 
ATOM     21  C   UNL     1     -34.828  24.415   5.343  0.00  0.00    +0.002 C 
ENDBRANCH   1  19
BRANCH   1  23
ATOM     22  O   UNL     1     -35.467  20.602   3.387  0.00  0.00    -0.248 OA
ATOM     23  C   UNL     1     -35.940  21.664   2.997  0.00  0.00    +0.335 C 
BRANCH  23  24
ATOM     24  O   UNL     1     -36.268  21.944   1.702  0.00  0.00    -0.451 OA
BRANCH  24  25
ATOM     25  C   UNL     1     -37.347  21.187   1.154  0.00  0.00    +0.179 C 
BRANCH  25  28
ATOM     26  O   UNL     1     -40.741  22.016   0.272  0.00  0.00    -0.448 OA
ATOM     27  O   UNL     1     -40.086  21.098   2.268  0.00  0.00    -0.250 OA
ATOM     28  C   UNL     1     -38.455  22.163   0.805  0.00  0.00    +0.143 C 
ATOM     29  C   UNL     1     -38.642  22.328  -0.690  0.00  0.00    +0.062 C 
ATOM     30  C   UNL     1     -39.819  21.677   1.227  0.00  0.00    +0.320 C 
ATOM     31  C   UNL     1     -40.093  22.728  -0.788  0.00  0.00    +0.209 C 
ENDBRANCH  25  28
BRANCH  25  32
ATOM     32  C   UNL     1     -36.830  20.330  -0.027  0.00  0.00    +0.041 C 
ATOM     33  C   UNL     1     -37.105  18.834   0.174  0.00  0.00    +0.004 C 
BRANCH  32  34
ATOM     34  C   UNL     1     -35.337  20.611  -0.294  0.00  0.00    +0.004 C 
BRANCH  34  35
ATOM     35  C   UNL     1     -34.432  19.414   0.012  0.00  0.00    +0.000 C 
ATOM     36  C   UNL     1     -33.200  19.839   0.799  0.00  0.00    +0.000 C 
ENDBRANCH  34  35
ENDBRANCH  32  34
ENDBRANCH  25  32
ENDBRANCH  24  25
ENDBRANCH  23  24
ENDBRANCH   1  23
TORSDOF 13
ENDMDL
MODEL 9
REMARK VINA RESULT:      -4.9      1.217      1.984
REMARK  Name = 60149580
REMARK  13 active torsions:
REMARK  status: ('A' for Active; 'I' for Inactive)
REMARK    1  A    between atoms: C_1  and  N_3
REMARK    2  A    between atoms: C_1  and  C_19
REMARK    3  A    between atoms: C_1  and  C_23
REMARK    4  A    between atoms: C_4  and  C_6
REMARK    5  A    between atoms: C_6  and  N_9
REMARK    6  A    between atoms: C_10  and  C_12
REMARK    7  A    between atoms: C_13  and  C_16
REMARK    8  A    between atoms: C_23  and  O_24
REMARK    9  A    between atoms: O_24  and  C_25
REMARK   10  A    between atoms: C_25  and  C_28
REMARK   11  A    between atoms: C_25  and  C_32
REMARK   12  A    between atoms: C_32  and  C_34
REMARK   13  A    between atoms: C_34  and  C_35
REMARK                            x       y       z     vdW  Elec       q    Type
REMARK                         _______ _______ _______ _____ _____    ______ ____
ROOT
ATOM      1  C   UNL     1     -35.946  22.732   3.991  0.00  0.00    +0.171 C 
ENDROOT
BRANCH   1   3
ATOM      2  O   UNL     1     -38.315  24.358   3.859  0.00  0.00    -0.273 OA
ATOM      3  N   UNL     1     -36.091  23.994   3.306  0.00  0.00    -0.295 N 
ATOM      4  C   UNL     1     -37.280  24.711   3.297  0.00  0.00    +0.241 C 
ATOM      5  H   UNL     1     -35.314  24.361   2.826  0.00  0.00    +0.150 HD
BRANCH   4   6
ATOM      6  C   UNL     1     -37.150  26.030   2.545  0.00  0.00    +0.149 C 
ATOM      7  C   UNL     1     -38.114  26.084   1.372  0.00  0.00    +0.031 C 
BRANCH   6   9
ATOM      8  O   UNL     1     -35.071  27.604   3.780  0.00  0.00    -0.270 OA
ATOM      9  N   UNL     1     -35.785  26.158   2.107  0.00  0.00    -0.295 N 
ATOM     10  C   UNL     1     -34.852  26.943   2.770  0.00  0.00    +0.246 C 
ATOM     11  H   UNL     1     -35.500  25.666   1.302  0.00  0.00    +0.150 HD
BRANCH  10  12
ATOM     12  C   UNL     1     -33.518  26.906   2.109  0.00  0.00    +0.062 C 
ATOM     13  C   UNL     1     -32.542  26.147   2.623  0.00  0.00    +0.062 C 
BRANCH  13  16
ATOM     14  O   UNL     1     -30.156  26.289   2.562  0.00  0.00    -0.270 OA
ATOM     15  N   UNL     1     -31.301  25.857   0.614  0.00  0.00    -0.325 N 
ATOM     16  C   UNL     1     -31.211  26.111   1.963  0.00  0.00    +0.243 C 
ATOM     17  H   UNL     1     -30.484  25.809   0.066  0.00  0.00    +0.145 HD
ATOM     18  H   UNL     1     -32.183  25.723   0.196  0.00  0.00    +0.145 HD
ENDBRANCH  13  16
ENDBRANCH  10  12
ENDBRANCH   6   9
ENDBRANCH   4   6
ENDBRANCH   1   3
BRANCH   1  19
ATOM     19  C   UNL     1     -35.001  22.827   5.208  0.00  0.00    +0.029 C 
ATOM     20  C   UNL     1     -35.530  22.091   6.444  0.00  0.00    +0.002 C 
ATOM     21  C   UNL     1     -34.693  24.286   5.560  0.00  0.00    +0.002 C 
ENDBRANCH   1  19
BRANCH   1  23
ATOM     22  O   UNL     1     -35.679  20.434   3.288  0.00  0.00    -0.248 OA
ATOM     23  C   UNL     1     -35.513  21.624   3.038  0.00  0.00    +0.335 C 
BRANCH  23  24
ATOM     24  O   UNL     1     -34.933  22.110   1.904  0.00  0.00    -0.451 OA
BRANCH  24  25
ATOM     25  C   UNL     1     -34.778  21.178   0.833  0.00  0.00    +0.179 C 
BRANCH  25  28
ATOM     26  O   UNL     1     -37.740  22.883  -0.309  0.00  0.00    -0.448 OA
ATOM     27  O   UNL     1     -35.728  23.890   0.130  0.00  0.00    -0.250 OA
ATOM     28  C   UNL     1     -35.858  21.478  -0.190  0.00  0.00    +0.143 C 
ATOM     29  C   UNL     1     -37.116  20.664   0.029  0.00  0.00    +0.062 C 
ATOM     30  C   UNL     1     -36.388  22.886  -0.086  0.00  0.00    +0.320 C 
ATOM     31  C   UNL     1     -38.177  21.546  -0.578  0.00  0.00    +0.209 C 
ENDBRANCH  25  28
BRANCH  25  32
ATOM     32  C   UNL     1     -33.328  21.244   0.294  0.00  0.00    +0.041 C 
ATOM     33  C   UNL     1     -33.275  21.613  -1.194  0.00  0.00    +0.004 C 
BRANCH  32  34
ATOM     34  C   UNL     1     -32.575  19.930   0.590  0.00  0.00    +0.004 C 
BRANCH  34  35
ATOM     35  C   UNL     1     -33.437  18.887   1.307  0.00  0.00    +0.000 C 
ATOM     36  C   UNL     1     -33.511  17.590   0.513  0.00  0.00    +0.000 C 
ENDBRANCH  34  35
ENDBRANCH  32  34
ENDBRANCH  25  32
ENDBRANCH  24  25
ENDBRANCH  23  24
ENDBRANCH   1  23
TORSDOF 13
ENDMDL
