MODEL 1
REMARK VINA RESULT:      -5.4      0.000      0.000
REMARK  Name = 5386112
REMARK  3 active torsions:
REMARK  status: ('A' for Active; 'I' for Inactive)
REMARK    1  A    between atoms: N_5  and  C_13
REMARK    2  A    between atoms: N_6  and  C_14
REMARK    3  A    between atoms: N_6  and  C_16
REMARK                            x       y       z     vdW  Elec       q    Type
REMARK                         _______ _______ _______ _____ _____    ______ ____
ROOT
ATOM      1  N   UNL     1     -36.005  23.631   3.923  0.00  0.00    -0.234 N 
ATOM      2  N   UNL     1     -35.216  21.580   3.057  0.00  0.00    -0.314 NA
ATOM      3  N   UNL     1     -37.497  22.330   2.623  0.00  0.00    -0.316 NA
ATOM      4  C   UNL     1     -35.540  25.943   5.588  0.00  0.00    +0.004 C 
ATOM      5  C   UNL     1     -36.493  25.997   4.401  0.00  0.00    +0.022 C 
ATOM      6  C   UNL     1     -34.445  24.914   5.335  0.00  0.00    +0.022 C 
ATOM      7  C   UNL     1     -37.076  24.621   4.082  0.00  0.00    +0.103 C 
ATOM      8  C   UNL     1     -35.033  23.540   5.022  0.00  0.00    +0.103 C 
ATOM      9  C   UNL     1     -36.244  22.471   3.175  0.00  0.00    +0.205 C 
ATOM     10  C   UNL     1     -35.519  20.502   2.331  0.00  0.00    +0.212 C 
ATOM     11  C   UNL     1     -36.749  20.279   1.741  0.00  0.00    +0.207 C 
ATOM     12  C   UNL     1     -37.729  21.213   1.901  0.00  0.00    +0.194 C 
ATOM     13  N   UNL     1     -38.992  21.006   1.310  0.00  0.00    -0.334 N 
ATOM     14  H   UNL     1     -39.703  21.677   1.422  0.00  0.00    +0.144 HD
ATOM     15  H   UNL     1     -39.161  20.192   0.784  0.00  0.00    +0.144 HD
ENDROOT
BRANCH  10  16
ATOM     16  N   UNL     1     -34.699  19.408   2.020  0.00  0.00    -0.239 NA
ATOM     17  H   UNL     1     -34.651  18.955   1.147  0.00  0.00    +0.172 HD
ENDBRANCH  10  16
BRANCH  11  18
ATOM     18  N   UNL     1     -36.727  19.066   1.061  0.00  0.00    -0.322 N 
ATOM     19  H   UNL     1     -36.537  18.183   1.452  0.00  0.00    +0.147 HD
BRANCH  18  21
ATOM     20  S   UNL     1     -35.973  19.860  -1.454  0.00  0.00    -0.044 S 
ATOM     21  C   UNL     1     -37.029  19.330  -0.294  0.00  0.00    +0.122 C 
ENDBRANCH  18  21
ENDBRANCH  11  18
TORSDOF 3
ENDMDL
MODEL 2
REMARK VINA RESULT:      -5.4      2.627      3.985
REMARK  Name = 5386112
REMARK  3 active torsions:
REMARK  status: ('A' for Active; 'I' for Inactive)
REMARK    1  A    between atoms: N_5  and  C_13
REMARK    2  A    between atoms: N_6  and  C_14
REMARK    3  A    between atoms: N_6  and  C_16
REMARK                            x       y       z     vdW  Elec       q    Type
REMARK                         _______ _______ _______ _____ _____    ______ ____
ROOT
ATOM      1  N   UNL     1     -33.689  26.315   4.904  0.00  0.00    -0.234 N 
ATOM      2  N   UNL     1     -34.776  24.273   5.380  0.00  0.00    -0.314 NA
ATOM      3  N   UNL     1     -35.112  25.405   3.245  0.00  0.00    -0.316 NA
ATOM      4  C   UNL     1     -32.015  28.484   5.813  0.00  0.00    +0.004 C 
ATOM      5  C   UNL     1     -32.086  28.098   4.341  0.00  0.00    +0.022 C 
ATOM      6  C   UNL     1     -32.280  27.265   6.688  0.00  0.00    +0.022 C 
ATOM      7  C   UNL     1     -33.419  27.435   3.995  0.00  0.00    +0.103 C 
ATOM      8  C   UNL     1     -33.615  26.609   6.342  0.00  0.00    +0.103 C 
ATOM      9  C   UNL     1     -34.556  25.293   4.498  0.00  0.00    +0.205 C 
ATOM     10  C   UNL     1     -35.611  23.338   4.922  0.00  0.00    +0.212 C 
ATOM     11  C   UNL     1     -36.214  23.370   3.680  0.00  0.00    +0.207 C 
ATOM     12  C   UNL     1     -35.948  24.420   2.852  0.00  0.00    +0.194 C 
ATOM     13  N   UNL     1     -36.553  24.475   1.579  0.00  0.00    -0.334 N 
ATOM     14  H   UNL     1     -36.364  25.231   0.977  0.00  0.00    +0.144 HD
ATOM     15  H   UNL     1     -37.163  23.757   1.293  0.00  0.00    +0.144 HD
ENDROOT
BRANCH  10  16
ATOM     16  N   UNL     1     -36.044  22.172   5.569  0.00  0.00    -0.239 NA
ATOM     17  H   UNL     1     -36.291  21.326   5.129  0.00  0.00    +0.172 HD
ENDBRANCH  10  16
BRANCH  11  18
ATOM     18  N   UNL     1     -37.022  22.248   3.522  0.00  0.00    -0.322 N 
ATOM     19  H   UNL     1     -37.767  21.981   4.107  0.00  0.00    +0.147 HD
BRANCH  18  21
ATOM     20  S   UNL     1     -35.286  20.529   2.275  0.00  0.00    -0.044 S 
ATOM     21  C   UNL     1     -36.577  21.560   2.371  0.00  0.00    +0.122 C 
ENDBRANCH  18  21
ENDBRANCH  11  18
TORSDOF 3
ENDMDL
MODEL 3
REMARK VINA RESULT:      -5.3      1.415      2.864
REMARK  Name = 5386112
REMARK  3 active torsions:
REMARK  status: ('A' for Active; 'I' for Inactive)
REMARK    1  A    between atoms: N_5  and  C_13
REMARK    2  A    between atoms: N_6  and  C_14
REMARK    3  A    between atoms: N_6  and  C_16
REMARK                            x       y       z     vdW  Elec       q    Type
REMARK                         _______ _______ _______ _____ _____    ______ ____
ROOT
ATOM      1  N   UNL     1     -36.243  23.973   4.081  0.00  0.00    -0.234 N 
ATOM      2  N   UNL     1     -38.298  23.536   3.000  0.00  0.00    -0.314 NA
ATOM      3  N   UNL     1     -36.458  21.936   2.892  0.00  0.00    -0.316 NA
ATOM      4  C   UNL     1     -34.587  25.805   5.575  0.00  0.00    +0.004 C 
ATOM      5  C   UNL     1     -34.408  24.297   5.691  0.00  0.00    +0.022 C 
ATOM      6  C   UNL     1     -36.036  26.138   5.239  0.00  0.00    +0.022 C 
ATOM      7  C   UNL     1     -34.874  23.574   4.428  0.00  0.00    +0.103 C 
ATOM      8  C   UNL     1     -36.495  25.417   3.974  0.00  0.00    +0.103 C 
ATOM      9  C   UNL     1     -37.030  23.121   3.297  0.00  0.00    +0.205 C 
ATOM     10  C   UNL     1     -38.985  22.672   2.251  0.00  0.00    +0.212 C 
ATOM     11  C   UNL     1     -38.491  21.463   1.801  0.00  0.00    +0.207 C 
ATOM     12  C   UNL     1     -37.216  21.113   2.136  0.00  0.00    +0.194 C 
ATOM     13  N   UNL     1     -36.690  19.885   1.687  0.00  0.00    -0.334 N 
ATOM     14  H   UNL     1     -35.770  19.627   1.926  0.00  0.00    +0.144 HD
ATOM     15  H   UNL     1     -37.242  19.285   1.135  0.00  0.00    +0.144 HD
ENDROOT
BRANCH  10  16
ATOM     16  N   UNL     1     -40.299  22.792   1.775  0.00  0.00    -0.239 NA
ATOM     17  H   UNL     1     -40.887  23.572   1.899  0.00  0.00    +0.172 HD
ENDBRANCH  10  16
BRANCH  11  18
ATOM     18  N   UNL     1     -39.463  20.811   1.049  0.00  0.00    -0.322 N 
ATOM     19  H   UNL     1     -40.328  20.479   1.380  0.00  0.00    +0.147 HD
BRANCH  18  21
ATOM     20  S   UNL     1     -39.008  19.362  -1.236  0.00  0.00    -0.044 S 
ATOM     21  C   UNL     1     -38.982  20.711  -0.277  0.00  0.00    +0.122 C 
ENDBRANCH  18  21
ENDBRANCH  11  18
TORSDOF 3
ENDMDL
MODEL 4
REMARK VINA RESULT:      -5.3      2.959      5.955
REMARK  Name = 5386112
REMARK  3 active torsions:
REMARK  status: ('A' for Active; 'I' for Inactive)
REMARK    1  A    between atoms: N_5  and  C_13
REMARK    2  A    between atoms: N_6  and  C_14
REMARK    3  A    between atoms: N_6  and  C_16
REMARK                            x       y       z     vdW  Elec       q    Type
REMARK                         _______ _______ _______ _____ _____    ______ ____
ROOT
ATOM      1  N   UNL     1     -34.801  19.926   1.089  0.00  0.00    -0.234 N 
ATOM      2  N   UNL     1     -34.990  20.388   3.397  0.00  0.00    -0.314 NA
ATOM      3  N   UNL     1     -35.789  21.980   1.730  0.00  0.00    -0.316 NA
ATOM      4  C   UNL     1     -33.827  18.192  -1.004  0.00  0.00    +0.004 C 
ATOM      5  C   UNL     1     -35.050  19.078  -1.210  0.00  0.00    +0.022 C 
ATOM      6  C   UNL     1     -33.695  17.814   0.466  0.00  0.00    +0.022 C 
ATOM      7  C   UNL     1     -35.010  20.313  -0.311  0.00  0.00    +0.103 C 
ATOM      8  C   UNL     1     -33.651  19.051   1.359  0.00  0.00    +0.103 C 
ATOM      9  C   UNL     1     -35.206  20.793   2.111  0.00  0.00    +0.205 C 
ATOM     10  C   UNL     1     -35.403  21.266   4.314  0.00  0.00    +0.212 C 
ATOM     11  C   UNL     1     -35.996  22.479   4.022  0.00  0.00    +0.207 C 
ATOM     12  C   UNL     1     -36.181  22.818   2.714  0.00  0.00    +0.194 C 
ATOM     13  N   UNL     1     -36.783  24.051   2.392  0.00  0.00    -0.334 N 
ATOM     14  H   UNL     1     -36.919  24.300   1.449  0.00  0.00    +0.144 HD
ATOM     15  H   UNL     1     -37.068  24.661   3.109  0.00  0.00    +0.144 HD
ENDROOT
BRANCH  10  16
ATOM     16  N   UNL     1     -35.329  21.160   5.710  0.00  0.00    -0.239 NA
ATOM     17  H   UNL     1     -34.787  21.729   6.303  0.00  0.00    +0.172 HD
ENDBRANCH  10  16
BRANCH  11  18
ATOM     18  N   UNL     1     -36.302  23.147   5.203  0.00  0.00    -0.322 N 
ATOM     19  H   UNL     1     -37.018  22.910   5.836  0.00  0.00    +0.147 HD
BRANCH  18  21
ATOM     20  S   UNL     1     -35.794  25.829   5.470  0.00  0.00    -0.044 S 
ATOM     21  C   UNL     1     -35.400  24.227   5.330  0.00  0.00    +0.122 C 
ENDBRANCH  18  21
ENDBRANCH  11  18
TORSDOF 3
ENDMDL
MODEL 5
REMARK VINA RESULT:      -5.2      1.760      2.093
REMARK  Name = 5386112
REMARK  3 active torsions:
REMARK  status: ('A' for Active; 'I' for Inactive)
REMARK    1  A    between atoms: N_5  and  C_13
REMARK    2  A    between atoms: N_6  and  C_14
REMARK    3  A    between atoms: N_6  and  C_16
REMARK                            x       y       z     vdW  Elec       q    Type
REMARK                         _______ _______ _______ _____ _____    ______ ____
ROOT
ATOM      1  N   UNL     1     -36.254  23.941   3.989  0.00  0.00    -0.234 N 
ATOM      2  N   UNL     1     -36.462  21.954   2.728  0.00  0.00    -0.314 NA
ATOM      3  N   UNL     1     -38.323  23.522   2.916  0.00  0.00    -0.316 NA
ATOM      4  C   UNL     1     -34.674  25.574   5.769  0.00  0.00    +0.004 C 
ATOM      5  C   UNL     1     -35.717  26.187   4.844  0.00  0.00    +0.022 C 
ATOM      6  C   UNL     1     -34.113  24.298   5.154  0.00  0.00    +0.022 C 
ATOM      7  C   UNL     1     -36.825  25.191   4.504  0.00  0.00    +0.103 C 
ATOM      8  C   UNL     1     -35.223  23.304   4.820  0.00  0.00    +0.103 C 
ATOM      9  C   UNL     1     -37.038  23.107   3.182  0.00  0.00    +0.205 C 
ATOM     10  C   UNL     1     -37.270  21.214   1.966  0.00  0.00    +0.212 C 
ATOM     11  C   UNL     1     -38.571  21.553   1.649  0.00  0.00    +0.207 C 
ATOM     12  C   UNL     1     -39.080  22.719   2.137  0.00  0.00    +0.194 C 
ATOM     13  N   UNL     1     -40.406  23.085   1.827  0.00  0.00    -0.334 N 
ATOM     14  H   UNL     1     -40.778  23.926   2.177  0.00  0.00    +0.144 HD
ATOM     15  H   UNL     1     -40.958  22.500   1.260  0.00  0.00    +0.144 HD
ENDROOT
BRANCH  10  16
ATOM     16  N   UNL     1     -36.992  19.986   1.349  0.00  0.00    -0.239 NA
ATOM     17  H   UNL     1     -36.120  19.530   1.341  0.00  0.00    +0.172 HD
ENDBRANCH  10  16
BRANCH  11  18
ATOM     18  N   UNL     1     -39.127  20.566   0.841  0.00  0.00    -0.322 N 
ATOM     19  H   UNL     1     -39.324  19.639   1.108  0.00  0.00    +0.147 HD
BRANCH  18  21
ATOM     20  S   UNL     1     -40.746  21.023  -1.326  0.00  0.00    -0.044 S 
ATOM     21  C   UNL     1     -39.357  21.134  -0.432  0.00  0.00    +0.122 C 
ENDBRANCH  18  21
ENDBRANCH  11  18
TORSDOF 3
ENDMDL
MODEL 6
REMARK VINA RESULT:      -5.2      2.644      6.235
REMARK  Name = 5386112
REMARK  3 active torsions:
REMARK  status: ('A' for Active; 'I' for Inactive)
REMARK    1  A    between atoms: N_5  and  C_13
REMARK    2  A    between atoms: N_6  and  C_14
REMARK    3  A    between atoms: N_6  and  C_16
REMARK                            x       y       z     vdW  Elec       q    Type
REMARK                         _______ _______ _______ _____ _____    ______ ____
ROOT
ATOM      1  N   UNL     1     -37.116  21.583   1.906  0.00  0.00    -0.234 N 
ATOM      2  N   UNL     1     -37.529  23.769   2.698  0.00  0.00    -0.314 NA
ATOM      3  N   UNL     1     -36.009  22.273   3.883  0.00  0.00    -0.316 NA
ATOM      4  C   UNL     1     -37.728  19.493   0.012  0.00  0.00    +0.004 C 
ATOM      5  C   UNL     1     -36.362  19.585   0.679  0.00  0.00    +0.022 C 
ATOM      6  C   UNL     1     -38.348  20.880  -0.108  0.00  0.00    +0.022 C 
ATOM      7  C   UNL     1     -36.442  20.285   2.036  0.00  0.00    +0.103 C 
ATOM      8  C   UNL     1     -38.431  21.573   1.250  0.00  0.00    +0.103 C 
ATOM      9  C   UNL     1     -36.879  22.579   2.861  0.00  0.00    +0.205 C 
ATOM     10  C   UNL     1     -37.252  24.667   3.646  0.00  0.00    +0.212 C 
ATOM     11  C   UNL     1     -36.394  24.445   4.706  0.00  0.00    +0.207 C 
ATOM     12  C   UNL     1     -35.779  23.232   4.805  0.00  0.00    +0.194 C 
ATOM     13  N   UNL     1     -34.900  22.983   5.878  0.00  0.00    -0.334 N 
ATOM     14  H   UNL     1     -34.453  22.108   5.954  0.00  0.00    +0.144 HD
ATOM     15  H   UNL     1     -34.733  23.682   6.550  0.00  0.00    +0.144 HD
ENDROOT
BRANCH  10  16
ATOM     16  N   UNL     1     -37.747  25.973   3.773  0.00  0.00    -0.239 NA
ATOM     17  H   UNL     1     -38.327  26.301   4.498  0.00  0.00    +0.172 HD
ENDBRANCH  10  16
BRANCH  11  18
ATOM     18  N   UNL     1     -36.332  25.583   5.504  0.00  0.00    -0.322 N 
ATOM     19  H   UNL     1     -37.094  26.034   5.933  0.00  0.00    +0.147 HD
BRANCH  18  21
ATOM     20  S   UNL     1     -34.061  26.618   4.366  0.00  0.00    -0.044 S 
ATOM     21  C   UNL     1     -34.977  25.975   5.586  0.00  0.00    +0.122 C 
ENDBRANCH  18  21
ENDBRANCH  11  18
TORSDOF 3
ENDMDL
MODEL 7
REMARK VINA RESULT:      -5.1      2.939      6.059
REMARK  Name = 5386112
REMARK  3 active torsions:
REMARK  status: ('A' for Active; 'I' for Inactive)
REMARK    1  A    between atoms: N_5  and  C_13
REMARK    2  A    between atoms: N_6  and  C_14
REMARK    3  A    between atoms: N_6  and  C_16
REMARK                            x       y       z     vdW  Elec       q    Type
REMARK                         _______ _______ _______ _____ _____    ______ ____
ROOT
ATOM      1  N   UNL     1     -35.002  21.155   1.396  0.00  0.00    -0.234 N 
ATOM      2  N   UNL     1     -35.921  23.302   1.749  0.00  0.00    -0.314 NA
ATOM      3  N   UNL     1     -35.538  21.779   3.617  0.00  0.00    -0.316 NA
ATOM      4  C   UNL     1     -34.104  19.135  -0.460  0.00  0.00    +0.004 C 
ATOM      5  C   UNL     1     -33.546  19.218   0.955  0.00  0.00    +0.022 C 
ATOM      6  C   UNL     1     -34.534  20.517  -0.937  0.00  0.00    +0.022 C 
ATOM      7  C   UNL     1     -34.543  19.862   1.918  0.00  0.00    +0.103 C 
ATOM      8  C   UNL     1     -35.533  21.154   0.026  0.00  0.00    +0.103 C 
ATOM      9  C   UNL     1     -35.506  22.115   2.283  0.00  0.00    +0.205 C 
ATOM     10  C   UNL     1     -36.387  24.164   2.655  0.00  0.00    +0.212 C 
ATOM     11  C   UNL     1     -36.456  23.911   4.012  0.00  0.00    +0.207 C 
ATOM     12  C   UNL     1     -36.023  22.704   4.473  0.00  0.00    +0.194 C 
ATOM     13  N   UNL     1     -36.085  22.423   5.853  0.00  0.00    -0.334 N 
ATOM     14  H   UNL     1     -35.773  21.552   6.192  0.00  0.00    +0.144 HD
ATOM     15  H   UNL     1     -36.438  23.096   6.477  0.00  0.00    +0.144 HD
ENDROOT
BRANCH  10  16
ATOM     16  N   UNL     1     -36.887  25.457   2.443  0.00  0.00    -0.239 NA
ATOM     17  H   UNL     1     -37.738  25.680   2.002  0.00  0.00    +0.172 HD
ENDBRANCH  10  16
BRANCH  11  18
ATOM     18  N   UNL     1     -36.989  25.016   4.667  0.00  0.00    -0.322 N 
ATOM     19  H   UNL     1     -37.877  25.411   4.513  0.00  0.00    +0.147 HD
BRANCH  18  21
ATOM     20  S   UNL     1     -34.507  26.034   5.242  0.00  0.00    -0.044 S 
ATOM     21  C   UNL     1     -36.024  25.470   5.594  0.00  0.00    +0.122 C 
ENDBRANCH  18  21
ENDBRANCH  11  18
TORSDOF 3
ENDMDL
MODEL 8
REMARK VINA RESULT:      -5.0      3.567      4.964
REMARK  Name = 5386112
REMARK  3 active torsions:
REMARK  status: ('A' for Active; 'I' for Inactive)
REMARK    1  A    between atoms: N_5  and  C_13
REMARK    2  A    between atoms: N_6  and  C_14
REMARK    3  A    between atoms: N_6  and  C_16
REMARK                            x       y       z     vdW  Elec       q    Type
REMARK                         _______ _______ _______ _____ _____    ______ ____
ROOT
ATOM      1  N   UNL     1     -40.829  24.856   2.240  0.00  0.00    -0.234 N 
ATOM      2  N   UNL     1     -40.307  22.729   1.356  0.00  0.00    -0.314 NA
ATOM      3  N   UNL     1     -38.835  23.810   2.974  0.00  0.00    -0.316 NA
ATOM      4  C   UNL     1     -42.551  27.173   2.229  0.00  0.00    +0.004 C 
ATOM      5  C   UNL     1     -41.768  26.771   3.472  0.00  0.00    +0.022 C 
ATOM      6  C   UNL     1     -42.870  25.942   1.389  0.00  0.00    +0.022 C 
ATOM      7  C   UNL     1     -40.504  25.988   3.115  0.00  0.00    +0.103 C 
ATOM      8  C   UNL     1     -41.604  25.167   1.031  0.00  0.00    +0.103 C 
ATOM      9  C   UNL     1     -39.962  23.758   2.186  0.00  0.00    +0.205 C 
ATOM     10  C   UNL     1     -39.433  21.720   1.359  0.00  0.00    +0.212 C 
ATOM     11  C   UNL     1     -38.279  21.688   2.118  0.00  0.00    +0.207 C 
ATOM     12  C   UNL     1     -37.998  22.751   2.924  0.00  0.00    +0.194 C 
ATOM     13  N   UNL     1     -36.825  22.742   3.706  0.00  0.00    -0.334 N 
ATOM     14  H   UNL     1     -36.618  23.507   4.290  0.00  0.00    +0.144 HD
ATOM     15  H   UNL     1     -36.215  21.971   3.669  0.00  0.00    +0.144 HD
ENDROOT
BRANCH  10  16
ATOM     16  N   UNL     1     -39.488  20.524   0.628  0.00  0.00    -0.239 NA
ATOM     17  H   UNL     1     -38.784  19.837   0.594  0.00  0.00    +0.172 HD
ENDBRANCH  10  16
BRANCH  11  18
ATOM     18  N   UNL     1     -37.598  20.497   1.885  0.00  0.00    -0.322 N 
ATOM     19  H   UNL     1     -37.928  19.591   2.082  0.00  0.00    +0.147 HD
BRANCH  18  21
ATOM     20  S   UNL     1     -34.879  20.175   1.718  0.00  0.00    -0.044 S 
ATOM     21  C   UNL     1     -36.348  20.824   1.314  0.00  0.00    +0.122 C 
ENDBRANCH  18  21
ENDBRANCH  11  18
TORSDOF 3
ENDMDL
MODEL 9
REMARK VINA RESULT:      -5.0      3.267      4.649
REMARK  Name = 5386112
REMARK  3 active torsions:
REMARK  status: ('A' for Active; 'I' for Inactive)
REMARK    1  A    between atoms: N_5  and  C_13
REMARK    2  A    between atoms: N_6  and  C_14
REMARK    3  A    between atoms: N_6  and  C_16
REMARK                            x       y       z     vdW  Elec       q    Type
REMARK                         _______ _______ _______ _____ _____    ______ ____
ROOT
ATOM      1  N   UNL     1     -36.952  24.616   4.038  0.00  0.00    -0.234 N 
ATOM      2  N   UNL     1     -38.846  25.601   3.028  0.00  0.00    -0.314 NA
ATOM      3  N   UNL     1     -38.470  23.194   2.905  0.00  0.00    -0.316 NA
ATOM      4  C   UNL     1     -34.451  24.955   5.439  0.00  0.00    +0.004 C 
ATOM      5  C   UNL     1     -35.279  23.684   5.587  0.00  0.00    +0.022 C 
ATOM      6  C   UNL     1     -35.360  26.140   5.137  0.00  0.00    +0.022 C 
ATOM      7  C   UNL     1     -36.148  23.430   4.355  0.00  0.00    +0.103 C 
ATOM      8  C   UNL     1     -36.222  25.883   3.904  0.00  0.00    +0.103 C 
ATOM      9  C   UNL     1     -38.132  24.469   3.298  0.00  0.00    +0.205 C 
ATOM     10  C   UNL     1     -39.955  25.381   2.319  0.00  0.00    +0.212 C 
ATOM     11  C   UNL     1     -40.370  24.137   1.885  0.00  0.00    +0.207 C 
ATOM     12  C   UNL     1     -39.607  23.050   2.192  0.00  0.00    +0.194 C 
ATOM     13  N   UNL     1     -40.010  21.771   1.757  0.00  0.00    -0.334 N 
ATOM     14  H   UNL     1     -39.462  20.982   1.976  0.00  0.00    +0.144 HD
ATOM     15  H   UNL     1     -40.838  21.666   1.237  0.00  0.00    +0.144 HD
ENDROOT
BRANCH  10  16
ATOM     16  N   UNL     1     -40.902  26.318   1.879  0.00  0.00    -0.239 NA
ATOM     17  H   UNL     1     -41.265  27.063   2.411  0.00  0.00    +0.172 HD
ENDBRANCH  10  16
BRANCH  11  18
ATOM     18  N   UNL     1     -41.561  24.262   1.177  0.00  0.00    -0.322 N 
ATOM     19  H   UNL     1     -42.437  24.509   1.552  0.00  0.00    +0.147 HD
BRANCH  18  21
ATOM     20  S   UNL     1     -42.108  22.906  -1.144  0.00  0.00    -0.044 S 
ATOM     21  C   UNL     1     -41.286  23.970  -0.178  0.00  0.00    +0.122 C 
ENDBRANCH  18  21
ENDBRANCH  11  18
TORSDOF 3
ENDMDL
