MODEL 1
REMARK VINA RESULT:      -5.5      0.000      0.000
REMARK  Name = 19794019
REMARK  7 active torsions:
REMARK  status: ('A' for Active; 'I' for Inactive)
REMARK    1  A    between atoms: N_2  and  C_11
REMARK    2  A    between atoms: C_3  and  C_5
REMARK    3  A    between atoms: C_11  and  C_14
REMARK    4  A    between atoms: C_14  and  S_15
REMARK    5  A    between atoms: S_15  and  C_16
REMARK    6  A    between atoms: C_16  and  C_18
REMARK    7  A    between atoms: C_18  and  O_19
REMARK                            x       y       z     vdW  Elec       q    Type
REMARK                         _______ _______ _______ _____ _____    ______ ____
ROOT
ATOM      1  O   UNL     1     -35.525  22.179  -0.305  0.00  0.00    -0.270 OA
ATOM      2  N   UNL     1     -35.775  21.924   1.987  0.00  0.00    -0.295 N 
ATOM      3  C   UNL     1     -35.175  21.677   0.760  0.00  0.00    +0.246 C 
ATOM      4  H   UNL     1     -35.420  21.471   2.786  0.00  0.00    +0.150 HD
ENDROOT
BRANCH   3   5
ATOM      5  C   UNL     1     -34.046  20.709   0.769  0.00  0.00    +0.053 C 
ATOM      6  C   UNL     1     -34.161  19.509   1.470  0.00  0.00    +0.005 C 
ATOM      7  C   UNL     1     -32.872  21.002   0.073  0.00  0.00    +0.005 C 
ATOM      8  C   UNL     1     -33.102  18.602   1.478  0.00  0.00    +0.000 C 
ATOM      9  C   UNL     1     -31.814  20.094   0.081  0.00  0.00    +0.000 C 
ATOM     10  C   UNL     1     -31.928  18.895   0.783  0.00  0.00    +0.000 C 
ENDBRANCH   3   5
BRANCH   2  11
ATOM     11  C   UNL     1     -36.894  22.817   2.137  0.00  0.00    +0.140 C 
ATOM     12  C   UNL     1     -38.201  22.051   2.264  0.00  0.00    +0.030 C 
BRANCH  11  14
ATOM     13  O   UNL     1     -37.518  24.099   4.096  0.00  0.00    -0.283 OA
ATOM     14  C   UNL     1     -36.631  23.634   3.389  0.00  0.00    +0.217 C 
BRANCH  14  15
ATOM     15  S   UNL     1     -34.915  23.903   3.719  0.00  0.00    -0.064 S 
BRANCH  15  16
ATOM     16  C   UNL     1     -34.820  23.352   5.437  0.00  0.00    +0.174 C 
BRANCH  16  18
ATOM     17  O   UNL     1     -34.982  21.029   4.819  0.00  0.00    -0.249 OA
ATOM     18  C   UNL     1     -35.344  21.949   5.540  0.00  0.00    +0.325 C 
BRANCH  18  19
ATOM     19  O   UNL     1     -36.256  21.803   6.534  0.00  0.00    -0.480 OA
ATOM     20  H   UNL     1     -36.736  22.546   6.844  0.00  0.00    +0.295 HD
ENDBRANCH  18  19
ENDBRANCH  16  18
ENDBRANCH  15  16
ENDBRANCH  14  15
ENDBRANCH  11  14
ENDBRANCH   2  11
TORSDOF 7
ENDMDL
MODEL 2
REMARK VINA RESULT:      -5.3      1.861      2.711
REMARK  Name = 19794019
REMARK  7 active torsions:
REMARK  status: ('A' for Active; 'I' for Inactive)
REMARK    1  A    between atoms: N_2  and  C_11
REMARK    2  A    between atoms: C_3  and  C_5
REMARK    3  A    between atoms: C_11  and  C_14
REMARK    4  A    between atoms: C_14  and  S_15
REMARK    5  A    between atoms: S_15  and  C_16
REMARK    6  A    between atoms: C_16  and  C_18
REMARK    7  A    between atoms: C_18  and  O_19
REMARK                            x       y       z     vdW  Elec       q    Type
REMARK                         _______ _______ _______ _____ _____    ______ ____
ROOT
ATOM      1  O   UNL     1     -36.287  20.023   2.536  0.00  0.00    -0.270 OA
ATOM      2  N   UNL     1     -35.202  21.991   3.112  0.00  0.00    -0.295 N 
ATOM      3  C   UNL     1     -35.339  20.795   2.420  0.00  0.00    +0.246 C 
ATOM      4  H   UNL     1     -34.404  22.542   2.949  0.00  0.00    +0.150 HD
ENDROOT
BRANCH   3   5
ATOM      5  C   UNL     1     -34.227  20.444   1.498  0.00  0.00    +0.053 C 
ATOM      6  C   UNL     1     -33.635  19.183   1.568  0.00  0.00    +0.005 C 
ATOM      7  C   UNL     1     -33.777  21.377   0.562  0.00  0.00    +0.005 C 
ATOM      8  C   UNL     1     -32.591  18.855   0.702  0.00  0.00    +0.000 C 
ATOM      9  C   UNL     1     -32.734  21.047  -0.302  0.00  0.00    +0.000 C 
ATOM     10  C   UNL     1     -32.141  19.787  -0.234  0.00  0.00    +0.000 C 
ENDBRANCH   3   5
BRANCH   2  11
ATOM     11  C   UNL     1     -36.184  22.455   4.059  0.00  0.00    +0.140 C 
ATOM     12  C   UNL     1     -35.584  22.614   5.446  0.00  0.00    +0.030 C 
BRANCH  11  14
ATOM     13  O   UNL     1     -37.819  24.215   3.743  0.00  0.00    -0.283 OA
ATOM     14  C   UNL     1     -36.687  23.789   3.539  0.00  0.00    +0.217 C 
BRANCH  14  15
ATOM     15  S   UNL     1     -35.505  24.669   2.562  0.00  0.00    -0.064 S 
BRANCH  15  16
ATOM     16  C   UNL     1     -35.665  26.326   3.263  0.00  0.00    +0.174 C 
BRANCH  16  18
ATOM     17  O   UNL     1     -34.321  26.011   5.237  0.00  0.00    -0.249 OA
ATOM     18  C   UNL     1     -35.409  26.269   4.741  0.00  0.00    +0.325 C 
BRANCH  18  19
ATOM     19  O   UNL     1     -36.515  26.552   5.476  0.00  0.00    -0.480 OA
ATOM     20  H   UNL     1     -37.265  26.935   5.065  0.00  0.00    +0.295 HD
ENDBRANCH  18  19
ENDBRANCH  16  18
ENDBRANCH  15  16
ENDBRANCH  14  15
ENDBRANCH  11  14
ENDBRANCH   2  11
TORSDOF 7
ENDMDL
MODEL 3
REMARK VINA RESULT:      -5.3      1.549      2.328
REMARK  Name = 19794019
REMARK  7 active torsions:
REMARK  status: ('A' for Active; 'I' for Inactive)
REMARK    1  A    between atoms: N_2  and  C_11
REMARK    2  A    between atoms: C_3  and  C_5
REMARK    3  A    between atoms: C_11  and  C_14
REMARK    4  A    between atoms: C_14  and  S_15
REMARK    5  A    between atoms: S_15  and  C_16
REMARK    6  A    between atoms: C_16  and  C_18
REMARK    7  A    between atoms: C_18  and  O_19
REMARK                            x       y       z     vdW  Elec       q    Type
REMARK                         _______ _______ _______ _____ _____    ______ ____
ROOT
ATOM      1  O   UNL     1     -35.740  22.326  -0.338  0.00  0.00    -0.270 OA
ATOM      2  N   UNL     1     -36.038  22.030   1.943  0.00  0.00    -0.295 N 
ATOM      3  C   UNL     1     -35.404  21.815   0.727  0.00  0.00    +0.246 C 
ATOM      4  H   UNL     1     -35.692  21.573   2.743  0.00  0.00    +0.150 HD
ENDROOT
BRANCH   3   5
ATOM      5  C   UNL     1     -34.255  20.873   0.748  0.00  0.00    +0.053 C 
ATOM      6  C   UNL     1     -33.087  21.182   0.051  0.00  0.00    +0.005 C 
ATOM      7  C   UNL     1     -34.345  19.680   1.466  0.00  0.00    +0.005 C 
ATOM      8  C   UNL     1     -32.008  20.298   0.071  0.00  0.00    +0.000 C 
ATOM      9  C   UNL     1     -33.266  18.796   1.485  0.00  0.00    +0.000 C 
ATOM     10  C   UNL     1     -32.098  19.104   0.789  0.00  0.00    +0.000 C 
ENDBRANCH   3   5
BRANCH   2  11
ATOM     11  C   UNL     1     -37.181  22.895   2.079  0.00  0.00    +0.140 C 
ATOM     12  C   UNL     1     -38.473  22.099   2.161  0.00  0.00    +0.030 C 
BRANCH  11  14
ATOM     13  O   UNL     1     -37.876  24.221   3.984  0.00  0.00    -0.283 OA
ATOM     14  C   UNL     1     -36.966  23.697   3.350  0.00  0.00    +0.217 C 
BRANCH  14  15
ATOM     15  S   UNL     1     -35.269  23.853   3.820  0.00  0.00    -0.064 S 
BRANCH  15  16
ATOM     16  C   UNL     1     -35.450  24.427   5.523  0.00  0.00    +0.174 C 
BRANCH  16  18
ATOM     17  O   UNL     1     -34.254  26.502   5.785  0.00  0.00    -0.249 OA
ATOM     18  C   UNL     1     -35.308  25.921   5.564  0.00  0.00    +0.325 C 
BRANCH  18  19
ATOM     19  O   UNL     1     -36.476  26.565   5.315  0.00  0.00    -0.480 OA
ATOM     20  H   UNL     1     -36.722  26.765   4.433  0.00  0.00    +0.295 HD
ENDBRANCH  18  19
ENDBRANCH  16  18
ENDBRANCH  15  16
ENDBRANCH  14  15
ENDBRANCH  11  14
ENDBRANCH   2  11
TORSDOF 7
ENDMDL
MODEL 4
REMARK VINA RESULT:      -5.3      3.924      5.635
REMARK  Name = 19794019
REMARK  7 active torsions:
REMARK  status: ('A' for Active; 'I' for Inactive)
REMARK    1  A    between atoms: N_2  and  C_11
REMARK    2  A    between atoms: C_3  and  C_5
REMARK    3  A    between atoms: C_11  and  C_14
REMARK    4  A    between atoms: C_14  and  S_15
REMARK    5  A    between atoms: S_15  and  C_16
REMARK    6  A    between atoms: C_16  and  C_18
REMARK    7  A    between atoms: C_18  and  O_19
REMARK                            x       y       z     vdW  Elec       q    Type
REMARK                         _______ _______ _______ _____ _____    ______ ____
ROOT
ATOM      1  O   UNL     1     -35.753  26.277   5.400  0.00  0.00    -0.270 OA
ATOM      2  N   UNL     1     -35.835  25.833   3.125  0.00  0.00    -0.295 N 
ATOM      3  C   UNL     1     -35.730  25.482   4.464  0.00  0.00    +0.246 C 
ATOM      4  H   UNL     1     -35.806  25.120   2.446  0.00  0.00    +0.150 HD
ENDROOT
BRANCH   3   5
ATOM      5  C   UNL     1     -35.553  24.034   4.747  0.00  0.00    +0.053 C 
ATOM      6  C   UNL     1     -35.338  23.600   6.055  0.00  0.00    +0.005 C 
ATOM      7  C   UNL     1     -35.604  23.108   3.704  0.00  0.00    +0.005 C 
ATOM      8  C   UNL     1     -35.173  22.241   6.321  0.00  0.00    +0.000 C 
ATOM      9  C   UNL     1     -35.438  21.749   3.970  0.00  0.00    +0.000 C 
ATOM     10  C   UNL     1     -35.223  21.315   5.278  0.00  0.00    +0.000 C 
ENDBRANCH   3   5
BRANCH   2  11
ATOM     11  C   UNL     1     -35.985  27.197   2.690  0.00  0.00    +0.140 C 
ATOM     12  C   UNL     1     -34.665  27.772   2.203  0.00  0.00    +0.030 C 
BRANCH  11  14
ATOM     13  O   UNL     1     -37.488  28.197   1.074  0.00  0.00    -0.283 OA
ATOM     14  C   UNL     1     -37.008  27.183   1.568  0.00  0.00    +0.217 C 
BRANCH  14  15
ATOM     15  S   UNL     1     -37.490  25.560   1.060  0.00  0.00    -0.064 S 
BRANCH  15  16
ATOM     16  C   UNL     1     -39.242  25.584   1.497  0.00  0.00    +0.174 C 
BRANCH  16  18
ATOM     17  O   UNL     1     -38.896  24.590   3.665  0.00  0.00    -0.249 OA
ATOM     18  C   UNL     1     -39.385  25.485   2.988  0.00  0.00    +0.325 C 
BRANCH  18  19
ATOM     19  O   UNL     1     -40.107  26.507   3.514  0.00  0.00    -0.480 OA
ATOM     20  H   UNL     1     -40.227  26.567   4.441  0.00  0.00    +0.295 HD
ENDBRANCH  18  19
ENDBRANCH  16  18
ENDBRANCH  15  16
ENDBRANCH  14  15
ENDBRANCH  11  14
ENDBRANCH   2  11
TORSDOF 7
ENDMDL
MODEL 5
REMARK VINA RESULT:      -5.2      2.216      3.661
REMARK  Name = 19794019
REMARK  7 active torsions:
REMARK  status: ('A' for Active; 'I' for Inactive)
REMARK    1  A    between atoms: N_2  and  C_11
REMARK    2  A    between atoms: C_3  and  C_5
REMARK    3  A    between atoms: C_11  and  C_14
REMARK    4  A    between atoms: C_14  and  S_15
REMARK    5  A    between atoms: S_15  and  C_16
REMARK    6  A    between atoms: C_16  and  C_18
REMARK    7  A    between atoms: C_18  and  O_19
REMARK                            x       y       z     vdW  Elec       q    Type
REMARK                         _______ _______ _______ _____ _____    ______ ____
ROOT
ATOM      1  O   UNL     1     -37.345  22.494   2.780  0.00  0.00    -0.270 OA
ATOM      2  N   UNL     1     -35.379  22.135   3.958  0.00  0.00    -0.295 N 
ATOM      3  C   UNL     1     -36.232  21.982   2.873  0.00  0.00    +0.246 C 
ATOM      4  H   UNL     1     -34.505  21.683   3.939  0.00  0.00    +0.150 HD
ENDROOT
BRANCH   3   5
ATOM      5  C   UNL     1     -35.741  21.108   1.775  0.00  0.00    +0.053 C 
ATOM      6  C   UNL     1     -34.753  20.158   2.029  0.00  0.00    +0.005 C 
ATOM      7  C   UNL     1     -36.271  21.239   0.491  0.00  0.00    +0.005 C 
ATOM      8  C   UNL     1     -34.293  19.338   0.999  0.00  0.00    +0.000 C 
ATOM      9  C   UNL     1     -35.811  20.419  -0.539  0.00  0.00    +0.000 C 
ATOM     10  C   UNL     1     -34.822  19.468  -0.285  0.00  0.00    +0.000 C 
ENDBRANCH   3   5
BRANCH   2  11
ATOM     11  C   UNL     1     -35.723  22.930   5.108  0.00  0.00    +0.140 C 
ATOM     12  C   UNL     1     -35.316  22.241   6.400  0.00  0.00    +0.030 C 
BRANCH  11  14
ATOM     13  O   UNL     1     -33.781  24.341   4.776  0.00  0.00    -0.283 OA
ATOM     14  C   UNL     1     -34.991  24.251   4.955  0.00  0.00    +0.217 C 
BRANCH  14  15
ATOM     15  S   UNL     1     -36.036  25.670   5.104  0.00  0.00    -0.064 S 
BRANCH  15  16
ATOM     16  C   UNL     1     -36.479  25.936   3.373  0.00  0.00    +0.174 C 
BRANCH  16  18
ATOM     17  O   UNL     1     -38.625  26.528   2.452  0.00  0.00    -0.249 OA
ATOM     18  C   UNL     1     -37.969  25.836   3.219  0.00  0.00    +0.325 C 
BRANCH  18  19
ATOM     19  O   UNL     1     -38.515  24.882   4.014  0.00  0.00    -0.480 OA
ATOM     20  H   UNL     1     -39.447  24.799   4.075  0.00  0.00    +0.295 HD
ENDBRANCH  18  19
ENDBRANCH  16  18
ENDBRANCH  15  16
ENDBRANCH  14  15
ENDBRANCH  11  14
ENDBRANCH   2  11
TORSDOF 7
ENDMDL
MODEL 6
REMARK VINA RESULT:      -5.2      1.539      2.021
REMARK  Name = 19794019
REMARK  7 active torsions:
REMARK  status: ('A' for Active; 'I' for Inactive)
REMARK    1  A    between atoms: N_2  and  C_11
REMARK    2  A    between atoms: C_3  and  C_5
REMARK    3  A    between atoms: C_11  and  C_14
REMARK    4  A    between atoms: C_14  and  S_15
REMARK    5  A    between atoms: S_15  and  C_16
REMARK    6  A    between atoms: C_16  and  C_18
REMARK    7  A    between atoms: C_18  and  O_19
REMARK                            x       y       z     vdW  Elec       q    Type
REMARK                         _______ _______ _______ _____ _____    ______ ____
ROOT
ATOM      1  O   UNL     1     -34.647  22.104  -0.311  0.00  0.00    -0.270 OA
ATOM      2  N   UNL     1     -35.330  21.509   1.825  0.00  0.00    -0.295 N 
ATOM      3  C   UNL     1     -34.528  21.410   0.696  0.00  0.00    +0.246 C 
ATOM      4  H   UNL     1     -35.154  20.907   2.583  0.00  0.00    +0.150 HD
ENDROOT
BRANCH   3   5
ATOM      5  C   UNL     1     -33.476  20.361   0.732  0.00  0.00    +0.053 C 
ATOM      6  C   UNL     1     -33.697  19.176   1.433  0.00  0.00    +0.005 C 
ATOM      7  C   UNL     1     -32.267  20.562   0.065  0.00  0.00    +0.005 C 
ATOM      8  C   UNL     1     -32.709  18.191   1.468  0.00  0.00    +0.000 C 
ATOM      9  C   UNL     1     -31.280  19.578   0.100  0.00  0.00    +0.000 C 
ATOM     10  C   UNL     1     -31.500  18.392   0.800  0.00  0.00    +0.000 C 
ENDBRANCH   3   5
BRANCH   2  11
ATOM     11  C   UNL     1     -36.406  22.460   1.930  0.00  0.00    +0.140 C 
ATOM     12  C   UNL     1     -37.759  21.767   1.935  0.00  0.00    +0.030 C 
BRANCH  11  14
ATOM     13  O   UNL     1     -36.858  23.036   4.239  0.00  0.00    -0.283 OA
ATOM     14  C   UNL     1     -36.189  23.216   3.228  0.00  0.00    +0.217 C 
BRANCH  14  15
ATOM     15  S   UNL     1     -34.905  24.429   3.144  0.00  0.00    -0.064 S 
BRANCH  15  16
ATOM     16  C   UNL     1     -34.367  24.459   4.867  0.00  0.00    +0.174 C 
BRANCH  16  18
ATOM     17  O   UNL     1     -34.145  26.588   5.973  0.00  0.00    -0.249 OA
ATOM     18  C   UNL     1     -34.871  25.711   5.525  0.00  0.00    +0.325 C 
BRANCH  18  19
ATOM     19  O   UNL     1     -36.226  25.775   5.560  0.00  0.00    -0.480 OA
ATOM     20  H   UNL     1     -36.670  25.858   6.381  0.00  0.00    +0.295 HD
ENDBRANCH  18  19
ENDBRANCH  16  18
ENDBRANCH  15  16
ENDBRANCH  14  15
ENDBRANCH  11  14
ENDBRANCH   2  11
TORSDOF 7
ENDMDL
MODEL 7
REMARK VINA RESULT:      -5.0      3.731      5.060
REMARK  Name = 19794019
REMARK  7 active torsions:
REMARK  status: ('A' for Active; 'I' for Inactive)
REMARK    1  A    between atoms: N_2  and  C_11
REMARK    2  A    between atoms: C_3  and  C_5
REMARK    3  A    between atoms: C_11  and  C_14
REMARK    4  A    between atoms: C_14  and  S_15
REMARK    5  A    between atoms: S_15  and  C_16
REMARK    6  A    between atoms: C_16  and  C_18
REMARK    7  A    between atoms: C_18  and  O_19
REMARK                            x       y       z     vdW  Elec       q    Type
REMARK                         _______ _______ _______ _____ _____    ______ ____
ROOT
ATOM      1  O   UNL     1     -36.052  25.875   3.691  0.00  0.00    -0.270 OA
ATOM      2  N   UNL     1     -36.749  24.384   2.057  0.00  0.00    -0.295 N 
ATOM      3  C   UNL     1     -36.218  24.725   3.294  0.00  0.00    +0.246 C 
ATOM      4  H   UNL     1     -36.843  23.431   1.830  0.00  0.00    +0.150 HD
ENDROOT
BRANCH   3   5
ATOM      5  C   UNL     1     -35.809  23.591   4.163  0.00  0.00    +0.053 C 
ATOM      6  C   UNL     1     -35.617  23.794   5.530  0.00  0.00    +0.005 C 
ATOM      7  C   UNL     1     -35.617  22.324   3.612  0.00  0.00    +0.005 C 
ATOM      8  C   UNL     1     -35.233  22.729   6.346  0.00  0.00    +0.000 C 
ATOM      9  C   UNL     1     -35.232  21.260   4.428  0.00  0.00    +0.000 C 
ATOM     10  C   UNL     1     -35.041  21.462   5.794  0.00  0.00    +0.000 C 
ENDBRANCH   3   5
BRANCH   2  11
ATOM     11  C   UNL     1     -37.169  25.370   1.096  0.00  0.00    +0.140 C 
ATOM     12  C   UNL     1     -37.009  24.860  -0.327  0.00  0.00    +0.030 C 
BRANCH  11  14
ATOM     13  O   UNL     1     -39.001  26.635   2.052  0.00  0.00    -0.283 OA
ATOM     14  C   UNL     1     -38.627  25.671   1.394  0.00  0.00    +0.217 C 
BRANCH  14  15
ATOM     15  S   UNL     1     -39.752  24.472   0.743  0.00  0.00    -0.064 S 
BRANCH  15  16
ATOM     16  C   UNL     1     -39.966  23.404   2.184  0.00  0.00    +0.174 C 
BRANCH  16  18
ATOM     17  O   UNL     1     -38.291  21.849   1.422  0.00  0.00    -0.249 OA
ATOM     18  C   UNL     1     -39.407  22.044   1.885  0.00  0.00    +0.325 C 
BRANCH  18  19
ATOM     19  O   UNL     1     -40.269  21.043   2.197  0.00  0.00    -0.480 OA
ATOM     20  H   UNL     1     -40.929  21.178   2.848  0.00  0.00    +0.295 HD
ENDBRANCH  18  19
ENDBRANCH  16  18
ENDBRANCH  15  16
ENDBRANCH  14  15
ENDBRANCH  11  14
ENDBRANCH   2  11
TORSDOF 7
ENDMDL
MODEL 8
REMARK VINA RESULT:      -5.0      2.352      3.526
REMARK  Name = 19794019
REMARK  7 active torsions:
REMARK  status: ('A' for Active; 'I' for Inactive)
REMARK    1  A    between atoms: N_2  and  C_11
REMARK    2  A    between atoms: C_3  and  C_5
REMARK    3  A    between atoms: C_11  and  C_14
REMARK    4  A    between atoms: C_14  and  S_15
REMARK    5  A    between atoms: S_15  and  C_16
REMARK    6  A    between atoms: C_16  and  C_18
REMARK    7  A    between atoms: C_18  and  O_19
REMARK                            x       y       z     vdW  Elec       q    Type
REMARK                         _______ _______ _______ _____ _____    ______ ____
ROOT
ATOM      1  O   UNL     1     -36.877  21.819   2.478  0.00  0.00    -0.270 OA
ATOM      2  N   UNL     1     -35.155  22.047   4.014  0.00  0.00    -0.295 N 
ATOM      3  C   UNL     1     -35.692  21.710   2.779  0.00  0.00    +0.246 C 
ATOM      4  H   UNL     1     -34.189  21.922   4.159  0.00  0.00    +0.150 HD
ENDROOT
BRANCH   3   5
ATOM      5  C   UNL     1     -34.738  21.155   1.782  0.00  0.00    +0.053 C 
ATOM      6  C   UNL     1     -34.241  21.970   0.765  0.00  0.00    +0.005 C 
ATOM      7  C   UNL     1     -34.341  19.821   1.865  0.00  0.00    +0.005 C 
ATOM      8  C   UNL     1     -33.346  21.450  -0.170  0.00  0.00    +0.000 C 
ATOM      9  C   UNL     1     -33.447  19.301   0.930  0.00  0.00    +0.000 C 
ATOM     10  C   UNL     1     -32.949  20.115  -0.087  0.00  0.00    +0.000 C 
ENDBRANCH   3   5
BRANCH   2  11
ATOM     11  C   UNL     1     -35.955  22.572   5.090  0.00  0.00    +0.140 C 
ATOM     12  C   UNL     1     -35.370  22.208   6.445  0.00  0.00    +0.030 C 
BRANCH  11  14
ATOM     13  O   UNL     1     -37.002  24.712   4.650  0.00  0.00    -0.283 OA
ATOM     14  C   UNL     1     -35.985  24.079   4.909  0.00  0.00    +0.217 C 
BRANCH  14  15
ATOM     15  S   UNL     1     -34.400  24.849   5.061  0.00  0.00    -0.064 S 
BRANCH  15  16
ATOM     16  C   UNL     1     -34.236  25.590   3.422  0.00  0.00    +0.174 C 
BRANCH  16  18
ATOM     17  O   UNL     1     -33.664  27.906   3.082  0.00  0.00    -0.249 OA
ATOM     18  C   UNL     1     -34.446  27.074   3.521  0.00  0.00    +0.325 C 
BRANCH  18  19
ATOM     19  O   UNL     1     -35.609  27.398   4.141  0.00  0.00    -0.480 OA
ATOM     20  H   UNL     1     -35.634  28.113   4.747  0.00  0.00    +0.295 HD
ENDBRANCH  18  19
ENDBRANCH  16  18
ENDBRANCH  15  16
ENDBRANCH  14  15
ENDBRANCH  11  14
ENDBRANCH   2  11
TORSDOF 7
ENDMDL
MODEL 9
REMARK VINA RESULT:      -5.0      3.632      5.028
REMARK  Name = 19794019
REMARK  7 active torsions:
REMARK  status: ('A' for Active; 'I' for Inactive)
REMARK    1  A    between atoms: N_2  and  C_11
REMARK    2  A    between atoms: C_3  and  C_5
REMARK    3  A    between atoms: C_11  and  C_14
REMARK    4  A    between atoms: C_14  and  S_15
REMARK    5  A    between atoms: S_15  and  C_16
REMARK    6  A    between atoms: C_16  and  C_18
REMARK    7  A    between atoms: C_18  and  O_19
REMARK                            x       y       z     vdW  Elec       q    Type
REMARK                         _______ _______ _______ _____ _____    ______ ____
ROOT
ATOM      1  O   UNL     1     -36.018  23.651   1.352  0.00  0.00    -0.270 OA
ATOM      2  N   UNL     1     -37.833  22.323   1.920  0.00  0.00    -0.295 N 
ATOM      3  C   UNL     1     -36.644  22.991   2.178  0.00  0.00    +0.246 C 
ATOM      4  H   UNL     1     -38.260  21.820   2.650  0.00  0.00    +0.150 HD
ENDROOT
BRANCH   3   5
ATOM      5  C   UNL     1     -36.105  22.856   3.556  0.00  0.00    +0.053 C 
ATOM      6  C   UNL     1     -35.648  21.618   4.008  0.00  0.00    +0.005 C 
ATOM      7  C   UNL     1     -36.056  23.968   4.398  0.00  0.00    +0.005 C 
ATOM      8  C   UNL     1     -35.142  21.492   5.302  0.00  0.00    +0.000 C 
ATOM      9  C   UNL     1     -35.551  23.841   5.691  0.00  0.00    +0.000 C 
ATOM     10  C   UNL     1     -35.093  22.604   6.143  0.00  0.00    +0.000 C 
ENDBRANCH   3   5
BRANCH   2  11
ATOM     11  C   UNL     1     -38.466  22.339   0.627  0.00  0.00    +0.140 C 
ATOM     12  C   UNL     1     -38.881  20.942   0.195  0.00  0.00    +0.030 C 
BRANCH  11  14
ATOM     13  O   UNL     1     -40.800  22.837   1.049  0.00  0.00    -0.283 OA
ATOM     14  C   UNL     1     -39.681  23.241   0.752  0.00  0.00    +0.217 C 
BRANCH  14  15
ATOM     15  S   UNL     1     -39.353  24.939   0.382  0.00  0.00    -0.064 S 
BRANCH  15  16
ATOM     16  C   UNL     1     -40.145  25.742   1.793  0.00  0.00    +0.174 C 
BRANCH  16  18
ATOM     17  O   UNL     1     -39.481  24.483   3.737  0.00  0.00    -0.249 OA
ATOM     18  C   UNL     1     -39.343  25.475   3.034  0.00  0.00    +0.325 C 
BRANCH  18  19
ATOM     19  O   UNL     1     -38.433  26.449   3.289  0.00  0.00    -0.480 OA
ATOM     20  H   UNL     1     -38.106  26.980   2.590  0.00  0.00    +0.295 HD
ENDBRANCH  18  19
ENDBRANCH  16  18
ENDBRANCH  15  16
ENDBRANCH  14  15
ENDBRANCH  11  14
ENDBRANCH   2  11
TORSDOF 7
ENDMDL
