MODEL 1
REMARK VINA RESULT:      -5.2      0.000      0.000
REMARK  Name = 57358726
REMARK  15 active torsions:
REMARK  status: ('A' for Active; 'I' for Inactive)
REMARK    1  A    between atoms: C_3  and  C_19
REMARK    2  A    between atoms: C_4  and  C_10
REMARK    3  A    between atoms: C_5  and  O_8
REMARK    4  A    between atoms: C_10  and  C_11
REMARK    5  A    between atoms: C_11  and  C_13
REMARK    6  A    between atoms: C_13  and  C_14
REMARK    7  A    between atoms: C_14  and  C_15
REMARK    8  A    between atoms: C_15  and  C_16
REMARK    9  A    between atoms: C_16  and  C_17
REMARK   10  A    between atoms: C_19  and  C_20
REMARK   11  A    between atoms: C_21  and  C_22
REMARK   12  A    between atoms: C_22  and  C_23
REMARK   13  A    between atoms: C_23  and  C_24
REMARK   14  A    between atoms: C_24  and  C_26
REMARK   15  A    between atoms: C_26  and  O_27
REMARK                            x       y       z     vdW  Elec       q    Type
REMARK                         _______ _______ _______ _____ _____    ______ ____
ROOT
ATOM      1  O   UNL     1     -34.237  26.357   5.751  0.00  0.00    -0.452 OA
ATOM      2  O   UNL     1     -32.355  27.436   6.344  0.00  0.00    -0.250 OA
ATOM      3  C   UNL     1     -35.049  26.345   3.411  0.00  0.00    +0.072 C 
ATOM      4  C   UNL     1     -35.406  26.258   4.899  0.00  0.00    +0.172 C 
ATOM      5  C   UNL     1     -34.201  27.598   3.188  0.00  0.00    +0.125 C 
ATOM      6  C   UNL     1     -32.945  27.527   4.034  0.00  0.00    +0.139 C 
ATOM      7  C   UNL     1     -33.171  27.141   5.473  0.00  0.00    +0.319 C 
ENDROOT
BRANCH   5   8
ATOM      8  O   UNL     1     -34.910  28.785   3.534  0.00  0.00    -0.384 OA
ATOM      9  H   UNL     1     -35.506  29.028   2.809  0.00  0.00    +0.210 HD
ENDBRANCH   5   8
BRANCH   4  10
ATOM     10  C   UNL     1     -36.092  24.947   5.270  0.00  0.00    +0.051 C 
BRANCH  10  11
ATOM     11  C   UNL     1     -35.099  23.849   5.644  0.00  0.00    +0.068 C 
BRANCH  11  13
ATOM     12  O   UNL     1     -35.288  21.448   5.810  0.00  0.00    -0.296 OA
ATOM     13  C   UNL     1     -35.490  22.465   5.148  0.00  0.00    +0.151 C 
BRANCH  13  14
ATOM     14  C   UNL     1     -36.178  22.427   3.792  0.00  0.00    +0.065 C 
BRANCH  14  15
ATOM     15  C   UNL     1     -35.226  22.043   2.661  0.00  0.00    +0.008 C 
BRANCH  15  16
ATOM     16  C   UNL     1     -35.268  20.539   2.385  0.00  0.00    +0.000 C 
BRANCH  16  17
ATOM     17  C   UNL     1     -34.469  20.181   1.131  0.00  0.00    +0.000 C 
ATOM     18  C   UNL     1     -33.873  21.419   0.480  0.00  0.00    +0.000 C 
ENDBRANCH  16  17
ENDBRANCH  15  16
ENDBRANCH  14  15
ENDBRANCH  13  14
ENDBRANCH  11  13
ENDBRANCH  10  11
ENDBRANCH   4  10
BRANCH   3  19
ATOM     19  C   UNL     1     -36.289  26.338   2.515  0.00  0.00    +0.032 C 
BRANCH  19  20
ATOM     20  C   UNL     1     -36.332  25.298   1.435  0.00  0.00    -0.031 C 
ATOM     21  C   UNL     1     -37.416  24.811   0.813  0.00  0.00    -0.031 C 
BRANCH  21  22
ATOM     22  C   UNL     1     -37.359  23.773  -0.270  0.00  0.00    +0.026 C 
BRANCH  22  23
ATOM     23  C   UNL     1     -37.891  22.401   0.163  0.00  0.00    +0.016 C 
BRANCH  23  24
ATOM     24  C   UNL     1     -39.391  22.384   0.471  0.00  0.00    +0.110 C 
BRANCH  24  26
ATOM     25  O   UNL     1     -39.485  22.988   2.827  0.00  0.00    -0.250 OA
ATOM     26  C   UNL     1     -39.711  22.183   1.936  0.00  0.00    +0.314 C 
BRANCH  26  27
ATOM     27  O   UNL     1     -40.253  20.958   2.168  0.00  0.00    -0.480 OA
ATOM     28  H   UNL     1     -39.790  20.333   2.692  0.00  0.00    +0.295 HD
ENDBRANCH  26  27
ENDBRANCH  24  26
ENDBRANCH  23  24
ENDBRANCH  22  23
ENDBRANCH  21  22
ENDBRANCH  19  20
ENDBRANCH   3  19
TORSDOF 15
ENDMDL
MODEL 2
REMARK VINA RESULT:      -5.1      2.587      7.049
REMARK  Name = 57358726
REMARK  15 active torsions:
REMARK  status: ('A' for Active; 'I' for Inactive)
REMARK    1  A    between atoms: C_3  and  C_19
REMARK    2  A    between atoms: C_4  and  C_10
REMARK    3  A    between atoms: C_5  and  O_8
REMARK    4  A    between atoms: C_10  and  C_11
REMARK    5  A    between atoms: C_11  and  C_13
REMARK    6  A    between atoms: C_13  and  C_14
REMARK    7  A    between atoms: C_14  and  C_15
REMARK    8  A    between atoms: C_15  and  C_16
REMARK    9  A    between atoms: C_16  and  C_17
REMARK   10  A    between atoms: C_19  and  C_20
REMARK   11  A    between atoms: C_21  and  C_22
REMARK   12  A    between atoms: C_22  and  C_23
REMARK   13  A    between atoms: C_23  and  C_24
REMARK   14  A    between atoms: C_24  and  C_26
REMARK   15  A    between atoms: C_26  and  O_27
REMARK                            x       y       z     vdW  Elec       q    Type
REMARK                         _______ _______ _______ _____ _____    ______ ____
ROOT
ATOM      1  O   UNL     1     -35.317  20.660  -1.040  0.00  0.00    -0.452 OA
ATOM      2  O   UNL     1     -33.585  20.224  -2.405  0.00  0.00    -0.250 OA
ATOM      3  C   UNL     1     -35.029  20.840   1.414  0.00  0.00    +0.072 C 
ATOM      4  C   UNL     1     -35.965  20.503   0.248  0.00  0.00    +0.172 C 
ATOM      5  C   UNL     1     -33.738  20.036   1.247  0.00  0.00    +0.125 C 
ATOM      6  C   UNL     1     -33.085  20.381  -0.077  0.00  0.00    +0.139 C 
ATOM      7  C   UNL     1     -34.015  20.374  -1.264  0.00  0.00    +0.319 C 
ENDROOT
BRANCH   5   8
ATOM      8  O   UNL     1     -33.981  18.632   1.277  0.00  0.00    -0.384 OA
ATOM      9  H   UNL     1     -33.148  18.163   1.437  0.00  0.00    +0.210 HD
ENDBRANCH   5   8
BRANCH   4  10
ATOM     10  C   UNL     1     -37.207  21.388   0.209  0.00  0.00    +0.051 C 
BRANCH  10  11
ATOM     11  C   UNL     1     -38.464  20.657   0.673  0.00  0.00    +0.068 C 
BRANCH  11  13
ATOM     12  O   UNL     1     -40.842  21.055   0.532  0.00  0.00    -0.296 OA
ATOM     13  C   UNL     1     -39.715  21.524   0.688  0.00  0.00    +0.151 C 
BRANCH  13  14
ATOM     14  C   UNL     1     -39.481  23.005   0.941  0.00  0.00    +0.065 C 
BRANCH  14  15
ATOM     15  C   UNL     1     -39.531  23.364   2.424  0.00  0.00    +0.008 C 
BRANCH  15  16
ATOM     16  C   UNL     1     -38.212  23.977   2.893  0.00  0.00    +0.000 C 
BRANCH  16  17
ATOM     17  C   UNL     1     -37.572  24.826   1.793  0.00  0.00    +0.000 C 
ATOM     18  C   UNL     1     -36.066  24.628   1.743  0.00  0.00    +0.000 C 
ENDBRANCH  16  17
ENDBRANCH  15  16
ENDBRANCH  14  15
ENDBRANCH  13  14
ENDBRANCH  11  13
ENDBRANCH  10  11
ENDBRANCH   4  10
BRANCH   3  19
ATOM     19  C   UNL     1     -35.680  20.581   2.774  0.00  0.00    +0.032 C 
BRANCH  19  20
ATOM     20  C   UNL     1     -35.525  21.656   3.808  0.00  0.00    -0.031 C 
ATOM     21  C   UNL     1     -35.237  21.502   5.110  0.00  0.00    -0.031 C 
BRANCH  21  22
ATOM     22  C   UNL     1     -35.090  22.645   6.071  0.00  0.00    +0.026 C 
BRANCH  22  23
ATOM     23  C   UNL     1     -35.667  23.968   5.549  0.00  0.00    +0.016 C 
BRANCH  23  24
ATOM     24  C   UNL     1     -34.626  25.078   5.382  0.00  0.00    +0.110 C 
BRANCH  24  26
ATOM     25  O   UNL     1     -34.603  27.262   4.306  0.00  0.00    -0.250 OA
ATOM     26  C   UNL     1     -35.208  26.396   4.921  0.00  0.00    +0.314 C 
BRANCH  26  27
ATOM     27  O   UNL     1     -36.503  26.537   5.310  0.00  0.00    -0.480 OA
ATOM     28  H   UNL     1     -36.701  26.856   6.169  0.00  0.00    +0.295 HD
ENDBRANCH  26  27
ENDBRANCH  24  26
ENDBRANCH  23  24
ENDBRANCH  22  23
ENDBRANCH  21  22
ENDBRANCH  19  20
ENDBRANCH   3  19
TORSDOF 15
ENDMDL
MODEL 3
REMARK VINA RESULT:      -5.0      1.757      6.234
REMARK  Name = 57358726
REMARK  15 active torsions:
REMARK  status: ('A' for Active; 'I' for Inactive)
REMARK    1  A    between atoms: C_3  and  C_19
REMARK    2  A    between atoms: C_4  and  C_10
REMARK    3  A    between atoms: C_5  and  O_8
REMARK    4  A    between atoms: C_10  and  C_11
REMARK    5  A    between atoms: C_11  and  C_13
REMARK    6  A    between atoms: C_13  and  C_14
REMARK    7  A    between atoms: C_14  and  C_15
REMARK    8  A    between atoms: C_15  and  C_16
REMARK    9  A    between atoms: C_16  and  C_17
REMARK   10  A    between atoms: C_19  and  C_20
REMARK   11  A    between atoms: C_21  and  C_22
REMARK   12  A    between atoms: C_22  and  C_23
REMARK   13  A    between atoms: C_23  and  C_24
REMARK   14  A    between atoms: C_24  and  C_26
REMARK   15  A    between atoms: C_26  and  O_27
REMARK                            x       y       z     vdW  Elec       q    Type
REMARK                         _______ _______ _______ _____ _____    ______ ____
ROOT
ATOM      1  O   UNL     1     -36.867  23.930   4.500  0.00  0.00    -0.452 OA
ATOM      2  O   UNL     1     -36.034  22.569   6.084  0.00  0.00    -0.250 OA
ATOM      3  C   UNL     1     -35.470  25.653   3.397  0.00  0.00    +0.072 C 
ATOM      4  C   UNL     1     -36.873  25.219   3.836  0.00  0.00    +0.172 C 
ATOM      5  C   UNL     1     -34.534  25.560   4.603  0.00  0.00    +0.125 C 
ATOM      6  C   UNL     1     -34.512  24.139   5.130  0.00  0.00    +0.139 C 
ATOM      7  C   UNL     1     -35.870  23.508   5.309  0.00  0.00    +0.319 C 
ENDROOT
BRANCH   5   8
ATOM      8  O   UNL     1     -34.945  26.426   5.659  0.00  0.00    -0.384 OA
ATOM      9  H   UNL     1     -34.207  27.003   5.909  0.00  0.00    +0.210 HD
ENDBRANCH   5   8
BRANCH   4  10
ATOM     10  C   UNL     1     -37.848  25.092   2.669  0.00  0.00    +0.051 C 
BRANCH  10  11
ATOM     11  C   UNL     1     -39.034  24.186   2.992  0.00  0.00    +0.068 C 
BRANCH  11  13
ATOM     12  O   UNL     1     -40.429  22.707   1.688  0.00  0.00    -0.296 OA
ATOM     13  C   UNL     1     -39.295  23.113   1.945  0.00  0.00    +0.151 C 
BRANCH  13  14
ATOM     14  C   UNL     1     -38.065  22.598   1.214  0.00  0.00    +0.065 C 
BRANCH  14  15
ATOM     15  C   UNL     1     -37.346  21.491   1.982  0.00  0.00    +0.008 C 
BRANCH  15  16
ATOM     16  C   UNL     1     -35.842  21.759   2.063  0.00  0.00    +0.000 C 
BRANCH  16  17
ATOM     17  C   UNL     1     -35.079  20.510   2.506  0.00  0.00    +0.000 C 
ATOM     18  C   UNL     1     -34.636  19.677   1.314  0.00  0.00    +0.000 C 
ENDBRANCH  16  17
ENDBRANCH  15  16
ENDBRANCH  14  15
ENDBRANCH  13  14
ENDBRANCH  11  13
ENDBRANCH  10  11
ENDBRANCH   4  10
BRANCH   3  19
ATOM     19  C   UNL     1     -35.461  27.054   2.784  0.00  0.00    +0.032 C 
BRANCH  19  20
ATOM     20  C   UNL     1     -34.158  27.797   2.824  0.00  0.00    -0.031 C 
ATOM     21  C   UNL     1     -33.950  29.059   3.228  0.00  0.00    -0.031 C 
BRANCH  21  22
ATOM     22  C   UNL     1     -32.601  29.717   3.243  0.00  0.00    +0.026 C 
BRANCH  22  23
ATOM     23  C   UNL     1     -32.322  30.521   4.520  0.00  0.00    +0.016 C 
BRANCH  23  24
ATOM     24  C   UNL     1     -31.268  29.889   5.435  0.00  0.00    +0.110 C 
BRANCH  24  26
ATOM     25  O   UNL     1     -32.506  27.966   6.268  0.00  0.00    -0.250 OA
ATOM     26  C   UNL     1     -31.847  28.971   6.489  0.00  0.00    +0.314 C 
BRANCH  26  27
ATOM     27  O   UNL     1     -31.584  29.420   7.745  0.00  0.00    -0.480 OA
ATOM     28  H   UNL     1     -31.276  28.825   8.401  0.00  0.00    +0.295 HD
ENDBRANCH  26  27
ENDBRANCH  24  26
ENDBRANCH  23  24
ENDBRANCH  22  23
ENDBRANCH  21  22
ENDBRANCH  19  20
ENDBRANCH   3  19
TORSDOF 15
ENDMDL
MODEL 4
REMARK VINA RESULT:      -5.0      2.248      3.788
REMARK  Name = 57358726
REMARK  15 active torsions:
REMARK  status: ('A' for Active; 'I' for Inactive)
REMARK    1  A    between atoms: C_3  and  C_19
REMARK    2  A    between atoms: C_4  and  C_10
REMARK    3  A    between atoms: C_5  and  O_8
REMARK    4  A    between atoms: C_10  and  C_11
REMARK    5  A    between atoms: C_11  and  C_13
REMARK    6  A    between atoms: C_13  and  C_14
REMARK    7  A    between atoms: C_14  and  C_15
REMARK    8  A    between atoms: C_15  and  C_16
REMARK    9  A    between atoms: C_16  and  C_17
REMARK   10  A    between atoms: C_19  and  C_20
REMARK   11  A    between atoms: C_21  and  C_22
REMARK   12  A    between atoms: C_22  and  C_23
REMARK   13  A    between atoms: C_23  and  C_24
REMARK   14  A    between atoms: C_24  and  C_26
REMARK   15  A    between atoms: C_26  and  O_27
REMARK                            x       y       z     vdW  Elec       q    Type
REMARK                         _______ _______ _______ _____ _____    ______ ____
ROOT
ATOM      1  O   UNL     1     -33.204  26.617   5.676  0.00  0.00    -0.452 OA
ATOM      2  O   UNL     1     -32.294  28.299   6.859  0.00  0.00    -0.250 OA
ATOM      3  C   UNL     1     -33.145  26.586   3.199  0.00  0.00    +0.072 C 
ATOM      4  C   UNL     1     -33.872  26.151   4.477  0.00  0.00    +0.172 C 
ATOM      5  C   UNL     1     -32.923  28.098   3.259  0.00  0.00    +0.125 C 
ATOM      6  C   UNL     1     -32.104  28.450   4.486  0.00  0.00    +0.139 C 
ATOM      7  C   UNL     1     -32.573  27.809   5.767  0.00  0.00    +0.319 C 
ENDROOT
BRANCH   5   8
ATOM      8  O   UNL     1     -34.156  28.812   3.322  0.00  0.00    -0.384 OA
ATOM      9  H   UNL     1     -34.243  29.232   4.191  0.00  0.00    +0.210 HD
ENDBRANCH   5   8
BRANCH   4  10
ATOM     10  C   UNL     1     -33.979  24.635   4.612  0.00  0.00    +0.051 C 
BRANCH  10  11
ATOM     11  C   UNL     1     -35.060  24.208   5.602  0.00  0.00    +0.068 C 
BRANCH  11  13
ATOM     12  O   UNL     1     -36.000  22.096   6.301  0.00  0.00    -0.296 OA
ATOM     13  C   UNL     1     -35.580  22.795   5.379  0.00  0.00    +0.151 C 
BRANCH  13  14
ATOM     14  C   UNL     1     -35.575  22.316   3.936  0.00  0.00    +0.065 C 
BRANCH  14  15
ATOM     15  C   UNL     1     -36.935  22.477   3.259  0.00  0.00    +0.008 C 
BRANCH  15  16
ATOM     16  C   UNL     1     -37.000  23.766   2.440  0.00  0.00    +0.000 C 
BRANCH  16  17
ATOM     17  C   UNL     1     -37.782  24.854   3.178  0.00  0.00    +0.000 C 
ATOM     18  C   UNL     1     -37.515  26.229   2.587  0.00  0.00    +0.000 C 
ENDBRANCH  16  17
ENDBRANCH  15  16
ENDBRANCH  14  15
ENDBRANCH  13  14
ENDBRANCH  11  13
ENDBRANCH  10  11
ENDBRANCH   4  10
BRANCH   3  19
ATOM     19  C   UNL     1     -33.901  26.178   1.934  0.00  0.00    +0.032 C 
BRANCH  19  20
ATOM     20  C   UNL     1     -33.390  24.969   1.207  0.00  0.00    -0.031 C 
ATOM     21  C   UNL     1     -34.098  23.910   0.785  0.00  0.00    -0.031 C 
BRANCH  21  22
ATOM     22  C   UNL     1     -33.499  22.745   0.053  0.00  0.00    +0.026 C 
BRANCH  22  23
ATOM     23  C   UNL     1     -34.074  21.388   0.478  0.00  0.00    +0.016 C 
BRANCH  23  24
ATOM     24  C   UNL     1     -33.035  20.265   0.543  0.00  0.00    +0.110 C 
BRANCH  24  26
ATOM     25  O   UNL     1     -33.060  17.932   1.240  0.00  0.00    -0.250 OA
ATOM     26  C   UNL     1     -33.474  19.075   1.368  0.00  0.00    +0.314 C 
BRANCH  26  27
ATOM     27  O   UNL     1     -34.437  19.414   2.265  0.00  0.00    -0.480 OA
ATOM     28  H   UNL     1     -35.181  19.913   1.988  0.00  0.00    +0.295 HD
ENDBRANCH  26  27
ENDBRANCH  24  26
ENDBRANCH  23  24
ENDBRANCH  22  23
ENDBRANCH  21  22
ENDBRANCH  19  20
ENDBRANCH   3  19
TORSDOF 15
ENDMDL
MODEL 5
REMARK VINA RESULT:      -4.9      2.041      2.446
REMARK  Name = 57358726
REMARK  15 active torsions:
REMARK  status: ('A' for Active; 'I' for Inactive)
REMARK    1  A    between atoms: C_3  and  C_19
REMARK    2  A    between atoms: C_4  and  C_10
REMARK    3  A    between atoms: C_5  and  O_8
REMARK    4  A    between atoms: C_10  and  C_11
REMARK    5  A    between atoms: C_11  and  C_13
REMARK    6  A    between atoms: C_13  and  C_14
REMARK    7  A    between atoms: C_14  and  C_15
REMARK    8  A    between atoms: C_15  and  C_16
REMARK    9  A    between atoms: C_16  and  C_17
REMARK   10  A    between atoms: C_19  and  C_20
REMARK   11  A    between atoms: C_21  and  C_22
REMARK   12  A    between atoms: C_22  and  C_23
REMARK   13  A    between atoms: C_23  and  C_24
REMARK   14  A    between atoms: C_24  and  C_26
REMARK   15  A    between atoms: C_26  and  O_27
REMARK                            x       y       z     vdW  Elec       q    Type
REMARK                         _______ _______ _______ _____ _____    ______ ____
ROOT
ATOM      1  O   UNL     1     -33.158  26.664   5.887  0.00  0.00    -0.452 OA
ATOM      2  O   UNL     1     -32.145  28.412   6.875  0.00  0.00    -0.250 OA
ATOM      3  C   UNL     1     -33.305  26.467   3.422  0.00  0.00    +0.072 C 
ATOM      4  C   UNL     1     -33.926  26.126   4.781  0.00  0.00    +0.172 C 
ATOM      5  C   UNL     1     -33.072  27.977   3.361  0.00  0.00    +0.125 C 
ATOM      6  C   UNL     1     -32.152  28.402   4.489  0.00  0.00    +0.139 C 
ATOM      7  C   UNL     1     -32.516  27.853   5.845  0.00  0.00    +0.319 C 
ENDROOT
BRANCH   5   8
ATOM      8  O   UNL     1     -34.291  28.706   3.476  0.00  0.00    -0.384 OA
ATOM      9  H   UNL     1     -34.911  28.213   4.035  0.00  0.00    +0.210 HD
ENDBRANCH   5   8
BRANCH   4  10
ATOM     10  C   UNL     1     -34.029  24.624   5.028  0.00  0.00    +0.051 C 
BRANCH  10  11
ATOM     11  C   UNL     1     -35.415  24.200   5.509  0.00  0.00    +0.068 C 
BRANCH  11  13
ATOM     12  O   UNL     1     -36.012  22.119   6.578  0.00  0.00    -0.296 OA
ATOM     13  C   UNL     1     -35.617  22.693   5.563  0.00  0.00    +0.151 C 
BRANCH  13  14
ATOM     14  C   UNL     1     -35.330  21.947   4.269  0.00  0.00    +0.065 C 
BRANCH  14  15
ATOM     15  C   UNL     1     -36.212  22.415   3.113  0.00  0.00    +0.008 C 
BRANCH  15  16
ATOM     16  C   UNL     1     -35.888  21.656   1.826  0.00  0.00    +0.000 C 
BRANCH  16  17
ATOM     17  C   UNL     1     -35.451  20.221   2.122  0.00  0.00    +0.000 C 
ATOM     18  C   UNL     1     -34.167  19.868   1.387  0.00  0.00    +0.000 C 
ENDBRANCH  16  17
ENDBRANCH  15  16
ENDBRANCH  14  15
ENDBRANCH  13  14
ENDBRANCH  11  13
ENDBRANCH  10  11
ENDBRANCH   4  10
BRANCH   3  19
ATOM     19  C   UNL     1     -34.166  25.983   2.254  0.00  0.00    +0.032 C 
BRANCH  19  20
ATOM     20  C   UNL     1     -35.647  26.185   2.381  0.00  0.00    -0.031 C 
ATOM     21  C   UNL     1     -36.612  25.657   1.613  0.00  0.00    -0.031 C 
BRANCH  21  22
ATOM     22  C   UNL     1     -38.076  25.910   1.825  0.00  0.00    +0.026 C 
BRANCH  22  23
ATOM     23  C   UNL     1     -38.609  25.364   3.157  0.00  0.00    +0.016 C 
BRANCH  23  24
ATOM     24  C   UNL     1     -40.089  24.970   3.120  0.00  0.00    +0.110 C 
BRANCH  24  26
ATOM     25  O   UNL     1     -41.787  26.356   2.060  0.00  0.00    -0.250 OA
ATOM     26  C   UNL     1     -41.031  26.148   2.998  0.00  0.00    +0.314 C 
BRANCH  26  27
ATOM     27  O   UNL     1     -40.912  26.997   4.052  0.00  0.00    -0.480 OA
ATOM     28  H   UNL     1     -41.306  27.848   4.016  0.00  0.00    +0.295 HD
ENDBRANCH  26  27
ENDBRANCH  24  26
ENDBRANCH  23  24
ENDBRANCH  22  23
ENDBRANCH  21  22
ENDBRANCH  19  20
ENDBRANCH   3  19
TORSDOF 15
ENDMDL
MODEL 6
REMARK VINA RESULT:      -4.9      1.995      6.005
REMARK  Name = 57358726
REMARK  15 active torsions:
REMARK  status: ('A' for Active; 'I' for Inactive)
REMARK    1  A    between atoms: C_3  and  C_19
REMARK    2  A    between atoms: C_4  and  C_10
REMARK    3  A    between atoms: C_5  and  O_8
REMARK    4  A    between atoms: C_10  and  C_11
REMARK    5  A    between atoms: C_11  and  C_13
REMARK    6  A    between atoms: C_13  and  C_14
REMARK    7  A    between atoms: C_14  and  C_15
REMARK    8  A    between atoms: C_15  and  C_16
REMARK    9  A    between atoms: C_16  and  C_17
REMARK   10  A    between atoms: C_19  and  C_20
REMARK   11  A    between atoms: C_21  and  C_22
REMARK   12  A    between atoms: C_22  and  C_23
REMARK   13  A    between atoms: C_23  and  C_24
REMARK   14  A    between atoms: C_24  and  C_26
REMARK   15  A    between atoms: C_26  and  O_27
REMARK                            x       y       z     vdW  Elec       q    Type
REMARK                         _______ _______ _______ _____ _____    ______ ____
ROOT
ATOM      1  O   UNL     1     -36.447  23.158   4.317  0.00  0.00    -0.452 OA
ATOM      2  O   UNL     1     -36.036  22.359   6.378  0.00  0.00    -0.250 OA
ATOM      3  C   UNL     1     -35.421  25.263   3.508  0.00  0.00    +0.072 C 
ATOM      4  C   UNL     1     -36.601  24.288   3.422  0.00  0.00    +0.172 C 
ATOM      5  C   UNL     1     -35.206  25.636   4.976  0.00  0.00    +0.125 C 
ATOM      6  C   UNL     1     -34.926  24.386   5.789  0.00  0.00    +0.139 C 
ATOM      7  C   UNL     1     -35.875  23.242   5.539  0.00  0.00    +0.319 C 
ENDROOT
BRANCH   5   8
ATOM      8  O   UNL     1     -36.347  26.286   5.529  0.00  0.00    -0.384 OA
ATOM      9  H   UNL     1     -36.208  27.246   5.521  0.00  0.00    +0.210 HD
ENDBRANCH   5   8
BRANCH   4  10
ATOM     10  C   UNL     1     -36.787  23.702   2.026  0.00  0.00    +0.051 C 
BRANCH  10  11
ATOM     11  C   UNL     1     -35.620  22.815   1.601  0.00  0.00    +0.068 C 
BRANCH  11  13
ATOM     12  O   UNL     1     -36.932  20.916   0.891  0.00  0.00    -0.296 OA
ATOM     13  C   UNL     1     -35.964  21.334   1.525  0.00  0.00    +0.151 C 
BRANCH  13  14
ATOM     14  C   UNL     1     -35.012  20.402   2.258  0.00  0.00    +0.065 C 
BRANCH  14  15
ATOM     15  C   UNL     1     -34.277  19.452   1.315  0.00  0.00    +0.008 C 
BRANCH  15  16
ATOM     16  C   UNL     1     -33.196  20.185   0.520  0.00  0.00    +0.000 C 
BRANCH  16  17
ATOM     17  C   UNL     1     -31.863  19.439   0.575  0.00  0.00    +0.000 C 
ATOM     18  C   UNL     1     -32.028  18.047   1.163  0.00  0.00    +0.000 C 
ENDBRANCH  16  17
ENDBRANCH  15  16
ENDBRANCH  14  15
ENDBRANCH  13  14
ENDBRANCH  11  13
ENDBRANCH  10  11
ENDBRANCH   4  10
BRANCH   3  19
ATOM     19  C   UNL     1     -35.628  26.503   2.637  0.00  0.00    +0.032 C 
BRANCH  19  20
ATOM     20  C   UNL     1     -34.507  27.499   2.609  0.00  0.00    -0.031 C 
ATOM     21  C   UNL     1     -34.539  28.777   3.014  0.00  0.00    -0.031 C 
BRANCH  21  22
ATOM     22  C   UNL     1     -33.357  29.700   2.956  0.00  0.00    +0.026 C 
BRANCH  22  23
ATOM     23  C   UNL     1     -32.138  29.189   3.736  0.00  0.00    +0.016 C 
BRANCH  23  24
ATOM     24  C   UNL     1     -32.087  29.665   5.191  0.00  0.00    +0.110 C 
BRANCH  24  26
ATOM     25  O   UNL     1     -32.712  27.637   6.384  0.00  0.00    -0.250 OA
ATOM     26  C   UNL     1     -31.916  28.544   6.193  0.00  0.00    +0.314 C 
BRANCH  26  27
ATOM     27  O   UNL     1     -30.769  28.682   6.909  0.00  0.00    -0.480 OA
ATOM     28  H   UNL     1     -30.336  29.513   6.945  0.00  0.00    +0.295 HD
ENDBRANCH  26  27
ENDBRANCH  24  26
ENDBRANCH  23  24
ENDBRANCH  22  23
ENDBRANCH  21  22
ENDBRANCH  19  20
ENDBRANCH   3  19
TORSDOF 15
ENDMDL
MODEL 7
REMARK VINA RESULT:      -4.9      2.269      5.548
REMARK  Name = 57358726
REMARK  15 active torsions:
REMARK  status: ('A' for Active; 'I' for Inactive)
REMARK    1  A    between atoms: C_3  and  C_19
REMARK    2  A    between atoms: C_4  and  C_10
REMARK    3  A    between atoms: C_5  and  O_8
REMARK    4  A    between atoms: C_10  and  C_11
REMARK    5  A    between atoms: C_11  and  C_13
REMARK    6  A    between atoms: C_13  and  C_14
REMARK    7  A    between atoms: C_14  and  C_15
REMARK    8  A    between atoms: C_15  and  C_16
REMARK    9  A    between atoms: C_16  and  C_17
REMARK   10  A    between atoms: C_19  and  C_20
REMARK   11  A    between atoms: C_21  and  C_22
REMARK   12  A    between atoms: C_22  and  C_23
REMARK   13  A    between atoms: C_23  and  C_24
REMARK   14  A    between atoms: C_24  and  C_26
REMARK   15  A    between atoms: C_26  and  O_27
REMARK                            x       y       z     vdW  Elec       q    Type
REMARK                         _______ _______ _______ _____ _____    ______ ____
ROOT
ATOM      1  O   UNL     1     -37.115  23.492   4.120  0.00  0.00    -0.452 OA
ATOM      2  O   UNL     1     -38.988  24.448   3.323  0.00  0.00    -0.250 OA
ATOM      3  C   UNL     1     -35.752  21.951   2.740  0.00  0.00    +0.072 C 
ATOM      4  C   UNL     1     -36.199  22.368   4.146  0.00  0.00    +0.172 C 
ATOM      5  C   UNL     1     -36.997  21.738   1.879  0.00  0.00    +0.125 C 
ATOM      6  C   UNL     1     -37.809  23.018   1.822  0.00  0.00    +0.139 C 
ATOM      7  C   UNL     1     -38.044  23.679   3.156  0.00  0.00    +0.319 C 
ENDROOT
BRANCH   5   8
ATOM      8  O   UNL     1     -37.828  20.701   2.396  0.00  0.00    -0.384 OA
ATOM      9  H   UNL     1     -38.657  21.084   2.724  0.00  0.00    +0.210 HD
ENDBRANCH   5   8
BRANCH   4  10
ATOM     10  C   UNL     1     -35.035  22.790   5.038  0.00  0.00    +0.051 C 
BRANCH  10  11
ATOM     11  C   UNL     1     -35.215  24.193   5.614  0.00  0.00    +0.068 C 
BRANCH  11  13
ATOM     12  O   UNL     1     -33.240  25.154   4.610  0.00  0.00    -0.296 OA
ATOM     13  C   UNL     1     -34.437  25.270   4.873  0.00  0.00    +0.151 C 
BRANCH  13  14
ATOM     14  C   UNL     1     -35.244  26.487   4.449  0.00  0.00    +0.065 C 
BRANCH  14  15
ATOM     15  C   UNL     1     -34.933  26.931   3.021  0.00  0.00    +0.008 C 
BRANCH  15  16
ATOM     16  C   UNL     1     -36.012  26.461   2.045  0.00  0.00    +0.000 C 
BRANCH  16  17
ATOM     17  C   UNL     1     -35.396  25.789   0.817  0.00  0.00    +0.000 C 
ATOM     18  C   UNL     1     -34.343  24.766   1.212  0.00  0.00    +0.000 C 
ENDBRANCH  16  17
ENDBRANCH  15  16
ENDBRANCH  14  15
ENDBRANCH  13  14
ENDBRANCH  11  13
ENDBRANCH  10  11
ENDBRANCH   4  10
BRANCH   3  19
ATOM     19  C   UNL     1     -34.862  20.706   2.761  0.00  0.00    +0.032 C 
BRANCH  19  20
ATOM     20  C   UNL     1     -34.597  20.049   1.439  0.00  0.00    -0.031 C 
ATOM     21  C   UNL     1     -33.911  18.919   1.212  0.00  0.00    -0.031 C 
BRANCH  21  22
ATOM     22  C   UNL     1     -33.705  18.328  -0.153  0.00  0.00    +0.026 C 
BRANCH  22  23
ATOM     23  C   UNL     1     -34.641  17.153  -0.463  0.00  0.00    +0.016 C 
BRANCH  23  24
ATOM     24  C   UNL     1     -35.937  17.559  -1.171  0.00  0.00    +0.110 C 
BRANCH  24  26
ATOM     25  O   UNL     1     -37.635  18.974  -0.150  0.00  0.00    -0.250 OA
ATOM     26  C   UNL     1     -37.070  17.893  -0.225  0.00  0.00    +0.314 C 
BRANCH  26  27
ATOM     27  O   UNL     1     -37.372  16.845   0.586  0.00  0.00    -0.480 OA
ATOM     28  H   UNL     1     -36.831  16.655   1.328  0.00  0.00    +0.295 HD
ENDBRANCH  26  27
ENDBRANCH  24  26
ENDBRANCH  23  24
ENDBRANCH  22  23
ENDBRANCH  21  22
ENDBRANCH  19  20
ENDBRANCH   3  19
TORSDOF 15
ENDMDL
MODEL 8
REMARK VINA RESULT:      -4.9      2.838      6.932
REMARK  Name = 57358726
REMARK  15 active torsions:
REMARK  status: ('A' for Active; 'I' for Inactive)
REMARK    1  A    between atoms: C_3  and  C_19
REMARK    2  A    between atoms: C_4  and  C_10
REMARK    3  A    between atoms: C_5  and  O_8
REMARK    4  A    between atoms: C_10  and  C_11
REMARK    5  A    between atoms: C_11  and  C_13
REMARK    6  A    between atoms: C_13  and  C_14
REMARK    7  A    between atoms: C_14  and  C_15
REMARK    8  A    between atoms: C_15  and  C_16
REMARK    9  A    between atoms: C_16  and  C_17
REMARK   10  A    between atoms: C_19  and  C_20
REMARK   11  A    between atoms: C_21  and  C_22
REMARK   12  A    between atoms: C_22  and  C_23
REMARK   13  A    between atoms: C_23  and  C_24
REMARK   14  A    between atoms: C_24  and  C_26
REMARK   15  A    between atoms: C_26  and  O_27
REMARK                            x       y       z     vdW  Elec       q    Type
REMARK                         _______ _______ _______ _____ _____    ______ ____
ROOT
ATOM      1  O   UNL     1     -33.774  21.040  -0.861  0.00  0.00    -0.452 OA
ATOM      2  O   UNL     1     -32.040  19.960  -1.801  0.00  0.00    -0.250 OA
ATOM      3  C   UNL     1     -34.410  20.672   1.505  0.00  0.00    +0.072 C 
ATOM      4  C   UNL     1     -34.865  21.060   0.093  0.00  0.00    +0.172 C 
ATOM      5  C   UNL     1     -33.659  19.341   1.423  0.00  0.00    +0.125 C 
ATOM      6  C   UNL     1     -32.466  19.480   0.497  0.00  0.00    +0.139 C 
ATOM      7  C   UNL     1     -32.762  20.144  -0.824  0.00  0.00    +0.319 C 
ENDROOT
BRANCH   5   8
ATOM      8  O   UNL     1     -34.491  18.294   0.931  0.00  0.00    -0.384 OA
ATOM      9  H   UNL     1     -35.415  18.478   1.162  0.00  0.00    +0.210 HD
ENDBRANCH   5   8
BRANCH   4  10
ATOM     10  C   UNL     1     -35.460  22.464   0.027  0.00  0.00    +0.051 C 
BRANCH  10  11
ATOM     11  C   UNL     1     -34.513  23.530   0.571  0.00  0.00    +0.068 C 
BRANCH  11  13
ATOM     12  O   UNL     1     -34.622  25.445   2.038  0.00  0.00    -0.296 OA
ATOM     13  C   UNL     1     -35.217  24.678   1.282  0.00  0.00    +0.151 C 
BRANCH  13  14
ATOM     14  C   UNL     1     -36.697  24.832   0.970  0.00  0.00    +0.065 C 
BRANCH  14  15
ATOM     15  C   UNL     1     -37.528  25.155   2.209  0.00  0.00    +0.008 C 
BRANCH  15  16
ATOM     16  C   UNL     1     -38.270  23.919   2.718  0.00  0.00    +0.000 C 
BRANCH  16  17
ATOM     17  C   UNL     1     -38.852  23.105   1.562  0.00  0.00    +0.000 C 
ATOM     18  C   UNL     1     -39.085  21.657   1.963  0.00  0.00    +0.000 C 
ENDBRANCH  16  17
ENDBRANCH  15  16
ENDBRANCH  14  15
ENDBRANCH  13  14
ENDBRANCH  11  13
ENDBRANCH  10  11
ENDBRANCH   4  10
BRANCH   3  19
ATOM     19  C   UNL     1     -35.577  20.599   2.491  0.00  0.00    +0.032 C 
BRANCH  19  20
ATOM     20  C   UNL     1     -35.641  21.673   3.536  0.00  0.00    -0.031 C 
ATOM     21  C   UNL     1     -35.311  21.573   4.832  0.00  0.00    -0.031 C 
BRANCH  21  22
ATOM     22  C   UNL     1     -35.399  22.712   5.805  0.00  0.00    +0.026 C 
BRANCH  22  23
ATOM     23  C   UNL     1     -35.425  24.093   5.136  0.00  0.00    +0.016 C 
BRANCH  23  24
ATOM     24  C   UNL     1     -34.903  25.225   6.026  0.00  0.00    +0.110 C 
BRANCH  24  26
ATOM     25  O   UNL     1     -33.465  27.058   5.321  0.00  0.00    -0.250 OA
ATOM     26  C   UNL     1     -34.541  26.481   5.264  0.00  0.00    +0.314 C 
BRANCH  26  27
ATOM     27  O   UNL     1     -35.583  26.936   4.521  0.00  0.00    -0.480 OA
ATOM     28  H   UNL     1     -36.259  27.446   4.924  0.00  0.00    +0.295 HD
ENDBRANCH  26  27
ENDBRANCH  24  26
ENDBRANCH  23  24
ENDBRANCH  22  23
ENDBRANCH  21  22
ENDBRANCH  19  20
ENDBRANCH   3  19
TORSDOF 15
ENDMDL
MODEL 9
REMARK VINA RESULT:      -4.8      2.909      4.485
REMARK  Name = 57358726
REMARK  15 active torsions:
REMARK  status: ('A' for Active; 'I' for Inactive)
REMARK    1  A    between atoms: C_3  and  C_19
REMARK    2  A    between atoms: C_4  and  C_10
REMARK    3  A    between atoms: C_5  and  O_8
REMARK    4  A    between atoms: C_10  and  C_11
REMARK    5  A    between atoms: C_11  and  C_13
REMARK    6  A    between atoms: C_13  and  C_14
REMARK    7  A    between atoms: C_14  and  C_15
REMARK    8  A    between atoms: C_15  and  C_16
REMARK    9  A    between atoms: C_16  and  C_17
REMARK   10  A    between atoms: C_19  and  C_20
REMARK   11  A    between atoms: C_21  and  C_22
REMARK   12  A    between atoms: C_22  and  C_23
REMARK   13  A    between atoms: C_23  and  C_24
REMARK   14  A    between atoms: C_24  and  C_26
REMARK   15  A    between atoms: C_26  and  O_27
REMARK                            x       y       z     vdW  Elec       q    Type
REMARK                         _______ _______ _______ _____ _____    ______ ____
ROOT
ATOM      1  O   UNL     1     -36.695  22.993   4.373  0.00  0.00    -0.452 OA
ATOM      2  O   UNL     1     -35.737  22.487   6.343  0.00  0.00    -0.250 OA
ATOM      3  C   UNL     1     -36.169  25.094   3.170  0.00  0.00    +0.072 C 
ATOM      4  C   UNL     1     -37.195  23.988   3.444  0.00  0.00    +0.172 C 
ATOM      5  C   UNL     1     -35.691  25.655   4.510  0.00  0.00    +0.125 C 
ATOM      6  C   UNL     1     -35.072  24.547   5.340  0.00  0.00    +0.139 C 
ATOM      7  C   UNL     1     -35.887  23.281   5.417  0.00  0.00    +0.319 C 
ENDROOT
BRANCH   5   8
ATOM      8  O   UNL     1     -36.761  26.230   5.255  0.00  0.00    -0.384 OA
ATOM      9  H   UNL     1     -37.578  25.738   5.080  0.00  0.00    +0.210 HD
ENDBRANCH   5   8
BRANCH   4  10
ATOM     10  C   UNL     1     -37.600  23.228   2.185  0.00  0.00    +0.051 C 
BRANCH  10  11
ATOM     11  C   UNL     1     -39.033  22.704   2.250  0.00  0.00    +0.068 C 
BRANCH  11  13
ATOM     12  O   UNL     1     -40.388  20.969   1.258  0.00  0.00    -0.296 OA
ATOM     13  C   UNL     1     -39.341  21.614   1.234  0.00  0.00    +0.151 C 
BRANCH  13  14
ATOM     14  C   UNL     1     -38.280  21.398   0.166  0.00  0.00    +0.065 C 
BRANCH  14  15
ATOM     15  C   UNL     1     -37.592  20.039   0.287  0.00  0.00    +0.008 C 
BRANCH  15  16
ATOM     16  C   UNL     1     -36.072  20.178   0.209  0.00  0.00    +0.000 C 
BRANCH  16  17
ATOM     17  C   UNL     1     -35.432  20.074   1.595  0.00  0.00    +0.000 C 
ATOM     18  C   UNL     1     -34.011  19.541   1.513  0.00  0.00    +0.000 C 
ENDBRANCH  16  17
ENDBRANCH  15  16
ENDBRANCH  14  15
ENDBRANCH  13  14
ENDBRANCH  11  13
ENDBRANCH  10  11
ENDBRANCH   4  10
BRANCH   3  19
ATOM     19  C   UNL     1     -36.730  26.194   2.267  0.00  0.00    +0.032 C 
BRANCH  19  20
ATOM     20  C   UNL     1     -38.224  26.293   2.178  0.00  0.00    -0.031 C 
ATOM     21  C   UNL     1     -38.966  26.485   1.077  0.00  0.00    -0.031 C 
BRANCH  21  22
ATOM     22  C   UNL     1     -40.465  26.560   1.085  0.00  0.00    +0.026 C 
BRANCH  22  23
ATOM     23  C   UNL     1     -41.109  25.900   2.311  0.00  0.00    +0.016 C 
BRANCH  23  24
ATOM     24  C   UNL     1     -42.397  26.581   2.781  0.00  0.00    +0.110 C 
BRANCH  24  26
ATOM     25  O   UNL     1     -42.616  28.993   3.030  0.00  0.00    -0.250 OA
ATOM     26  C   UNL     1     -42.172  27.928   3.433  0.00  0.00    +0.314 C 
BRANCH  26  27
ATOM     27  O   UNL     1     -41.365  27.830   4.522  0.00  0.00    -0.480 OA
ATOM     28  H   UNL     1     -41.724  27.931   5.382  0.00  0.00    +0.295 HD
ENDBRANCH  26  27
ENDBRANCH  24  26
ENDBRANCH  23  24
ENDBRANCH  22  23
ENDBRANCH  21  22
ENDBRANCH  19  20
ENDBRANCH   3  19
TORSDOF 15
ENDMDL
