MODEL 1
REMARK VINA RESULT:      -7.2      0.000      0.000
REMARK  Name = 5487011
REMARK  8 active torsions:
REMARK  status: ('A' for Active; 'I' for Inactive)
REMARK    1  A    between atoms: C_3  and  C_12
REMARK    2  A    between atoms: C_6  and  O_26
REMARK    3  A    between atoms: C_10  and  O_28
REMARK    4  A    between atoms: C_11  and  O_30
REMARK    5  A    between atoms: C_14  and  O_20
REMARK    6  A    between atoms: C_16  and  O_18
REMARK    7  A    between atoms: O_20  and  C_21
REMARK    8  A    between atoms: C_21  and  C_22
REMARK                            x       y       z     vdW  Elec       q    Type
REMARK                         _______ _______ _______ _____ _____    ______ ____
ROOT
ATOM      1  O   UNL     1     -34.239  26.337   3.888  0.00  0.00    -0.450 OA
ATOM      2  O   UNL     1     -37.164  27.851   1.488  0.00  0.00    -0.283 OA
ATOM      3  C   UNL     1     -35.359  25.591   3.554  0.00  0.00    +0.182 A 
ATOM      4  C   UNL     1     -35.086  28.180   2.553  0.00  0.00    +0.080 A 
ATOM      5  C   UNL     1     -34.123  27.605   3.381  0.00  0.00    +0.152 A 
ATOM      6  C   UNL     1     -36.363  26.030   2.774  0.00  0.00    +0.208 A 
ATOM      7  C   UNL     1     -36.282  27.398   2.206  0.00  0.00    +0.235 A 
ATOM      8  C   UNL     1     -34.914  29.478   2.067  0.00  0.00    +0.046 C 
ATOM      9  C   UNL     1     -32.981  28.328   3.728  0.00  0.00    +0.077 C 
ATOM     10  C   UNL     1     -33.770  30.197   2.415  0.00  0.00    +0.168 C 
ATOM     11  C   UNL     1     -32.805  29.624   3.244  0.00  0.00    +0.171 C 
ENDROOT
BRANCH   3  12
ATOM     12  C   UNL     1     -35.359  24.250   4.165  0.00  0.00    +0.041 C 
ATOM     13  C   UNL     1     -35.487  23.116   3.362  0.00  0.00    +0.043 C 
ATOM     14  C   UNL     1     -35.488  21.848   3.941  0.00  0.00    +0.173 C 
ATOM     15  C   UNL     1     -35.232  24.113   5.547  0.00  0.00    +0.006 C 
ATOM     16  C   UNL     1     -35.361  21.711   5.323  0.00  0.00    +0.168 C 
ATOM     17  C   UNL     1     -35.233  22.844   6.127  0.00  0.00    +0.040 C 
BRANCH  16  18
ATOM     18  O   UNL     1     -35.358  20.478   5.900  0.00  0.00    -0.503 OA
ATOM     19  H   UNL     1     -34.662  20.230   6.476  0.00  0.00    +0.292 HD
ENDBRANCH  16  18
BRANCH  14  20
ATOM     20  O   UNL     1     -35.613  20.748   3.146  0.00  0.00    -0.468 OA
BRANCH  20  21
ATOM     21  C   UNL     1     -34.908  20.761   1.906  0.00  0.00    +0.231 C 
BRANCH  21  22
ATOM     22  C   UNL     1     -34.068  19.526   1.797  0.00  0.00    +0.012 C 
ATOM     23  C   UNL     1     -32.977  19.328   1.035  0.00  0.00    -0.044 C 
ATOM     24  C   UNL     1     -32.265  18.001   1.058  0.00  0.00    +0.026 C 
ATOM     25  C   UNL     1     -32.359  20.343   0.115  0.00  0.00    +0.026 C 
ENDBRANCH  21  22
ENDBRANCH  20  21
ENDBRANCH  14  20
ENDBRANCH   3  12
BRANCH   6  26
ATOM     26  O   UNL     1     -37.480  25.275   2.487  0.00  0.00    -0.501 OA
ATOM     27  H   UNL     1     -37.410  24.343   2.417  0.00  0.00    +0.292 HD
ENDBRANCH   6  26
BRANCH  10  28
ATOM     28  O   UNL     1     -33.607  31.463   1.938  0.00  0.00    -0.503 OA
ATOM     29  H   UNL     1     -32.745  31.793   1.772  0.00  0.00    +0.292 HD
ENDBRANCH  10  28
BRANCH  11  30
ATOM     30  O   UNL     1     -31.687  30.320   3.588  0.00  0.00    -0.503 OA
ATOM     31  H   UNL     1     -31.669  30.815   4.383  0.00  0.00    +0.292 HD
ENDBRANCH  11  30
TORSDOF 8
ENDMDL
MODEL 2
REMARK VINA RESULT:      -7.1      1.241      2.816
REMARK  Name = 5487011
REMARK  8 active torsions:
REMARK  status: ('A' for Active; 'I' for Inactive)
REMARK    1  A    between atoms: C_3  and  C_12
REMARK    2  A    between atoms: C_6  and  O_26
REMARK    3  A    between atoms: C_10  and  O_28
REMARK    4  A    between atoms: C_11  and  O_30
REMARK    5  A    between atoms: C_14  and  O_20
REMARK    6  A    between atoms: C_16  and  O_18
REMARK    7  A    between atoms: O_20  and  C_21
REMARK    8  A    between atoms: C_21  and  C_22
REMARK                            x       y       z     vdW  Elec       q    Type
REMARK                         _______ _______ _______ _____ _____    ______ ____
ROOT
ATOM      1  O   UNL     1     -36.233  25.773   2.700  0.00  0.00    -0.450 OA
ATOM      2  O   UNL     1     -33.585  28.716   3.664  0.00  0.00    -0.283 OA
ATOM      3  C   UNL     1     -35.252  25.578   3.660  0.00  0.00    +0.182 A 
ATOM      4  C   UNL     1     -35.435  28.041   2.366  0.00  0.00    +0.080 A 
ATOM      5  C   UNL     1     -36.307  26.993   2.080  0.00  0.00    +0.152 A 
ATOM      6  C   UNL     1     -34.344  26.501   4.022  0.00  0.00    +0.208 A 
ATOM      7  C   UNL     1     -34.384  27.835   3.375  0.00  0.00    +0.235 A 
ATOM      8  C   UNL     1     -35.558  29.264   1.702  0.00  0.00    +0.046 C 
ATOM      9  C   UNL     1     -37.311  27.162   1.125  0.00  0.00    +0.077 C 
ATOM     10  C   UNL     1     -36.562  29.429   0.748  0.00  0.00    +0.168 C 
ATOM     11  C   UNL     1     -37.437  28.381   0.460  0.00  0.00    +0.171 C 
ENDROOT
BRANCH   3  12
ATOM     12  C   UNL     1     -35.283  24.225   4.246  0.00  0.00    +0.041 C 
ATOM     13  C   UNL     1     -35.436  23.110   3.421  0.00  0.00    +0.043 C 
ATOM     14  C   UNL     1     -35.466  21.831   3.975  0.00  0.00    +0.173 C 
ATOM     15  C   UNL     1     -35.160  24.059   5.625  0.00  0.00    +0.006 C 
ATOM     16  C   UNL     1     -35.343  21.665   5.355  0.00  0.00    +0.168 C 
ATOM     17  C   UNL     1     -35.190  22.779   6.180  0.00  0.00    +0.040 C 
BRANCH  16  18
ATOM     18  O   UNL     1     -35.368  20.421   5.908  0.00  0.00    -0.503 OA
ATOM     19  H   UNL     1     -36.052  19.822   5.683  0.00  0.00    +0.292 HD
ENDBRANCH  16  18
BRANCH  14  20
ATOM     20  O   UNL     1     -35.615  20.749   3.159  0.00  0.00    -0.468 OA
BRANCH  20  21
ATOM     21  C   UNL     1     -34.878  20.753   1.938  0.00  0.00    +0.231 C 
BRANCH  21  22
ATOM     22  C   UNL     1     -34.063  19.500   1.846  0.00  0.00    +0.012 C 
ATOM     23  C   UNL     1     -32.978  19.268   1.083  0.00  0.00    -0.044 C 
ATOM     24  C   UNL     1     -32.292  17.928   1.125  0.00  0.00    +0.026 C 
ATOM     25  C   UNL     1     -32.345  20.256   0.145  0.00  0.00    +0.026 C 
ENDBRANCH  21  22
ENDBRANCH  20  21
ENDBRANCH  14  20
ENDBRANCH   3  12
BRANCH   6  26
ATOM     26  O   UNL     1     -33.359  26.264   4.957  0.00  0.00    -0.501 OA
ATOM     27  H   UNL     1     -32.720  26.925   5.141  0.00  0.00    +0.292 HD
ENDBRANCH   6  26
BRANCH  10  28
ATOM     28  O   UNL     1     -36.679  30.623   0.101  0.00  0.00    -0.503 OA
ATOM     29  H   UNL     1     -35.929  31.177  -0.000  0.00  0.00    +0.292 HD
ENDBRANCH  10  28
BRANCH  11  30
ATOM     30  O   UNL     1     -38.420  28.536  -0.470  0.00  0.00    -0.503 OA
ATOM     31  H   UNL     1     -38.709  29.395  -0.708  0.00  0.00    +0.292 HD
ENDBRANCH  11  30
TORSDOF 8
ENDMDL
MODEL 3
REMARK VINA RESULT:      -6.8      2.886      3.244
REMARK  Name = 5487011
REMARK  8 active torsions:
REMARK  status: ('A' for Active; 'I' for Inactive)
REMARK    1  A    between atoms: C_3  and  C_12
REMARK    2  A    between atoms: C_6  and  O_26
REMARK    3  A    between atoms: C_10  and  O_28
REMARK    4  A    between atoms: C_11  and  O_30
REMARK    5  A    between atoms: C_14  and  O_20
REMARK    6  A    between atoms: C_16  and  O_18
REMARK    7  A    between atoms: O_20  and  C_21
REMARK    8  A    between atoms: C_21  and  C_22
REMARK                            x       y       z     vdW  Elec       q    Type
REMARK                         _______ _______ _______ _____ _____    ______ ____
ROOT
ATOM      1  O   UNL     1     -36.327  25.460   1.755  0.00  0.00    -0.450 OA
ATOM      2  O   UNL     1     -40.200  26.668   2.130  0.00  0.00    -0.283 OA
ATOM      3  C   UNL     1     -37.153  24.947   2.743  0.00  0.00    +0.182 A 
ATOM      4  C   UNL     1     -38.161  26.837   0.958  0.00  0.00    +0.080 A 
ATOM      5  C   UNL     1     -36.845  26.384   0.886  0.00  0.00    +0.152 A 
ATOM      6  C   UNL     1     -38.436  25.305   2.928  0.00  0.00    +0.208 A 
ATOM      7  C   UNL     1     -39.038  26.305   2.012  0.00  0.00    +0.235 A 
ATOM      8  C   UNL     1     -38.634  27.782   0.044  0.00  0.00    +0.046 C 
ATOM      9  C   UNL     1     -35.992  26.876  -0.103  0.00  0.00    +0.077 C 
ATOM     10  C   UNL     1     -37.778  28.271  -0.943  0.00  0.00    +0.168 C 
ATOM     11  C   UNL     1     -36.460  27.819  -1.018  0.00  0.00    +0.171 C 
ENDROOT
BRANCH   3  12
ATOM     12  C   UNL     1     -36.472  23.966   3.608  0.00  0.00    +0.041 C 
ATOM     13  C   UNL     1     -36.211  22.680   3.135  0.00  0.00    +0.043 C 
ATOM     14  C   UNL     1     -35.567  21.752   3.954  0.00  0.00    +0.173 C 
ATOM     15  C   UNL     1     -36.090  24.323   4.901  0.00  0.00    +0.006 C 
ATOM     16  C   UNL     1     -35.185  22.109   5.247  0.00  0.00    +0.168 C 
ATOM     17  C   UNL     1     -35.447  23.395   5.721  0.00  0.00    +0.040 C 
BRANCH  16  18
ATOM     18  O   UNL     1     -34.555  21.213   6.055  0.00  0.00    -0.503 OA
ATOM     19  H   UNL     1     -34.021  21.514   6.763  0.00  0.00    +0.292 HD
ENDBRANCH  16  18
BRANCH  14  20
ATOM     20  O   UNL     1     -35.317  20.499   3.480  0.00  0.00    -0.468 OA
BRANCH  20  21
ATOM     21  C   UNL     1     -35.185  20.356   2.066  0.00  0.00    +0.231 C 
BRANCH  21  22
ATOM     22  C   UNL     1     -34.032  19.450   1.763  0.00  0.00    +0.012 C 
ATOM     23  C   UNL     1     -33.009  19.662   0.914  0.00  0.00    -0.044 C 
ATOM     24  C   UNL     1     -31.938  18.619   0.740  0.00  0.00    +0.026 C 
ATOM     25  C   UNL     1     -32.811  20.895   0.078  0.00  0.00    +0.026 C 
ENDBRANCH  21  22
ENDBRANCH  20  21
ENDBRANCH  14  20
ENDBRANCH   3  12
BRANCH   6  26
ATOM     26  O   UNL     1     -39.221  24.800   3.941  0.00  0.00    -0.501 OA
ATOM     27  H   UNL     1     -39.761  25.376   4.447  0.00  0.00    +0.292 HD
ENDBRANCH   6  26
BRANCH  10  28
ATOM     28  O   UNL     1     -38.244  29.192  -1.833  0.00  0.00    -0.503 OA
ATOM     29  H   UNL     1     -37.728  29.423  -2.581  0.00  0.00    +0.292 HD
ENDBRANCH  10  28
BRANCH  11  30
ATOM     30  O   UNL     1     -35.620  28.292  -1.980  0.00  0.00    -0.503 OA
ATOM     31  H   UNL     1     -34.894  27.774  -2.263  0.00  0.00    +0.292 HD
ENDBRANCH  11  30
TORSDOF 8
ENDMDL
MODEL 4
REMARK VINA RESULT:      -6.7      2.172      4.386
REMARK  Name = 5487011
REMARK  8 active torsions:
REMARK  status: ('A' for Active; 'I' for Inactive)
REMARK    1  A    between atoms: C_3  and  C_12
REMARK    2  A    between atoms: C_6  and  O_26
REMARK    3  A    between atoms: C_10  and  O_28
REMARK    4  A    between atoms: C_11  and  O_30
REMARK    5  A    between atoms: C_14  and  O_20
REMARK    6  A    between atoms: C_16  and  O_18
REMARK    7  A    between atoms: O_20  and  C_21
REMARK    8  A    between atoms: C_21  and  C_22
REMARK                            x       y       z     vdW  Elec       q    Type
REMARK                         _______ _______ _______ _____ _____    ______ ____
ROOT
ATOM      1  O   UNL     1     -34.748  23.386   2.317  0.00  0.00    -0.450 OA
ATOM      2  O   UNL     1     -35.041  23.215   6.377  0.00  0.00    -0.283 OA
ATOM      3  C   UNL     1     -35.202  22.246   2.962  0.00  0.00    +0.182 A 
ATOM      4  C   UNL     1     -34.487  24.482   4.467  0.00  0.00    +0.080 A 
ATOM      5  C   UNL     1     -34.407  24.475   3.076  0.00  0.00    +0.152 A 
ATOM      6  C   UNL     1     -35.317  22.119   4.296  0.00  0.00    +0.208 A 
ATOM      7  C   UNL     1     -34.956  23.271   5.158  0.00  0.00    +0.235 A 
ATOM      8  C   UNL     1     -34.124  25.622   5.189  0.00  0.00    +0.046 C 
ATOM      9  C   UNL     1     -33.962  25.610   2.397  0.00  0.00    +0.077 C 
ATOM     10  C   UNL     1     -33.681  26.755   4.507  0.00  0.00    +0.168 C 
ATOM     11  C   UNL     1     -33.600  26.751   3.115  0.00  0.00    +0.171 C 
ENDROOT
BRANCH   3  12
ATOM     12  C   UNL     1     -35.533  21.152   2.031  0.00  0.00    +0.041 C 
ATOM     13  C   UNL     1     -34.563  20.211   1.686  0.00  0.00    +0.043 C 
ATOM     14  C   UNL     1     -34.876  19.177   0.805  0.00  0.00    +0.173 C 
ATOM     15  C   UNL     1     -36.816  21.058   1.493  0.00  0.00    +0.006 C 
ATOM     16  C   UNL     1     -36.159  19.083   0.267  0.00  0.00    +0.168 C 
ATOM     17  C   UNL     1     -37.129  20.024   0.610  0.00  0.00    +0.040 C 
BRANCH  16  18
ATOM     18  O   UNL     1     -36.477  18.077  -0.594  0.00  0.00    -0.503 OA
ATOM     19  H   UNL     1     -35.935  17.907  -1.338  0.00  0.00    +0.292 HD
ENDBRANCH  16  18
BRANCH  14  20
ATOM     20  O   UNL     1     -33.919  18.262   0.477  0.00  0.00    -0.468 OA
BRANCH  20  21
ATOM     21  C   UNL     1     -32.816  18.130   1.370  0.00  0.00    +0.231 C 
BRANCH  21  22
ATOM     22  C   UNL     1     -31.542  18.085   0.585  0.00  0.00    +0.012 C 
ATOM     23  C   UNL     1     -30.945  19.085  -0.091  0.00  0.00    -0.044 C 
ATOM     24  C   UNL     1     -29.658  18.839  -0.832  0.00  0.00    +0.026 C 
ATOM     25  C   UNL     1     -31.454  20.496  -0.188  0.00  0.00    +0.026 C 
ENDBRANCH  21  22
ENDBRANCH  20  21
ENDBRANCH  14  20
ENDBRANCH   3  12
BRANCH   6  26
ATOM     26  O   UNL     1     -35.740  20.960   4.909  0.00  0.00    -0.501 OA
ATOM     27  H   UNL     1     -36.618  20.894   5.231  0.00  0.00    +0.292 HD
ENDBRANCH   6  26
BRANCH  10  28
ATOM     28  O   UNL     1     -33.328  27.865   5.215  0.00  0.00    -0.503 OA
ATOM     29  H   UNL     1     -33.468  27.894   6.142  0.00  0.00    +0.292 HD
ENDBRANCH  10  28
BRANCH  11  30
ATOM     30  O   UNL     1     -33.168  27.854   2.443  0.00  0.00    -0.503 OA
ATOM     31  H   UNL     1     -33.169  28.689   2.865  0.00  0.00    +0.292 HD
ENDBRANCH  11  30
TORSDOF 8
ENDMDL
MODEL 5
REMARK VINA RESULT:      -6.7      2.377      7.833
REMARK  Name = 5487011
REMARK  8 active torsions:
REMARK  status: ('A' for Active; 'I' for Inactive)
REMARK    1  A    between atoms: C_3  and  C_12
REMARK    2  A    between atoms: C_6  and  O_26
REMARK    3  A    between atoms: C_10  and  O_28
REMARK    4  A    between atoms: C_11  and  O_30
REMARK    5  A    between atoms: C_14  and  O_20
REMARK    6  A    between atoms: C_16  and  O_18
REMARK    7  A    between atoms: O_20  and  C_21
REMARK    8  A    between atoms: C_21  and  C_22
REMARK                            x       y       z     vdW  Elec       q    Type
REMARK                         _______ _______ _______ _____ _____    ______ ____
ROOT
ATOM      1  O   UNL     1     -34.813  23.760   3.521  0.00  0.00    -0.450 OA
ATOM      2  O   UNL     1     -38.833  24.355   3.227  0.00  0.00    -0.283 OA
ATOM      3  C   UNL     1     -35.414  24.905   4.021  0.00  0.00    +0.182 A 
ATOM      4  C   UNL     1     -36.986  22.953   2.799  0.00  0.00    +0.080 A 
ATOM      5  C   UNL     1     -35.606  22.812   2.928  0.00  0.00    +0.152 A 
ATOM      6  C   UNL     1     -36.731  25.168   3.953  0.00  0.00    +0.208 A 
ATOM      7  C   UNL     1     -37.627  24.172   3.317  0.00  0.00    +0.235 A 
ATOM      8  C   UNL     1     -37.743  21.954   2.184  0.00  0.00    +0.046 C 
ATOM      9  C   UNL     1     -34.974  21.667   2.442  0.00  0.00    +0.077 C 
ATOM     10  C   UNL     1     -37.108  20.810   1.700  0.00  0.00    +0.168 C 
ATOM     11  C   UNL     1     -35.726  20.666   1.828  0.00  0.00    +0.171 C 
ENDROOT
BRANCH   3  12
ATOM     12  C   UNL     1     -34.450  25.840   4.630  0.00  0.00    +0.041 C 
ATOM     13  C   UNL     1     -33.800  26.787   3.839  0.00  0.00    +0.043 C 
ATOM     14  C   UNL     1     -32.888  27.670   4.414  0.00  0.00    +0.173 C 
ATOM     15  C   UNL     1     -34.186  25.778   5.998  0.00  0.00    +0.006 C 
ATOM     16  C   UNL     1     -32.624  27.608   5.783  0.00  0.00    +0.168 C 
ATOM     17  C   UNL     1     -33.273  26.661   6.575  0.00  0.00    +0.040 C 
BRANCH  16  18
ATOM     18  O   UNL     1     -31.737  28.466   6.357  0.00  0.00    -0.503 OA
ATOM     19  H   UNL     1     -30.926  28.144   6.698  0.00  0.00    +0.292 HD
ENDBRANCH  16  18
BRANCH  14  20
ATOM     20  O   UNL     1     -32.259  28.592   3.631  0.00  0.00    -0.468 OA
BRANCH  20  21
ATOM     21  C   UNL     1     -32.886  28.924   2.393  0.00  0.00    +0.231 C 
BRANCH  21  22
ATOM     22  C   UNL     1     -32.903  30.412   2.228  0.00  0.00    +0.012 C 
ATOM     23  C   UNL     1     -33.900  31.269   2.516  0.00  0.00    -0.044 C 
ATOM     24  C   UNL     1     -33.728  32.745   2.272  0.00  0.00    +0.026 C 
ATOM     25  C   UNL     1     -35.237  30.891   3.087  0.00  0.00    +0.026 C 
ENDBRANCH  21  22
ENDBRANCH  20  21
ENDBRANCH  14  20
ENDBRANCH   3  12
BRANCH   6  26
ATOM     26  O   UNL     1     -37.293  26.332   4.431  0.00  0.00    -0.501 OA
ATOM     27  H   UNL     1     -36.788  27.122   4.451  0.00  0.00    +0.292 HD
ENDBRANCH   6  26
BRANCH  10  28
ATOM     28  O   UNL     1     -37.850  19.836   1.101  0.00  0.00    -0.503 OA
ATOM     29  H   UNL     1     -38.773  19.785   1.261  0.00  0.00    +0.292 HD
ENDBRANCH  10  28
BRANCH  11  30
ATOM     30  O   UNL     1     -35.100  19.552   1.358  0.00  0.00    -0.503 OA
ATOM     31  H   UNL     1     -34.678  19.570   0.522  0.00  0.00    +0.292 HD
ENDBRANCH  11  30
TORSDOF 8
ENDMDL
MODEL 6
REMARK VINA RESULT:      -6.6      2.257      2.906
REMARK  Name = 5487011
REMARK  8 active torsions:
REMARK  status: ('A' for Active; 'I' for Inactive)
REMARK    1  A    between atoms: C_3  and  C_12
REMARK    2  A    between atoms: C_6  and  O_26
REMARK    3  A    between atoms: C_10  and  O_28
REMARK    4  A    between atoms: C_11  and  O_30
REMARK    5  A    between atoms: C_14  and  O_20
REMARK    6  A    between atoms: C_16  and  O_18
REMARK    7  A    between atoms: O_20  and  C_21
REMARK    8  A    between atoms: C_21  and  C_22
REMARK                            x       y       z     vdW  Elec       q    Type
REMARK                         _______ _______ _______ _____ _____    ______ ____
ROOT
ATOM      1  O   UNL     1     -34.577  25.355   4.213  0.00  0.00    -0.450 OA
ATOM      2  O   UNL     1     -32.890  27.530   1.209  0.00  0.00    -0.283 OA
ATOM      3  C   UNL     1     -34.850  25.084   2.881  0.00  0.00    +0.182 A 
ATOM      4  C   UNL     1     -33.096  27.152   3.527  0.00  0.00    +0.080 A 
ATOM      5  C   UNL     1     -33.708  26.374   4.507  0.00  0.00    +0.152 A 
ATOM      6  C   UNL     1     -34.335  25.764   1.842  0.00  0.00    +0.208 A 
ATOM      7  C   UNL     1     -33.392  26.877   2.113  0.00  0.00    +0.235 A 
ATOM      8  C   UNL     1     -32.219  28.179   3.887  0.00  0.00    +0.046 C 
ATOM      9  C   UNL     1     -33.446  26.617   5.856  0.00  0.00    +0.077 C 
ATOM     10  C   UNL     1     -31.959  28.419   5.236  0.00  0.00    +0.168 C 
ATOM     11  C   UNL     1     -32.570  27.641   6.219  0.00  0.00    +0.171 C 
ENDROOT
BRANCH   3  12
ATOM     12  C   UNL     1     -35.799  23.968   2.705  0.00  0.00    +0.041 C 
ATOM     13  C   UNL     1     -35.324  22.665   2.556  0.00  0.00    +0.043 C 
ATOM     14  C   UNL     1     -36.221  21.611   2.389  0.00  0.00    +0.173 C 
ATOM     15  C   UNL     1     -37.171  24.216   2.688  0.00  0.00    +0.006 C 
ATOM     16  C   UNL     1     -37.594  21.858   2.371  0.00  0.00    +0.168 C 
ATOM     17  C   UNL     1     -38.069  23.161   2.520  0.00  0.00    +0.040 C 
BRANCH  16  18
ATOM     18  O   UNL     1     -38.480  20.837   2.211  0.00  0.00    -0.503 OA
ATOM     19  H   UNL     1     -39.019  20.800   1.445  0.00  0.00    +0.292 HD
ENDBRANCH  16  18
BRANCH  14  20
ATOM     20  O   UNL     1     -35.746  20.342   2.244  0.00  0.00    -0.468 OA
BRANCH  20  21
ATOM     21  C   UNL     1     -35.131  20.018   0.999  0.00  0.00    +0.231 C 
BRANCH  21  22
ATOM     22  C   UNL     1     -33.999  19.067   1.234  0.00  0.00    +0.012 C 
ATOM     23  C   UNL     1     -32.714  19.192   0.853  0.00  0.00    -0.044 C 
ATOM     24  C   UNL     1     -31.716  18.115   1.182  0.00  0.00    +0.026 C 
ATOM     25  C   UNL     1     -32.139  20.356   0.096  0.00  0.00    +0.026 C 
ENDBRANCH  21  22
ENDBRANCH  20  21
ENDBRANCH  14  20
ENDBRANCH   3  12
BRANCH   6  26
ATOM     26  O   UNL     1     -34.653  25.490   0.529  0.00  0.00    -0.501 OA
ATOM     27  H   UNL     1     -34.761  26.192  -0.083  0.00  0.00    +0.292 HD
ENDBRANCH   6  26
BRANCH  10  28
ATOM     28  O   UNL     1     -31.102  29.421   5.583  0.00  0.00    -0.503 OA
ATOM     29  H   UNL     1     -30.848  29.530   6.479  0.00  0.00    +0.292 HD
ENDBRANCH  10  28
BRANCH  11  30
ATOM     30  O   UNL     1     -32.321  27.870   7.538  0.00  0.00    -0.503 OA
ATOM     31  H   UNL     1     -31.504  28.244   7.802  0.00  0.00    +0.292 HD
ENDBRANCH  11  30
TORSDOF 8
ENDMDL
MODEL 7
REMARK VINA RESULT:      -6.6      2.780      4.826
REMARK  Name = 5487011
REMARK  8 active torsions:
REMARK  status: ('A' for Active; 'I' for Inactive)
REMARK    1  A    between atoms: C_3  and  C_12
REMARK    2  A    between atoms: C_6  and  O_26
REMARK    3  A    between atoms: C_10  and  O_28
REMARK    4  A    between atoms: C_11  and  O_30
REMARK    5  A    between atoms: C_14  and  O_20
REMARK    6  A    between atoms: C_16  and  O_18
REMARK    7  A    between atoms: O_20  and  C_21
REMARK    8  A    between atoms: C_21  and  C_22
REMARK                            x       y       z     vdW  Elec       q    Type
REMARK                         _______ _______ _______ _____ _____    ______ ____
ROOT
ATOM      1  O   UNL     1     -38.741  24.627   2.818  0.00  0.00    -0.450 OA
ATOM      2  O   UNL     1     -37.121  27.559   0.498  0.00  0.00    -0.283 OA
ATOM      3  C   UNL     1     -37.373  24.847   2.780  0.00  0.00    +0.182 A 
ATOM      4  C   UNL     1     -39.063  26.452   1.250  0.00  0.00    +0.080 A 
ATOM      5  C   UNL     1     -39.553  25.431   2.061  0.00  0.00    +0.152 A 
ATOM      6  C   UNL     1     -36.772  25.790   2.033  0.00  0.00    +0.208 A 
ATOM      7  C   UNL     1     -37.611  26.682   1.196  0.00  0.00    +0.235 A 
ATOM      8  C   UNL     1     -39.939  27.240   0.499  0.00  0.00    +0.046 C 
ATOM      9  C   UNL     1     -40.926  25.191   2.127  0.00  0.00    +0.077 C 
ATOM     10  C   UNL     1     -41.311  26.998   0.568  0.00  0.00    +0.168 C 
ATOM     11  C   UNL     1     -41.805  25.976   1.380  0.00  0.00    +0.171 C 
ENDROOT
BRANCH   3  12
ATOM     12  C   UNL     1     -36.617  23.914   3.637  0.00  0.00    +0.041 C 
ATOM     13  C   UNL     1     -36.283  22.646   3.163  0.00  0.00    +0.043 C 
ATOM     14  C   UNL     1     -35.570  21.764   3.974  0.00  0.00    +0.173 C 
ATOM     15  C   UNL     1     -36.237  24.300   4.922  0.00  0.00    +0.006 C 
ATOM     16  C   UNL     1     -35.190  22.149   5.259  0.00  0.00    +0.168 C 
ATOM     17  C   UNL     1     -35.524  23.418   5.733  0.00  0.00    +0.040 C 
BRANCH  16  18
ATOM     18  O   UNL     1     -34.491  21.298   6.059  0.00  0.00    -0.503 OA
ATOM     19  H   UNL     1     -34.198  21.581   6.903  0.00  0.00    +0.292 HD
ENDBRANCH  16  18
BRANCH  14  20
ATOM     20  O   UNL     1     -35.248  20.527   3.499  0.00  0.00    -0.468 OA
BRANCH  20  21
ATOM     21  C   UNL     1     -35.129  20.387   2.085  0.00  0.00    +0.231 C 
BRANCH  21  22
ATOM     22  C   UNL     1     -34.031  19.418   1.771  0.00  0.00    +0.012 C 
ATOM     23  C   UNL     1     -32.992  19.581   0.931  0.00  0.00    -0.044 C 
ATOM     24  C   UNL     1     -31.986  18.478   0.744  0.00  0.00    +0.026 C 
ATOM     25  C   UNL     1     -32.715  20.814   0.118  0.00  0.00    +0.026 C 
ENDBRANCH  21  22
ENDBRANCH  20  21
ENDBRANCH  14  20
ENDBRANCH   3  12
BRANCH   6  26
ATOM     26  O   UNL     1     -35.405  25.962   1.993  0.00  0.00    -0.501 OA
ATOM     27  H   UNL     1     -34.841  25.322   2.382  0.00  0.00    +0.292 HD
ENDBRANCH   6  26
BRANCH  10  28
ATOM     28  O   UNL     1     -42.163  27.769  -0.165  0.00  0.00    -0.503 OA
ATOM     29  H   UNL     1     -42.023  27.875  -1.086  0.00  0.00    +0.292 HD
ENDBRANCH  10  28
BRANCH  11  30
ATOM     30  O   UNL     1     -43.143  25.734   1.451  0.00  0.00    -0.503 OA
ATOM     31  H   UNL     1     -43.457  24.854   1.509  0.00  0.00    +0.292 HD
ENDBRANCH  11  30
TORSDOF 8
ENDMDL
MODEL 8
REMARK VINA RESULT:      -6.6      2.688      8.047
REMARK  Name = 5487011
REMARK  8 active torsions:
REMARK  status: ('A' for Active; 'I' for Inactive)
REMARK    1  A    between atoms: C_3  and  C_12
REMARK    2  A    between atoms: C_6  and  O_26
REMARK    3  A    between atoms: C_10  and  O_28
REMARK    4  A    between atoms: C_11  and  O_30
REMARK    5  A    between atoms: C_14  and  O_20
REMARK    6  A    between atoms: C_16  and  O_18
REMARK    7  A    between atoms: O_20  and  C_21
REMARK    8  A    between atoms: C_21  and  C_22
REMARK                            x       y       z     vdW  Elec       q    Type
REMARK                         _______ _______ _______ _____ _____    ______ ____
ROOT
ATOM      1  O   UNL     1     -36.430  22.552   2.480  0.00  0.00    -0.450 OA
ATOM      2  O   UNL     1     -40.440  23.138   2.060  0.00  0.00    -0.283 OA
ATOM      3  C   UNL     1     -37.086  23.573   3.150  0.00  0.00    +0.182 A 
ATOM      4  C   UNL     1     -38.537  21.868   1.489  0.00  0.00    +0.080 A 
ATOM      5  C   UNL     1     -37.164  21.723   1.673  0.00  0.00    +0.152 A 
ATOM      6  C   UNL     1     -38.403  23.827   3.052  0.00  0.00    +0.208 A 
ATOM      7  C   UNL     1     -39.237  22.957   2.187  0.00  0.00    +0.235 A 
ATOM      8  C   UNL     1     -39.234  20.992   0.652  0.00  0.00    +0.046 C 
ATOM      9  C   UNL     1     -36.477  20.699   1.019  0.00  0.00    +0.077 C 
ATOM     10  C   UNL     1     -38.544  19.970   0.000  0.00  0.00    +0.168 C 
ATOM     11  C   UNL     1     -37.169  19.822   0.183  0.00  0.00    +0.171 C 
ENDROOT
BRANCH   3  12
ATOM     12  C   UNL     1     -36.182  24.388   3.982  0.00  0.00    +0.041 C 
ATOM     13  C   UNL     1     -35.921  25.714   3.636  0.00  0.00    +0.043 C 
ATOM     14  C   UNL     1     -35.065  26.485   4.422  0.00  0.00    +0.173 C 
ATOM     15  C   UNL     1     -35.586  23.834   5.114  0.00  0.00    +0.006 C 
ATOM     16  C   UNL     1     -34.469  25.930   5.554  0.00  0.00    +0.168 C 
ATOM     17  C   UNL     1     -34.729  24.604   5.900  0.00  0.00    +0.040 C 
BRANCH  16  18
ATOM     18  O   UNL     1     -33.632  26.673   6.331  0.00  0.00    -0.503 OA
ATOM     19  H   UNL     1     -33.776  26.728   7.255  0.00  0.00    +0.292 HD
ENDBRANCH  16  18
BRANCH  14  20
ATOM     20  O   UNL     1     -34.818  27.780   4.074  0.00  0.00    -0.468 OA
BRANCH  20  21
ATOM     21  C   UNL     1     -34.593  28.047   2.691  0.00  0.00    +0.231 C 
BRANCH  21  22
ATOM     22  C   UNL     1     -35.486  29.165   2.249  0.00  0.00    +0.012 C 
ATOM     23  C   UNL     1     -35.365  30.480   2.512  0.00  0.00    -0.044 C 
ATOM     24  C   UNL     1     -36.377  31.458   1.979  0.00  0.00    +0.026 C 
ATOM     25  C   UNL     1     -34.268  31.109   3.324  0.00  0.00    +0.026 C 
ENDBRANCH  21  22
ENDBRANCH  20  21
ENDBRANCH  14  20
ENDBRANCH   3  12
BRANCH   6  26
ATOM     26  O   UNL     1     -39.020  24.871   3.706  0.00  0.00    -0.501 OA
ATOM     27  H   UNL     1     -38.744  25.753   3.546  0.00  0.00    +0.292 HD
ENDBRANCH   6  26
BRANCH  10  28
ATOM     28  O   UNL     1     -39.227  19.118  -0.816  0.00  0.00    -0.503 OA
ATOM     29  H   UNL     1     -39.017  19.073  -1.728  0.00  0.00    +0.292 HD
ENDBRANCH  10  28
BRANCH  11  30
ATOM     30  O   UNL     1     -36.489  18.826  -0.450  0.00  0.00    -0.503 OA
ATOM     31  H   UNL     1     -35.769  19.034  -1.012  0.00  0.00    +0.292 HD
ENDBRANCH  11  30
TORSDOF 8
ENDMDL
MODEL 9
REMARK VINA RESULT:      -6.5      2.051      2.219
REMARK  Name = 5487011
REMARK  8 active torsions:
REMARK  status: ('A' for Active; 'I' for Inactive)
REMARK    1  A    between atoms: C_3  and  C_12
REMARK    2  A    between atoms: C_6  and  O_26
REMARK    3  A    between atoms: C_10  and  O_28
REMARK    4  A    between atoms: C_11  and  O_30
REMARK    5  A    between atoms: C_14  and  O_20
REMARK    6  A    between atoms: C_16  and  O_18
REMARK    7  A    between atoms: O_20  and  C_21
REMARK    8  A    between atoms: C_21  and  C_22
REMARK                            x       y       z     vdW  Elec       q    Type
REMARK                         _______ _______ _______ _____ _____    ______ ____
ROOT
ATOM      1  O   UNL     1     -33.238  25.516   2.495  0.00  0.00    -0.450 OA
ATOM      2  O   UNL     1     -35.018  29.093   3.293  0.00  0.00    -0.283 OA
ATOM      3  C   UNL     1     -34.290  25.617   3.392  0.00  0.00    +0.182 A 
ATOM      4  C   UNL     1     -33.375  27.906   2.089  0.00  0.00    +0.080 A 
ATOM      5  C   UNL     1     -32.807  26.653   1.863  0.00  0.00    +0.152 A 
ATOM      6  C   UNL     1     -34.918  26.763   3.707  0.00  0.00    +0.208 A 
ATOM      7  C   UNL     1     -34.484  28.020   3.049  0.00  0.00    +0.235 A 
ATOM      8  C   UNL     1     -32.894  29.031   1.416  0.00  0.00    +0.046 C 
ATOM      9  C   UNL     1     -31.752  26.519   0.960  0.00  0.00    +0.077 C 
ATOM     10  C   UNL     1     -31.839  28.893   0.513  0.00  0.00    +0.168 C 
ATOM     11  C   UNL     1     -31.269  27.640   0.285  0.00  0.00    +0.171 C 
ENDROOT
BRANCH   3  12
ATOM     12  C   UNL     1     -34.652  24.323   4.000  0.00  0.00    +0.041 C 
ATOM     13  C   UNL     1     -35.173  23.300   3.208  0.00  0.00    +0.043 C 
ATOM     14  C   UNL     1     -35.515  22.077   3.784  0.00  0.00    +0.173 C 
ATOM     15  C   UNL     1     -34.474  24.122   5.369  0.00  0.00    +0.006 C 
ATOM     16  C   UNL     1     -35.337  21.876   5.153  0.00  0.00    +0.168 C 
ATOM     17  C   UNL     1     -34.817  22.899   5.946  0.00  0.00    +0.040 C 
BRANCH  16  18
ATOM     18  O   UNL     1     -35.666  20.686   5.727  0.00  0.00    -0.503 OA
ATOM     19  H   UNL     1     -36.346  20.159   5.357  0.00  0.00    +0.292 HD
ENDBRANCH  16  18
BRANCH  14  20
ATOM     20  O   UNL     1     -36.022  21.084   3.000  0.00  0.00    -0.468 OA
BRANCH  20  21
ATOM     21  C   UNL     1     -35.426  20.904   1.717  0.00  0.00    +0.231 C 
BRANCH  21  22
ATOM     22  C   UNL     1     -34.232  20.010   1.844  0.00  0.00    +0.012 C 
ATOM     23  C   UNL     1     -33.904  18.948   1.085  0.00  0.00    -0.044 C 
ATOM     24  C   UNL     1     -32.653  18.163   1.376  0.00  0.00    +0.026 C 
ATOM     25  C   UNL     1     -34.694  18.436  -0.086  0.00  0.00    +0.026 C 
ENDBRANCH  21  22
ENDBRANCH  20  21
ENDBRANCH  14  20
ENDBRANCH   3  12
BRANCH   6  26
ATOM     26  O   UNL     1     -35.941  26.835   4.627  0.00  0.00    -0.501 OA
ATOM     27  H   UNL     1     -36.833  26.832   4.338  0.00  0.00    +0.292 HD
ENDBRANCH   6  26
BRANCH  10  28
ATOM     28  O   UNL     1     -31.372  29.993  -0.142  0.00  0.00    -0.503 OA
ATOM     29  H   UNL     1     -31.030  29.911  -1.011  0.00  0.00    +0.292 HD
ENDBRANCH  10  28
BRANCH  11  30
ATOM     30  O   UNL     1     -30.239  27.498  -0.595  0.00  0.00    -0.503 OA
ATOM     31  H   UNL     1     -29.991  28.214  -1.145  0.00  0.00    +0.292 HD
ENDBRANCH  11  30
TORSDOF 8
ENDMDL
