MODEL 1
REMARK VINA RESULT:      -7.2      0.000      0.000
REMARK  Name = 21574192
REMARK  5 active torsions:
REMARK  status: ('A' for Active; 'I' for Inactive)
REMARK    1  A    between atoms: C_7  and  C_32
REMARK    2  A    between atoms: C_10  and  O_28
REMARK    3  A    between atoms: C_26  and  O_30
REMARK    4  A    between atoms: C_32  and  C_33
REMARK    5  A    between atoms: C_38  and  O_39
REMARK                            x       y       z     vdW  Elec       q    Type
REMARK                         _______ _______ _______ _____ _____    ______ ____
ROOT
ATOM      1  O   UNL     1     -35.889  20.914   1.203  0.00  0.00    -0.443 OA
ATOM      2  O   UNL     1     -38.743  20.520   0.606  0.00  0.00    -0.271 OA
ATOM      3  O   UNL     1     -33.859  21.826   0.550  0.00  0.00    -0.245 OA
ATOM      4  N   UNL     1     -38.519  22.311   2.061  0.00  0.00    -0.303 N 
ATOM      5  C   UNL     1     -36.552  23.324   1.257  0.00  0.00    +0.068 C 
ATOM      6  C   UNL     1     -36.723  21.922   0.584  0.00  0.00    +0.211 C 
ATOM      7  C   UNL     1     -37.540  23.293   2.440  0.00  0.00    +0.080 C 
ATOM      8  C   UNL     1     -36.764  24.487   0.239  0.00  0.00    +0.026 C 
ATOM      9  C   UNL     1     -36.579  21.962  -0.961  0.00  0.00    +0.098 C 
ATOM     10  C   UNL     1     -37.616  22.928  -1.595  0.00  0.00    +0.137 C 
ATOM     11  C   UNL     1     -38.111  21.473   1.038  0.00  0.00    +0.259 C 
ATOM     12  C   UNL     1     -37.879  24.152  -0.735  0.00  0.00    -0.018 C 
ATOM     13  C   UNL     1     -36.832  25.866   0.908  0.00  0.00    +0.005 C 
ATOM     14  C   UNL     1     -36.646  20.598  -1.627  0.00  0.00    -0.024 C 
ATOM     15  C   UNL     1     -39.041  24.818  -0.839  0.00  0.00    -0.007 C 
ATOM     16  C   UNL     1     -35.589  20.008  -2.207  0.00  0.00    -0.030 C 
ATOM     17  C   UNL     1     -34.538  20.952   1.061  0.00  0.00    +0.341 C 
ATOM     18  C   UNL     1     -35.626  18.668  -2.888  0.00  0.00    +0.026 C 
ATOM     19  C   UNL     1     -34.635  17.652  -2.272  0.00  0.00    +0.004 C 
ATOM     20  C   UNL     1     -34.029  19.664   1.565  0.00  0.00    +0.080 C 
ATOM     21  C   UNL     1     -35.112  17.185  -0.878  0.00  0.00    +0.000 C 
ATOM     22  C   UNL     1     -34.180  16.216  -0.135  0.00  0.00    +0.003 C 
ATOM     23  C   UNL     1     -34.468  16.466  -3.228  0.00  0.00    +0.000 C 
ATOM     24  C   UNL     1     -33.031  19.068   0.899  0.00  0.00    +0.009 C 
ATOM     25  C   UNL     1     -32.733  16.668   0.102  0.00  0.00    +0.034 C 
ATOM     26  C   UNL     1     -32.531  17.693   1.230  0.00  0.00    +0.133 C 
ATOM     27  H   UNL     1     -39.403  22.242   2.492  0.00  0.00    +0.149 HD
ENDROOT
BRANCH  10  28
ATOM     28  O   UNL     1     -37.129  23.355  -2.871  0.00  0.00    -0.380 OA
ATOM     29  H   UNL     1     -37.507  22.792  -3.565  0.00  0.00    +0.211 HD
ENDBRANCH  10  28
BRANCH  26  30
ATOM     30  O   UNL     1     -31.131  17.792   1.504  0.00  0.00    -0.380 OA
ATOM     31  H   UNL     1     -30.634  17.304   0.828  0.00  0.00    +0.211 HD
ENDBRANCH  26  30
BRANCH   7  32
ATOM     32  C   UNL     1     -36.866  22.893   3.749  0.00  0.00    +0.046 C 
BRANCH  32  33
ATOM     33  C   UNL     1     -35.998  23.997   4.286  0.00  0.00    -0.020 C 
ATOM     34  C   UNL     1     -36.582  25.126   4.859  0.00  0.00    -0.001 C 
ATOM     35  C   UNL     1     -34.609  23.891   4.214  0.00  0.00    -0.001 C 
ATOM     36  C   UNL     1     -35.777  26.151   5.360  0.00  0.00    +0.036 C 
ATOM     37  C   UNL     1     -33.804  24.915   4.714  0.00  0.00    +0.036 C 
ATOM     38  C   UNL     1     -34.388  26.044   5.287  0.00  0.00    +0.134 C 
BRANCH  38  39
ATOM     39  O   UNL     1     -33.603  27.043   5.774  0.00  0.00    -0.506 OA
ATOM     40  H   UNL     1     -33.212  26.962   6.622  0.00  0.00    +0.292 HD
ENDBRANCH  38  39
ENDBRANCH  32  33
ENDBRANCH   7  32
TORSDOF 5
ENDMDL
MODEL 2
REMARK VINA RESULT:      -7.1      3.373      7.303
REMARK  Name = 21574192
REMARK  5 active torsions:
REMARK  status: ('A' for Active; 'I' for Inactive)
REMARK    1  A    between atoms: C_7  and  C_32
REMARK    2  A    between atoms: C_10  and  O_28
REMARK    3  A    between atoms: C_26  and  O_30
REMARK    4  A    between atoms: C_32  and  C_33
REMARK    5  A    between atoms: C_38  and  O_39
REMARK                            x       y       z     vdW  Elec       q    Type
REMARK                         _______ _______ _______ _____ _____    ______ ____
ROOT
ATOM      1  O   UNL     1     -38.353  25.123   1.961  0.00  0.00    -0.443 OA
ATOM      2  O   UNL     1     -36.632  24.294  -0.278  0.00  0.00    -0.271 OA
ATOM      3  O   UNL     1     -39.709  24.482   3.730  0.00  0.00    -0.245 OA
ATOM      4  N   UNL     1     -35.300  24.773   1.558  0.00  0.00    -0.303 N 
ATOM      5  C   UNL     1     -36.619  23.944   3.323  0.00  0.00    +0.068 C 
ATOM      6  C   UNL     1     -37.472  23.976   2.011  0.00  0.00    +0.211 C 
ATOM      7  C   UNL     1     -35.393  24.819   2.991  0.00  0.00    +0.080 C 
ATOM      8  C   UNL     1     -36.298  22.485   3.772  0.00  0.00    +0.026 C 
ATOM      9  C   UNL     1     -38.203  22.637   1.723  0.00  0.00    +0.098 C 
ATOM     10  C   UNL     1     -37.195  21.461   1.612  0.00  0.00    +0.137 C 
ATOM     11  C   UNL     1     -36.455  24.339   0.931  0.00  0.00    +0.259 C 
ATOM     12  C   UNL     1     -36.024  21.601   2.570  0.00  0.00    -0.018 C 
ATOM     13  C   UNL     1     -35.278  22.421   4.916  0.00  0.00    +0.005 C 
ATOM     14  C   UNL     1     -39.112  22.675   0.507  0.00  0.00    -0.024 C 
ATOM     15  C   UNL     1     -34.852  21.004   2.300  0.00  0.00    -0.007 C 
ATOM     16  C   UNL     1     -40.452  22.623   0.585  0.00  0.00    -0.030 C 
ATOM     17  C   UNL     1     -39.418  25.214   2.799  0.00  0.00    +0.341 C 
ATOM     18  C   UNL     1     -41.378  22.642  -0.598  0.00  0.00    +0.026 C 
ATOM     19  C   UNL     1     -42.383  23.817  -0.558  0.00  0.00    +0.004 C 
ATOM     20  C   UNL     1     -40.241  26.334   2.308  0.00  0.00    +0.080 C 
ATOM     21  C   UNL     1     -41.677  25.164  -0.832  0.00  0.00    +0.000 C 
ATOM     22  C   UNL     1     -42.561  26.418  -0.760  0.00  0.00    +0.003 C 
ATOM     23  C   UNL     1     -43.501  23.560  -1.574  0.00  0.00    +0.000 C 
ATOM     24  C   UNL     1     -41.575  26.200   2.323  0.00  0.00    +0.009 C 
ATOM     25  C   UNL     1     -43.334  26.664   0.542  0.00  0.00    +0.034 C 
ATOM     26  C   UNL     1     -42.505  27.208   1.717  0.00  0.00    +0.133 C 
ATOM     27  H   UNL     1     -34.485  25.029   1.066  0.00  0.00    +0.149 HD
ENDROOT
BRANCH  10  28
ATOM     28  O   UNL     1     -37.880  20.237   1.894  0.00  0.00    -0.380 OA
ATOM     29  H   UNL     1     -37.267  19.614   2.313  0.00  0.00    +0.211 HD
ENDBRANCH  10  28
BRANCH  26  30
ATOM     30  O   UNL     1     -43.405  27.642   2.741  0.00  0.00    -0.380 OA
ATOM     31  H   UNL     1     -43.692  28.551   2.556  0.00  0.00    +0.211 HD
ENDBRANCH  26  30
BRANCH   7  32
ATOM     32  C   UNL     1     -35.562  26.259   3.467  0.00  0.00    +0.046 C 
BRANCH  32  33
ATOM     33  C   UNL     1     -34.438  26.679   4.375  0.00  0.00    -0.020 C 
ATOM     34  C   UNL     1     -33.470  27.571   3.917  0.00  0.00    -0.001 C 
ATOM     35  C   UNL     1     -34.367  26.178   5.675  0.00  0.00    -0.001 C 
ATOM     36  C   UNL     1     -32.428  27.962   4.759  0.00  0.00    +0.036 C 
ATOM     37  C   UNL     1     -33.326  26.569   6.517  0.00  0.00    +0.036 C 
ATOM     38  C   UNL     1     -32.357  27.461   6.059  0.00  0.00    +0.134 C 
BRANCH  38  39
ATOM     39  O   UNL     1     -31.340  27.842   6.880  0.00  0.00    -0.506 OA
ATOM     40  H   UNL     1     -30.981  28.706   6.812  0.00  0.00    +0.292 HD
ENDBRANCH  38  39
ENDBRANCH  32  33
ENDBRANCH   7  32
TORSDOF 5
ENDMDL
MODEL 3
REMARK VINA RESULT:      -7.0      4.829      9.241
REMARK  Name = 21574192
REMARK  5 active torsions:
REMARK  status: ('A' for Active; 'I' for Inactive)
REMARK    1  A    between atoms: C_7  and  C_32
REMARK    2  A    between atoms: C_10  and  O_28
REMARK    3  A    between atoms: C_26  and  O_30
REMARK    4  A    between atoms: C_32  and  C_33
REMARK    5  A    between atoms: C_38  and  O_39
REMARK                            x       y       z     vdW  Elec       q    Type
REMARK                         _______ _______ _______ _____ _____    ______ ____
ROOT
ATOM      1  O   UNL     1     -33.240  27.799   2.331  0.00  0.00    -0.443 OA
ATOM      2  O   UNL     1     -33.314  28.430  -0.543  0.00  0.00    -0.271 OA
ATOM      3  O   UNL     1     -34.218  28.056   4.418  0.00  0.00    -0.245 OA
ATOM      4  N   UNL     1     -34.295  26.356  -0.202  0.00  0.00    -0.303 N 
ATOM      5  C   UNL     1     -35.432  26.705   1.830  0.00  0.00    +0.068 C 
ATOM      6  C   UNL     1     -34.464  27.907   1.567  0.00  0.00    +0.211 C 
ATOM      7  C   UNL     1     -34.959  25.622   0.840  0.00  0.00    +0.080 C 
ATOM      8  C   UNL     1     -36.929  27.125   1.697  0.00  0.00    +0.026 C 
ATOM      9  C   UNL     1     -35.151  29.291   1.715  0.00  0.00    +0.098 C 
ATOM     10  C   UNL     1     -36.357  29.424   0.746  0.00  0.00    +0.137 C 
ATOM     11  C   UNL     1     -33.951  27.650   0.151  0.00  0.00    +0.259 C 
ATOM     12  C   UNL     1     -37.110  28.117   0.564  0.00  0.00    -0.018 C 
ATOM     13  C   UNL     1     -37.891  25.930   1.721  0.00  0.00    +0.005 C 
ATOM     14  C   UNL     1     -34.209  30.472   1.558  0.00  0.00    -0.024 C 
ATOM     15  C   UNL     1     -37.826  27.897  -0.551  0.00  0.00    -0.007 C 
ATOM     16  C   UNL     1     -33.860  31.277   2.575  0.00  0.00    -0.030 C 
ATOM     17  C   UNL     1     -33.253  27.948   3.681  0.00  0.00    +0.341 C 
ATOM     18  C   UNL     1     -32.944  32.462   2.449  0.00  0.00    +0.026 C 
ATOM     19  C   UNL     1     -31.704  32.365   3.369  0.00  0.00    +0.004 C 
ATOM     20  C   UNL     1     -31.844  28.055   4.102  0.00  0.00    +0.080 C 
ATOM     21  C   UNL     1     -30.717  31.291   2.860  0.00  0.00    +0.000 C 
ATOM     22  C   UNL     1     -29.468  31.057   3.723  0.00  0.00    +0.003 C 
ATOM     23  C   UNL     1     -31.032  33.740   3.457  0.00  0.00    +0.000 C 
ATOM     24  C   UNL     1     -31.530  28.938   5.059  0.00  0.00    +0.009 C 
ATOM     25  C   UNL     1     -29.686  30.690   5.197  0.00  0.00    +0.034 C 
ATOM     26  C   UNL     1     -30.117  29.238   5.465  0.00  0.00    +0.133 C 
ATOM     27  H   UNL     1     -34.102  25.973  -1.089  0.00  0.00    +0.149 HD
ENDROOT
BRANCH  10  28
ATOM     28  O   UNL     1     -37.257  30.409   1.262  0.00  0.00    -0.380 OA
ATOM     29  H   UNL     1     -36.960  30.689   2.142  0.00  0.00    +0.211 HD
ENDBRANCH  10  28
BRANCH  26  30
ATOM     30  O   UNL     1     -30.004  28.986   6.869  0.00  0.00    -0.380 OA
ATOM     31  H   UNL     1     -29.215  28.448   7.038  0.00  0.00    +0.211 HD
ENDBRANCH  26  30
BRANCH   7  32
ATOM     32  C   UNL     1     -33.998  24.627   1.484  0.00  0.00    +0.046 C 
BRANCH  32  33
ATOM     33  C   UNL     1     -34.591  24.000   2.716  0.00  0.00    -0.020 C 
ATOM     34  C   UNL     1     -34.191  24.433   3.979  0.00  0.00    -0.001 C 
ATOM     35  C   UNL     1     -35.543  22.988   2.594  0.00  0.00    -0.001 C 
ATOM     36  C   UNL     1     -34.743  23.854   5.122  0.00  0.00    +0.036 C 
ATOM     37  C   UNL     1     -36.095  22.408   3.737  0.00  0.00    +0.036 C 
ATOM     38  C   UNL     1     -35.695  22.842   5.000  0.00  0.00    +0.134 C 
BRANCH  38  39
ATOM     39  O   UNL     1     -36.232  22.276   6.116  0.00  0.00    -0.506 OA
ATOM     40  H   UNL     1     -37.146  22.377   6.301  0.00  0.00    +0.292 HD
ENDBRANCH  38  39
ENDBRANCH  32  33
ENDBRANCH   7  32
TORSDOF 5
ENDMDL
MODEL 4
REMARK VINA RESULT:      -7.0      1.697      2.383
REMARK  Name = 21574192
REMARK  5 active torsions:
REMARK  status: ('A' for Active; 'I' for Inactive)
REMARK    1  A    between atoms: C_7  and  C_32
REMARK    2  A    between atoms: C_10  and  O_28
REMARK    3  A    between atoms: C_26  and  O_30
REMARK    4  A    between atoms: C_32  and  C_33
REMARK    5  A    between atoms: C_38  and  O_39
REMARK                            x       y       z     vdW  Elec       q    Type
REMARK                         _______ _______ _______ _____ _____    ______ ____
ROOT
ATOM      1  O   UNL     1     -34.446  19.610   0.621  0.00  0.00    -0.443 OA
ATOM      2  O   UNL     1     -37.060  18.308   0.259  0.00  0.00    -0.271 OA
ATOM      3  O   UNL     1     -32.804  20.986  -0.267  0.00  0.00    -0.245 OA
ATOM      4  N   UNL     1     -37.355  20.266   1.467  0.00  0.00    -0.303 N 
ATOM      5  C   UNL     1     -35.807  21.698   0.421  0.00  0.00    +0.068 C 
ATOM      6  C   UNL     1     -35.560  20.230  -0.063  0.00  0.00    +0.211 C 
ATOM      7  C   UNL     1     -36.711  21.535   1.660  0.00  0.00    +0.080 C 
ATOM      8  C   UNL     1     -36.385  22.596  -0.716  0.00  0.00    +0.026 C 
ATOM      9  C   UNL     1     -35.472  20.101  -1.607  0.00  0.00    +0.098 C 
ATOM     10  C   UNL     1     -36.768  20.619  -2.287  0.00  0.00    +0.137 C 
ATOM     11  C   UNL     1     -36.736  19.456   0.530  0.00  0.00    +0.259 C 
ATOM     12  C   UNL     1     -37.369  21.815  -1.569  0.00  0.00    -0.018 C 
ATOM     13  C   UNL     1     -36.851  23.969  -0.218  0.00  0.00    +0.005 C 
ATOM     14  C   UNL     1     -35.138  18.701  -2.094  0.00  0.00    -0.024 C 
ATOM     15  C   UNL     1     -38.680  22.085  -1.680  0.00  0.00    -0.007 C 
ATOM     16  C   UNL     1     -33.966  18.379  -2.664  0.00  0.00    -0.030 C 
ATOM     17  C   UNL     1     -33.174  20.028   0.390  0.00  0.00    +0.341 C 
ATOM     18  C   UNL     1     -33.611  17.009  -3.171  0.00  0.00    +0.026 C 
ATOM     19  C   UNL     1     -32.345  16.427  -2.500  0.00  0.00    +0.004 C 
ATOM     20  C   UNL     1     -32.287  19.030   1.015  0.00  0.00    +0.080 C 
ATOM     21  C   UNL     1     -32.625  16.033  -1.032  0.00  0.00    +0.000 C 
ATOM     22  C   UNL     1     -31.426  15.495  -0.236  0.00  0.00    +0.003 C 
ATOM     23  C   UNL     1     -31.849  15.226  -3.312  0.00  0.00    +0.000 C 
ATOM     24  C   UNL     1     -31.171  18.673   0.365  0.00  0.00    +0.009 C 
ATOM     25  C   UNL     1     -30.179  16.385  -0.149  0.00  0.00    +0.034 C 
ATOM     26  C   UNL     1     -30.271  17.567   0.830  0.00  0.00    +0.133 C 
ATOM     27  H   UNL     1     -38.166  19.996   1.958  0.00  0.00    +0.149 HD
ENDROOT
BRANCH  10  28
ATOM     28  O   UNL     1     -36.463  20.994  -3.634  0.00  0.00    -0.380 OA
ATOM     29  H   UNL     1     -35.501  21.036  -3.748  0.00  0.00    +0.211 HD
ENDBRANCH  10  28
BRANCH  26  30
ATOM     30  O   UNL     1     -28.960  18.114   1.000  0.00  0.00    -0.380 OA
ATOM     31  H   UNL     1     -28.709  18.067   1.936  0.00  0.00    +0.211 HD
ENDBRANCH  26  30
BRANCH   7  32
ATOM     32  C   UNL     1     -35.916  21.536   2.963  0.00  0.00    +0.046 C 
BRANCH  32  33
ATOM     33  C   UNL     1     -36.046  22.846   3.691  0.00  0.00    -0.020 C 
ATOM     34  C   UNL     1     -35.158  23.163   4.717  0.00  0.00    -0.001 C 
ATOM     35  C   UNL     1     -37.054  23.743   3.338  0.00  0.00    -0.001 C 
ATOM     36  C   UNL     1     -35.276  24.378   5.392  0.00  0.00    +0.036 C 
ATOM     37  C   UNL     1     -37.173  24.959   4.013  0.00  0.00    +0.036 C 
ATOM     38  C   UNL     1     -36.284  25.276   5.039  0.00  0.00    +0.134 C 
BRANCH  38  39
ATOM     39  O   UNL     1     -36.400  26.461   5.699  0.00  0.00    -0.506 OA
ATOM     40  H   UNL     1     -36.628  27.239   5.228  0.00  0.00    +0.292 HD
ENDBRANCH  38  39
ENDBRANCH  32  33
ENDBRANCH   7  32
TORSDOF 5
ENDMDL
MODEL 5
REMARK VINA RESULT:      -7.0      2.413      7.520
REMARK  Name = 21574192
REMARK  5 active torsions:
REMARK  status: ('A' for Active; 'I' for Inactive)
REMARK    1  A    between atoms: C_7  and  C_32
REMARK    2  A    between atoms: C_10  and  O_28
REMARK    3  A    between atoms: C_26  and  O_30
REMARK    4  A    between atoms: C_32  and  C_33
REMARK    5  A    between atoms: C_38  and  O_39
REMARK                            x       y       z     vdW  Elec       q    Type
REMARK                         _______ _______ _______ _____ _____    ______ ____
ROOT
ATOM      1  O   UNL     1     -35.195  21.429   0.924  0.00  0.00    -0.443 OA
ATOM      2  O   UNL     1     -35.801  21.629  -1.949  0.00  0.00    -0.271 OA
ATOM      3  O   UNL     1     -35.634  20.391   2.950  0.00  0.00    -0.245 OA
ATOM      4  N   UNL     1     -33.927  20.292  -1.667  0.00  0.00    -0.303 N 
ATOM      5  C   UNL     1     -34.483  19.116   0.296  0.00  0.00    +0.068 C 
ATOM      6  C   UNL     1     -35.501  20.287   0.090  0.00  0.00    +0.211 C 
ATOM      7  C   UNL     1     -33.325  19.455  -0.665  0.00  0.00    +0.080 C 
ATOM      8  C   UNL     1     -35.149  17.722   0.076  0.00  0.00    +0.026 C 
ATOM      9  C   UNL     1     -36.982  19.837   0.198  0.00  0.00    +0.098 C 
ATOM     10  C   UNL     1     -37.309  18.729  -0.840  0.00  0.00    +0.137 C 
ATOM     11  C   UNL     1     -35.146  20.830  -1.294  0.00  0.00    +0.259 C 
ATOM     12  C   UNL     1     -36.147  17.777  -1.066  0.00  0.00    -0.018 C 
ATOM     13  C   UNL     1     -34.134  16.572   0.043  0.00  0.00    +0.005 C 
ATOM     14  C   UNL     1     -37.985  20.974   0.096  0.00  0.00    -0.024 C 
ATOM     15  C   UNL     1     -36.039  17.099  -2.220  0.00  0.00    -0.007 C 
ATOM     16  C   UNL     1     -38.730  21.395   1.131  0.00  0.00    -0.030 C 
ATOM     17  C   UNL     1     -35.357  21.365   2.271  0.00  0.00    +0.341 C 
ATOM     18  C   UNL     1     -39.741  22.504   1.060  0.00  0.00    +0.026 C 
ATOM     19  C   UNL     1     -39.445  23.655   2.050  0.00  0.00    +0.004 C 
ATOM     20  C   UNL     1     -35.228  22.744   2.773  0.00  0.00    +0.080 C 
ATOM     21  C   UNL     1     -38.214  24.474   1.599  0.00  0.00    +0.000 C 
ATOM     22  C   UNL     1     -37.780  25.613   2.534  0.00  0.00    +0.003 C 
ATOM     23  C   UNL     1     -40.687  24.544   2.178  0.00  0.00    +0.000 C 
ATOM     24  C   UNL     1     -36.055  23.148   3.747  0.00  0.00    +0.009 C 
ATOM     25  C   UNL     1     -37.470  25.251   3.992  0.00  0.00    +0.034 C 
ATOM     26  C   UNL     1     -36.115  24.566   4.235  0.00  0.00    +0.133 C 
ATOM     27  H   UNL     1     -33.507  20.468  -2.541  0.00  0.00    +0.149 HD
ENDROOT
BRANCH  10  28
ATOM     28  O   UNL     1     -38.437  17.981  -0.377  0.00  0.00    -0.380 OA
ATOM     29  H   UNL     1     -39.253  18.453  -0.606  0.00  0.00    +0.211 HD
ENDBRANCH  10  28
BRANCH  26  30
ATOM     30  O   UNL     1     -35.861  24.554   5.643  0.00  0.00    -0.380 OA
ATOM     31  H   UNL     1     -36.545  25.069   6.099  0.00  0.00    +0.211 HD
ENDBRANCH  26  30
BRANCH   7  32
ATOM     32  C   UNL     1     -32.188  20.194   0.033  0.00  0.00    +0.046 C 
BRANCH  32  33
ATOM     33  C   UNL     1     -30.936  19.363   0.088  0.00  0.00    -0.020 C 
ATOM     34  C   UNL     1     -29.787  19.790  -0.576  0.00  0.00    -0.001 C 
ATOM     35  C   UNL     1     -30.924  18.166   0.806  0.00  0.00    -0.001 C 
ATOM     36  C   UNL     1     -28.625  19.019  -0.524  0.00  0.00    +0.036 C 
ATOM     37  C   UNL     1     -29.762  17.396   0.858  0.00  0.00    +0.036 C 
ATOM     38  C   UNL     1     -28.613  17.823   0.193  0.00  0.00    +0.134 C 
BRANCH  38  39
ATOM     39  O   UNL     1     -27.479  17.072   0.243  0.00  0.00    -0.506 OA
ATOM     40  H   UNL     1     -27.460  16.284   0.752  0.00  0.00    +0.292 HD
ENDBRANCH  38  39
ENDBRANCH  32  33
ENDBRANCH   7  32
TORSDOF 5
ENDMDL
MODEL 6
REMARK VINA RESULT:      -6.9      3.715      8.470
REMARK  Name = 21574192
REMARK  5 active torsions:
REMARK  status: ('A' for Active; 'I' for Inactive)
REMARK    1  A    between atoms: C_7  and  C_32
REMARK    2  A    between atoms: C_10  and  O_28
REMARK    3  A    between atoms: C_26  and  O_30
REMARK    4  A    between atoms: C_32  and  C_33
REMARK    5  A    between atoms: C_38  and  O_39
REMARK                            x       y       z     vdW  Elec       q    Type
REMARK                         _______ _______ _______ _____ _____    ______ ____
ROOT
ATOM      1  O   UNL     1     -33.586  25.712   1.132  0.00  0.00    -0.443 OA
ATOM      2  O   UNL     1     -36.145  25.969  -0.300  0.00  0.00    -0.271 OA
ATOM      3  O   UNL     1     -32.480  25.644   3.169  0.00  0.00    -0.245 OA
ATOM      4  N   UNL     1     -35.614  23.720  -0.105  0.00  0.00    -0.303 N 
ATOM      5  C   UNL     1     -34.662  23.649   2.047  0.00  0.00    +0.068 C 
ATOM      6  C   UNL     1     -34.829  25.141   1.606  0.00  0.00    +0.211 C 
ATOM      7  C   UNL     1     -34.842  22.851   0.740  0.00  0.00    +0.080 C 
ATOM      8  C   UNL     1     -35.641  23.272   3.202  0.00  0.00    +0.026 C 
ATOM      9  C   UNL     1     -35.532  26.021   2.673  0.00  0.00    +0.098 C 
ATOM     10  C   UNL     1     -36.939  25.463   3.021  0.00  0.00    +0.137 C 
ATOM     11  C   UNL     1     -35.622  25.042   0.303  0.00  0.00    +0.259 C 
ATOM     12  C   UNL     1     -36.987  23.945   3.006  0.00  0.00    -0.018 C 
ATOM     13  C   UNL     1     -35.666  21.767   3.500  0.00  0.00    +0.005 C 
ATOM     14  C   UNL     1     -35.619  27.493   2.306  0.00  0.00    -0.024 C 
ATOM     15  C   UNL     1     -38.148  23.305   2.788  0.00  0.00    -0.007 C 
ATOM     16  C   UNL     1     -34.921  28.452   2.934  0.00  0.00    -0.030 C 
ATOM     17  C   UNL     1     -32.565  25.955   1.993  0.00  0.00    +0.341 C 
ATOM     18  C   UNL     1     -34.997  29.917   2.606  0.00  0.00    +0.026 C 
ATOM     19  C   UNL     1     -33.626  30.519   2.217  0.00  0.00    +0.004 C 
ATOM     20  C   UNL     1     -31.583  26.772   1.256  0.00  0.00    +0.080 C 
ATOM     21  C   UNL     1     -33.175  30.022   0.825  0.00  0.00    +0.000 C 
ATOM     22  C   UNL     1     -31.797  30.504   0.348  0.00  0.00    +0.003 C 
ATOM     23  C   UNL     1     -33.716  32.048   2.259  0.00  0.00    +0.000 C 
ATOM     24  C   UNL     1     -30.977  27.777   1.903  0.00  0.00    +0.009 C 
ATOM     25  C   UNL     1     -30.593  30.210   1.253  0.00  0.00    +0.034 C 
ATOM     26  C   UNL     1     -30.074  28.763   1.221  0.00  0.00    +0.133 C 
ATOM     27  H   UNL     1     -36.095  23.402  -0.904  0.00  0.00    +0.149 HD
ENDROOT
BRANCH  10  28
ATOM     28  O   UNL     1     -37.310  25.926   4.323  0.00  0.00    -0.380 OA
ATOM     29  H   UNL     1     -38.134  25.493   4.596  0.00  0.00    +0.211 HD
ENDBRANCH  10  28
BRANCH  26  30
ATOM     30  O   UNL     1     -28.807  28.724   1.884  0.00  0.00    -0.380 OA
ATOM     31  H   UNL     1     -28.494  29.629   2.036  0.00  0.00    +0.211 HD
ENDBRANCH  26  30
BRANCH   7  32
ATOM     32  C   UNL     1     -33.510  22.512   0.078  0.00  0.00    +0.046 C 
BRANCH  32  33
ATOM     33  C   UNL     1     -33.096  21.093   0.358  0.00  0.00    -0.020 C 
ATOM     34  C   UNL     1     -33.965  20.234   1.029  0.00  0.00    -0.001 C 
ATOM     35  C   UNL     1     -31.844  20.637  -0.056  0.00  0.00    -0.001 C 
ATOM     36  C   UNL     1     -33.582  18.917   1.287  0.00  0.00    +0.036 C 
ATOM     37  C   UNL     1     -31.462  19.320   0.202  0.00  0.00    +0.036 C 
ATOM     38  C   UNL     1     -32.331  18.461   0.872  0.00  0.00    +0.134 C 
BRANCH  38  39
ATOM     39  O   UNL     1     -31.957  17.176   1.125  0.00  0.00    -0.506 OA
ATOM     40  H   UNL     1     -31.966  16.541   0.436  0.00  0.00    +0.292 HD
ENDBRANCH  38  39
ENDBRANCH  32  33
ENDBRANCH   7  32
TORSDOF 5
ENDMDL
MODEL 7
REMARK VINA RESULT:      -6.8      3.926      7.834
REMARK  Name = 21574192
REMARK  5 active torsions:
REMARK  status: ('A' for Active; 'I' for Inactive)
REMARK    1  A    between atoms: C_7  and  C_32
REMARK    2  A    between atoms: C_10  and  O_28
REMARK    3  A    between atoms: C_26  and  O_30
REMARK    4  A    between atoms: C_32  and  C_33
REMARK    5  A    between atoms: C_38  and  O_39
REMARK                            x       y       z     vdW  Elec       q    Type
REMARK                         _______ _______ _______ _____ _____    ______ ____
ROOT
ATOM      1  O   UNL     1     -39.627  23.829   0.566  0.00  0.00    -0.443 OA
ATOM      2  O   UNL     1     -39.135  26.662  -0.061  0.00  0.00    -0.271 OA
ATOM      3  O   UNL     1     -40.437  22.270   2.080  0.00  0.00    -0.245 OA
ATOM      4  N   UNL     1     -41.128  26.006  -1.051  0.00  0.00    -0.303 N 
ATOM      5  C   UNL     1     -42.015  24.570   0.590  0.00  0.00    +0.068 C 
ATOM      6  C   UNL     1     -40.526  24.899   0.943  0.00  0.00    +0.211 C 
ATOM      7  C   UNL     1     -42.159  25.021  -0.878  0.00  0.00    +0.080 C 
ATOM      8  C   UNL     1     -43.010  25.231   1.594  0.00  0.00    +0.026 C 
ATOM      9  C   UNL     1     -40.332  25.365   2.410  0.00  0.00    +0.098 C 
ATOM     10  C   UNL     1     -41.187  26.625   2.715  0.00  0.00    +0.137 C 
ATOM     11  C   UNL     1     -40.146  25.973  -0.075  0.00  0.00    +0.259 C 
ATOM     12  C   UNL     1     -42.527  26.612   1.997  0.00  0.00    -0.018 C 
ATOM     13  C   UNL     1     -44.473  25.121   1.148  0.00  0.00    +0.005 C 
ATOM     14  C   UNL     1     -38.883  25.598   2.802  0.00  0.00    -0.024 C 
ATOM     15  C   UNL     1     -43.164  27.763   1.730  0.00  0.00    -0.007 C 
ATOM     16  C   UNL     1     -38.216  24.812   3.662  0.00  0.00    -0.030 C 
ATOM     17  C   UNL     1     -39.649  22.643   1.229  0.00  0.00    +0.341 C 
ATOM     18  C   UNL     1     -36.789  25.024   4.082  0.00  0.00    +0.026 C 
ATOM     19  C   UNL     1     -35.881  23.811   3.769  0.00  0.00    +0.004 C 
ATOM     20  C   UNL     1     -38.453  21.899   0.792  0.00  0.00    +0.080 C 
ATOM     21  C   UNL     1     -35.629  23.683   2.250  0.00  0.00    +0.000 C 
ATOM     22  C   UNL     1     -34.787  22.478   1.804  0.00  0.00    +0.003 C 
ATOM     23  C   UNL     1     -34.566  23.953   4.541  0.00  0.00    +0.000 C 
ATOM     24  C   UNL     1     -37.768  21.200   1.706  0.00  0.00    +0.009 C 
ATOM     25  C   UNL     1     -35.275  21.083   2.217  0.00  0.00    +0.034 C 
ATOM     26  C   UNL     1     -36.460  20.526   1.411  0.00  0.00    +0.133 C 
ATOM     27  H   UNL     1     -41.120  26.649  -1.798  0.00  0.00    +0.149 HD
ENDROOT
BRANCH  10  28
ATOM     28  O   UNL     1     -41.418  26.696   4.125  0.00  0.00    -0.380 OA
ATOM     29  H   UNL     1     -41.198  27.586   4.443  0.00  0.00    +0.211 HD
ENDBRANCH  10  28
BRANCH  26  30
ATOM     30  O   UNL     1     -36.605  19.137   1.723  0.00  0.00    -0.380 OA
ATOM     31  H   UNL     1     -36.058  18.612   1.118  0.00  0.00    +0.211 HD
ENDBRANCH  26  30
BRANCH   7  32
ATOM     32  C   UNL     1     -41.965  23.870  -1.860  0.00  0.00    +0.046 C 
BRANCH  32  33
ATOM     33  C   UNL     1     -42.664  22.621  -1.398  0.00  0.00    -0.020 C 
ATOM     34  C   UNL     1     -44.042  22.630  -1.192  0.00  0.00    -0.001 C 
ATOM     35  C   UNL     1     -41.932  21.453  -1.177  0.00  0.00    -0.001 C 
ATOM     36  C   UNL     1     -44.692  21.471  -0.765  0.00  0.00    +0.036 C 
ATOM     37  C   UNL     1     -42.582  20.294  -0.750  0.00  0.00    +0.036 C 
ATOM     38  C   UNL     1     -43.960  20.303  -0.545  0.00  0.00    +0.134 C 
BRANCH  38  39
ATOM     39  O   UNL     1     -44.594  19.173  -0.127  0.00  0.00    -0.506 OA
ATOM     40  H   UNL     1     -45.131  18.689  -0.723  0.00  0.00    +0.292 HD
ENDBRANCH  38  39
ENDBRANCH  32  33
ENDBRANCH   7  32
TORSDOF 5
ENDMDL
MODEL 8
REMARK VINA RESULT:      -6.6      2.049      2.585
REMARK  Name = 21574192
REMARK  5 active torsions:
REMARK  status: ('A' for Active; 'I' for Inactive)
REMARK    1  A    between atoms: C_7  and  C_32
REMARK    2  A    between atoms: C_10  and  O_28
REMARK    3  A    between atoms: C_26  and  O_30
REMARK    4  A    between atoms: C_32  and  C_33
REMARK    5  A    between atoms: C_38  and  O_39
REMARK                            x       y       z     vdW  Elec       q    Type
REMARK                         _______ _______ _______ _____ _____    ______ ____
ROOT
ATOM      1  O   UNL     1     -37.471  20.824   1.025  0.00  0.00    -0.443 OA
ATOM      2  O   UNL     1     -40.221  21.000   2.058  0.00  0.00    -0.271 OA
ATOM      3  O   UNL     1     -35.987  21.319  -0.688  0.00  0.00    -0.245 OA
ATOM      4  N   UNL     1     -38.958  22.712   2.983  0.00  0.00    -0.303 N 
ATOM      5  C   UNL     1     -37.590  23.318   1.165  0.00  0.00    +0.068 C 
ATOM      6  C   UNL     1     -38.325  21.977   0.833  0.00  0.00    +0.211 C 
ATOM      7  C   UNL     1     -37.781  23.481   2.687  0.00  0.00    +0.080 C 
ATOM      8  C   UNL     1     -38.116  24.500   0.294  0.00  0.00    +0.026 C 
ATOM      9  C   UNL     1     -39.026  21.988  -0.552  0.00  0.00    +0.098 C 
ATOM     10  C   UNL     1     -40.063  23.140  -0.645  0.00  0.00    +0.137 C 
ATOM     11  C   UNL     1     -39.307  21.810   1.992  0.00  0.00    +0.259 C 
ATOM     12  C   UNL     1     -39.617  24.392   0.092  0.00  0.00    -0.018 C 
ATOM     13  C   UNL     1     -37.584  25.865   0.751  0.00  0.00    +0.005 C 
ATOM     14  C   UNL     1     -39.664  20.665  -0.936  0.00  0.00    -0.024 C 
ATOM     15  C   UNL     1     -40.524  25.273   0.543  0.00  0.00    -0.007 C 
ATOM     16  C   UNL     1     -39.197  19.878  -1.919  0.00  0.00    -0.030 C 
ATOM     17  C   UNL     1     -36.422  20.596   0.193  0.00  0.00    +0.341 C 
ATOM     18  C   UNL     1     -39.815  18.573  -2.334  0.00  0.00    +0.026 C 
ATOM     19  C   UNL     1     -38.835  17.381  -2.227  0.00  0.00    +0.004 C 
ATOM     20  C   UNL     1     -35.946  19.232   0.487  0.00  0.00    +0.080 C 
ATOM     21  C   UNL     1     -38.562  17.016  -0.750  0.00  0.00    +0.000 C 
ATOM     22  C   UNL     1     -37.555  15.882  -0.508  0.00  0.00    +0.003 C 
ATOM     23  C   UNL     1     -39.406  16.186  -2.998  0.00  0.00    +0.000 C 
ATOM     24  C   UNL     1     -35.574  18.452  -0.537  0.00  0.00    +0.009 C 
ATOM     25  C   UNL     1     -36.154  16.040  -1.115  0.00  0.00    +0.034 C 
ATOM     26  C   UNL     1     -35.213  17.005  -0.375  0.00  0.00    +0.133 C 
ATOM     27  H   UNL     1     -39.472  22.817   3.817  0.00  0.00    +0.149 HD
ENDROOT
BRANCH  10  28
ATOM     28  O   UNL     1     -40.271  23.464  -2.023  0.00  0.00    -0.380 OA
ATOM     29  H   UNL     1     -39.995  22.715  -2.575  0.00  0.00    +0.211 HD
ENDBRANCH  10  28
BRANCH  26  30
ATOM     30  O   UNL     1     -33.889  16.826  -0.888  0.00  0.00    -0.380 OA
ATOM     31  H   UNL     1     -33.815  15.945  -1.289  0.00  0.00    +0.211 HD
ENDBRANCH  26  30
BRANCH   7  32
ATOM     32  C   UNL     1     -36.589  22.956   3.481  0.00  0.00    +0.046 C 
BRANCH  32  33
ATOM     33  C   UNL     1     -35.749  24.077   4.028  0.00  0.00    -0.020 C 
ATOM     34  C   UNL     1     -34.519  24.375   3.444  0.00  0.00    -0.001 C 
ATOM     35  C   UNL     1     -36.202  24.820   5.119  0.00  0.00    -0.001 C 
ATOM     36  C   UNL     1     -33.740  25.417   3.950  0.00  0.00    +0.036 C 
ATOM     37  C   UNL     1     -35.423  25.861   5.625  0.00  0.00    +0.036 C 
ATOM     38  C   UNL     1     -34.194  26.159   5.040  0.00  0.00    +0.134 C 
BRANCH  38  39
ATOM     39  O   UNL     1     -33.433  27.174   5.534  0.00  0.00    -0.506 OA
ATOM     40  H   UNL     1     -32.770  26.996   6.173  0.00  0.00    +0.292 HD
ENDBRANCH  38  39
ENDBRANCH  32  33
ENDBRANCH   7  32
TORSDOF 5
ENDMDL
MODEL 9
REMARK VINA RESULT:      -6.6      2.865      8.074
REMARK  Name = 21574192
REMARK  5 active torsions:
REMARK  status: ('A' for Active; 'I' for Inactive)
REMARK    1  A    between atoms: C_7  and  C_32
REMARK    2  A    between atoms: C_10  and  O_28
REMARK    3  A    between atoms: C_26  and  O_30
REMARK    4  A    between atoms: C_32  and  C_33
REMARK    5  A    between atoms: C_38  and  O_39
REMARK                            x       y       z     vdW  Elec       q    Type
REMARK                         _______ _______ _______ _____ _____    ______ ____
ROOT
ATOM      1  O   UNL     1     -37.441  24.271   0.959  0.00  0.00    -0.443 OA
ATOM      2  O   UNL     1     -37.656  22.408   3.226  0.00  0.00    -0.271 OA
ATOM      3  O   UNL     1     -37.153  26.458   0.241  0.00  0.00    -0.245 OA
ATOM      4  N   UNL     1     -35.477  22.381   2.434  0.00  0.00    -0.303 N 
ATOM      5  C   UNL     1     -35.150  24.647   1.886  0.00  0.00    +0.068 C 
ATOM      6  C   UNL     1     -36.668  24.400   2.175  0.00  0.00    +0.211 C 
ATOM      7  C   UNL     1     -34.567  23.229   1.715  0.00  0.00    +0.080 C 
ATOM      8  C   UNL     1     -34.481  25.515   2.997  0.00  0.00    +0.026 C 
ATOM      9  C   UNL     1     -37.276  25.420   3.175  0.00  0.00    +0.098 C 
ATOM     10  C   UNL     1     -36.519  25.394   4.530  0.00  0.00    +0.137 C 
ATOM     11  C   UNL     1     -36.704  22.964   2.699  0.00  0.00    +0.259 C 
ATOM     12  C   UNL     1     -35.028  25.152   4.365  0.00  0.00    -0.018 C 
ATOM     13  C   UNL     1     -32.954  25.584   2.866  0.00  0.00    +0.005 C 
ATOM     14  C   UNL     1     -38.770  25.257   3.397  0.00  0.00    -0.024 C 
ATOM     15  C   UNL     1     -34.312  24.617   5.367  0.00  0.00    -0.007 C 
ATOM     16  C   UNL     1     -39.680  26.144   2.964  0.00  0.00    -0.030 C 
ATOM     17  C   UNL     1     -37.645  25.346   0.153  0.00  0.00    +0.341 C 
ATOM     18  C   UNL     1     -41.162  26.021   3.181  0.00  0.00    +0.026 C 
ATOM     19  C   UNL     1     -41.966  26.005   1.859  0.00  0.00    +0.004 C 
ATOM     20  C   UNL     1     -38.675  24.946  -0.823  0.00  0.00    +0.080 C 
ATOM     21  C   UNL     1     -41.761  24.675   1.100  0.00  0.00    +0.000 C 
ATOM     22  C   UNL     1     -42.462  24.558  -0.262  0.00  0.00    +0.003 C 
ATOM     23  C   UNL     1     -43.447  26.247   2.166  0.00  0.00    +0.000 C 
ATOM     24  C   UNL     1     -39.618  25.838  -1.156  0.00  0.00    +0.009 C 
ATOM     25  C   UNL     1     -42.152  25.634  -1.311  0.00  0.00    +0.034 C 
ATOM     26  C   UNL     1     -40.795  25.500  -2.022  0.00  0.00    +0.133 C 
ATOM     27  H   UNL     1     -35.247  21.464   2.714  0.00  0.00    +0.149 HD
ENDROOT
BRANCH  10  28
ATOM     28  O   UNL     1     -36.714  26.648   5.191  0.00  0.00    -0.380 OA
ATOM     29  H   UNL     1     -37.596  26.991   4.979  0.00  0.00    +0.211 HD
ENDBRANCH  10  28
BRANCH  26  30
ATOM     30  O   UNL     1     -40.783  26.390  -3.142  0.00  0.00    -0.380 OA
ATOM     31  H   UNL     1     -39.940  26.305  -3.614  0.00  0.00    +0.211 HD
ENDBRANCH  26  30
BRANCH   7  32
ATOM     32  C   UNL     1     -34.490  22.807   0.251  0.00  0.00    +0.046 C 
BRANCH  32  33
ATOM     33  C   UNL     1     -33.273  21.966  -0.021  0.00  0.00    -0.020 C 
ATOM     34  C   UNL     1     -32.190  22.512  -0.709  0.00  0.00    -0.001 C 
ATOM     35  C   UNL     1     -33.227  20.643   0.418  0.00  0.00    -0.001 C 
ATOM     36  C   UNL     1     -31.059  21.733  -0.960  0.00  0.00    +0.036 C 
ATOM     37  C   UNL     1     -32.096  19.864   0.167  0.00  0.00    +0.036 C 
ATOM     38  C   UNL     1     -31.013  20.409  -0.521  0.00  0.00    +0.134 C 
BRANCH  38  39
ATOM     39  O   UNL     1     -29.910  19.650  -0.767  0.00  0.00    -0.506 OA
ATOM     40  H   UNL     1     -29.978  18.884  -1.303  0.00  0.00    +0.292 HD
ENDBRANCH  38  39
ENDBRANCH  32  33
ENDBRANCH   7  32
TORSDOF 5
ENDMDL
