MODEL 1
REMARK VINA RESULT:      -5.9      0.000      0.000
REMARK  Name = 191090
REMARK  8 active torsions:
REMARK  status: ('A' for Active; 'I' for Inactive)
REMARK    1  A    between atoms: C_2  and  O_16
REMARK    2  A    between atoms: C_3  and  O_18
REMARK    3  A    between atoms: C_4  and  N_7
REMARK    4  A    between atoms: C_5  and  C_20
REMARK    5  A    between atoms: C_20  and  O_21
REMARK    6  A    between atoms: O_21  and  P_22
REMARK    7  A    between atoms: P_22  and  O_24
REMARK    8  A    between atoms: P_22  and  O_26
REMARK                            x       y       z     vdW  Elec       q    Type
REMARK                         _______ _______ _______ _____ _____    ______ ____
ROOT
ATOM      1  O   UNL     1     -37.063  22.874   4.114  0.00  0.00    -0.333 OA
ATOM      2  C   UNL     1     -36.593  22.329   1.857  0.00  0.00    +0.187 C 
ATOM      3  C   UNL     1     -35.560  21.663   2.741  0.00  0.00    +0.171 C 
ATOM      4  C   UNL     1     -37.701  22.642   2.848  0.00  0.00    +0.229 C 
ATOM      5  C   UNL     1     -35.680  22.464   4.031  0.00  0.00    +0.176 C 
ENDROOT
BRANCH   4   7
ATOM      6  O   UNL     1     -40.437  22.672   1.875  0.00  0.00    -0.251 OA
ATOM      7  N   UNL     1     -38.449  23.811   2.482  0.00  0.00    -0.216 N 
ATOM      8  N   UNL     1     -40.354  24.925   1.710  0.00  0.00    -0.203 N 
ATOM      9  N   UNL     1     -40.572  27.133   1.440  0.00  0.00    -0.227 NA
ATOM     10  C   UNL     1     -39.774  23.688   2.023  0.00  0.00    +0.321 C 
ATOM     11  C   UNL     1     -37.826  25.055   2.597  0.00  0.00    +0.074 C 
ATOM     12  C   UNL     1     -38.427  26.207   2.284  0.00  0.00    +0.051 C 
ATOM     13  C   UNL     1     -39.756  26.168   1.815  0.00  0.00    +0.144 C 
ATOM     14  C   UNL     1     -41.628  25.142   1.240  0.00  0.00    +0.096 C 
ATOM     15  C   UNL     1     -41.734  26.503   1.083  0.00  0.00    +0.117 C 
ENDBRANCH   4   7
BRANCH   2  16
ATOM     16  O   UNL     1     -37.025  21.486   0.808  0.00  0.00    -0.378 OA
ATOM     17  H   UNL     1     -36.681  20.590   0.951  0.00  0.00    +0.211 HD
ENDBRANCH   2  16
BRANCH   3  18
ATOM     18  O   UNL     1     -35.941  20.317   3.022  0.00  0.00    -0.379 OA
ATOM     19  H   UNL     1     -36.146  19.859   2.191  0.00  0.00    +0.211 HD
ENDBRANCH   3  18
BRANCH   5  20
ATOM     20  C   UNL     1     -34.812  23.715   4.046  0.00  0.00    +0.186 C 
BRANCH  20  21
ATOM     21  O   UNL     1     -35.116  24.464   5.210  0.00  0.00    -0.271 OA
BRANCH  21  22
ATOM     22  P   UNL     1     -34.946  26.073   5.160  0.00  0.00    +0.473 P 
ATOM     23  O   UNL     1     -33.870  26.624   6.050  0.00  0.00    -0.227 OA
BRANCH  22  24
ATOM     24  O   UNL     1     -36.438  26.625   5.454  0.00  0.00    -0.303 OA
ATOM     25  H   UNL     1     -36.546  27.497   5.044  0.00  0.00    +0.222 HD
ENDBRANCH  22  24
BRANCH  22  26
ATOM     26  O   UNL     1     -34.744  26.367   3.583  0.00  0.00    -0.303 OA
ATOM     27  H   UNL     1     -33.914  26.852   3.448  0.00  0.00    +0.222 HD
ENDBRANCH  22  26
ENDBRANCH  21  22
ENDBRANCH  20  21
ENDBRANCH   5  20
TORSDOF 8
ENDMDL
MODEL 2
REMARK VINA RESULT:      -5.8      2.152      2.878
REMARK  Name = 191090
REMARK  8 active torsions:
REMARK  status: ('A' for Active; 'I' for Inactive)
REMARK    1  A    between atoms: C_2  and  O_16
REMARK    2  A    between atoms: C_3  and  O_18
REMARK    3  A    between atoms: C_4  and  N_7
REMARK    4  A    between atoms: C_5  and  C_20
REMARK    5  A    between atoms: C_20  and  O_21
REMARK    6  A    between atoms: O_21  and  P_22
REMARK    7  A    between atoms: P_22  and  O_24
REMARK    8  A    between atoms: P_22  and  O_26
REMARK                            x       y       z     vdW  Elec       q    Type
REMARK                         _______ _______ _______ _____ _____    ______ ____
ROOT
ATOM      1  O   UNL     1     -36.760  24.127   4.583  0.00  0.00    -0.333 OA
ATOM      2  C   UNL     1     -35.549  22.168   4.027  0.00  0.00    +0.187 C 
ATOM      3  C   UNL     1     -35.229  22.544   5.458  0.00  0.00    +0.171 C 
ATOM      4  C   UNL     1     -36.834  22.939   3.777  0.00  0.00    +0.229 C 
ATOM      5  C   UNL     1     -35.654  24.006   5.506  0.00  0.00    +0.176 C 
ENDROOT
BRANCH   4   7
ATOM      6  O   UNL     1     -39.348  23.520   2.444  0.00  0.00    -0.251 OA
ATOM      7  N   UNL     1     -36.985  23.319   2.401  0.00  0.00    -0.216 N 
ATOM      8  N   UNL     1     -38.233  23.931   0.521  0.00  0.00    -0.203 N 
ATOM      9  N   UNL     1     -37.418  24.395  -1.508  0.00  0.00    -0.227 NA
ATOM     10  C   UNL     1     -38.267  23.574   1.876  0.00  0.00    +0.321 C 
ATOM     11  C   UNL     1     -35.838  23.426   1.616  0.00  0.00    +0.074 C 
ATOM     12  C   UNL     1     -35.862  23.771   0.325  0.00  0.00    +0.051 C 
ATOM     13  C   UNL     1     -37.107  24.042  -0.277  0.00  0.00    +0.144 C 
ATOM     14  C   UNL     1     -39.310  24.240  -0.277  0.00  0.00    +0.096 C 
ATOM     15  C   UNL     1     -38.781  24.519  -1.514  0.00  0.00    +0.117 C 
ENDBRANCH   4   7
BRANCH   2  16
ATOM     16  O   UNL     1     -35.713  20.773   3.863  0.00  0.00    -0.378 OA
ATOM     17  H   UNL     1     -36.645  20.539   3.998  0.00  0.00    +0.211 HD
ENDBRANCH   2  16
BRANCH   3  18
ATOM     18  O   UNL     1     -36.060  21.816   6.360  0.00  0.00    -0.379 OA
ATOM     19  H   UNL     1     -36.983  21.869   6.065  0.00  0.00    +0.211 HD
ENDBRANCH   3  18
BRANCH   5  20
ATOM     20  C   UNL     1     -34.559  24.967   5.062  0.00  0.00    +0.186 C 
BRANCH  20  21
ATOM     21  O   UNL     1     -35.125  26.255   4.895  0.00  0.00    -0.271 OA
BRANCH  21  22
ATOM     22  P   UNL     1     -35.148  26.903   3.411  0.00  0.00    +0.473 P 
ATOM     23  O   UNL     1     -34.124  26.350   2.463  0.00  0.00    -0.227 OA
BRANCH  22  24
ATOM     24  O   UNL     1     -35.048  28.493   3.686  0.00  0.00    -0.303 OA
ATOM     25  H   UNL     1     -35.348  28.976   2.900  0.00  0.00    +0.222 HD
ENDBRANCH  22  24
BRANCH  22  26
ATOM     26  O   UNL     1     -36.685  26.699   2.951  0.00  0.00    -0.303 OA
ATOM     27  H   UNL     1     -37.193  27.499   3.159  0.00  0.00    +0.222 HD
ENDBRANCH  22  26
ENDBRANCH  21  22
ENDBRANCH  20  21
ENDBRANCH   5  20
TORSDOF 8
ENDMDL
MODEL 3
REMARK VINA RESULT:      -5.8      3.848      6.264
REMARK  Name = 191090
REMARK  8 active torsions:
REMARK  status: ('A' for Active; 'I' for Inactive)
REMARK    1  A    between atoms: C_2  and  O_16
REMARK    2  A    between atoms: C_3  and  O_18
REMARK    3  A    between atoms: C_4  and  N_7
REMARK    4  A    between atoms: C_5  and  C_20
REMARK    5  A    between atoms: C_20  and  O_21
REMARK    6  A    between atoms: O_21  and  P_22
REMARK    7  A    between atoms: P_22  and  O_24
REMARK    8  A    between atoms: P_22  and  O_26
REMARK                            x       y       z     vdW  Elec       q    Type
REMARK                         _______ _______ _______ _____ _____    ______ ____
ROOT
ATOM      1  O   UNL     1     -35.669  21.352   3.358  0.00  0.00    -0.333 OA
ATOM      2  C   UNL     1     -36.867  22.583   1.727  0.00  0.00    +0.187 C 
ATOM      3  C   UNL     1     -37.092  21.106   1.480  0.00  0.00    +0.171 C 
ATOM      4  C   UNL     1     -36.370  22.591   3.162  0.00  0.00    +0.229 C 
ATOM      5  C   UNL     1     -35.931  20.476   2.239  0.00  0.00    +0.176 C 
ENDROOT
BRANCH   4   7
ATOM      6  O   UNL     1     -35.995  23.903   5.725  0.00  0.00    -0.251 OA
ATOM      7  N   UNL     1     -35.472  23.680   3.424  0.00  0.00    -0.216 N 
ATOM      8  N   UNL     1     -34.464  25.282   4.796  0.00  0.00    -0.203 N 
ATOM      9  N   UNL     1     -32.925  26.777   4.168  0.00  0.00    -0.227 NA
ATOM     10  C   UNL     1     -35.385  24.229   4.718  0.00  0.00    +0.321 C 
ATOM     11  C   UNL     1     -34.701  24.168   2.369  0.00  0.00    +0.074 C 
ATOM     12  C   UNL     1     -33.834  25.178   2.499  0.00  0.00    +0.051 C 
ATOM     13  C   UNL     1     -33.690  25.782   3.764  0.00  0.00    +0.144 C 
ATOM     14  C   UNL     1     -34.151  26.021   5.914  0.00  0.00    +0.096 C 
ATOM     15  C   UNL     1     -33.206  26.929   5.499  0.00  0.00    +0.117 C 
ENDBRANCH   4   7
BRANCH   2  16
ATOM     16  O   UNL     1     -38.049  23.340   1.558  0.00  0.00    -0.378 OA
ATOM     17  H   UNL     1     -38.601  23.259   2.351  0.00  0.00    +0.211 HD
ENDBRANCH   2  16
BRANCH   3  18
ATOM     18  O   UNL     1     -38.305  20.679   2.098  0.00  0.00    -0.379 OA
ATOM     19  H   UNL     1     -38.943  21.410   2.099  0.00  0.00    +0.211 HD
ENDBRANCH   3  18
BRANCH   5  20
ATOM     20  C   UNL     1     -34.657  20.369   1.411  0.00  0.00    +0.186 C 
BRANCH  20  21
ATOM     21  O   UNL     1     -33.888  19.285   1.901  0.00  0.00    -0.271 OA
BRANCH  21  22
ATOM     22  P   UNL     1     -33.087  18.363   0.838  0.00  0.00    +0.473 P 
ATOM     23  O   UNL     1     -32.642  19.073  -0.407  0.00  0.00    -0.227 OA
BRANCH  22  24
ATOM     24  O   UNL     1     -34.078  17.106   0.600  0.00  0.00    -0.303 OA
ATOM     25  H   UNL     1     -33.828  16.649  -0.218  0.00  0.00    +0.222 HD
ENDBRANCH  22  24
BRANCH  22  26
ATOM     26  O   UNL     1     -31.895  17.734   1.730  0.00  0.00    -0.303 OA
ATOM     27  H   UNL     1     -32.242  17.003   2.266  0.00  0.00    +0.222 HD
ENDBRANCH  22  26
ENDBRANCH  21  22
ENDBRANCH  20  21
ENDBRANCH   5  20
TORSDOF 8
ENDMDL
MODEL 4
REMARK VINA RESULT:      -5.7      3.302      5.946
REMARK  Name = 191090
REMARK  8 active torsions:
REMARK  status: ('A' for Active; 'I' for Inactive)
REMARK    1  A    between atoms: C_2  and  O_16
REMARK    2  A    between atoms: C_3  and  O_18
REMARK    3  A    between atoms: C_4  and  N_7
REMARK    4  A    between atoms: C_5  and  C_20
REMARK    5  A    between atoms: C_20  and  O_21
REMARK    6  A    between atoms: O_21  and  P_22
REMARK    7  A    between atoms: P_22  and  O_24
REMARK    8  A    between atoms: P_22  and  O_26
REMARK                            x       y       z     vdW  Elec       q    Type
REMARK                         _______ _______ _______ _____ _____    ______ ____
ROOT
ATOM      1  O   UNL     1     -36.950  23.712   3.718  0.00  0.00    -0.333 OA
ATOM      2  C   UNL     1     -38.070  25.382   2.465  0.00  0.00    +0.187 C 
ATOM      3  C   UNL     1     -38.974  24.173   2.577  0.00  0.00    +0.171 C 
ATOM      4  C   UNL     1     -37.077  25.137   3.588  0.00  0.00    +0.229 C 
ATOM      5  C   UNL     1     -37.989  23.071   2.945  0.00  0.00    +0.176 C 
ENDROOT
BRANCH   4   7
ATOM      6  O   UNL     1     -35.367  26.506   5.496  0.00  0.00    -0.251 OA
ATOM      7  N   UNL     1     -35.785  25.696   3.307  0.00  0.00    -0.216 N 
ATOM      8  N   UNL     1     -33.818  26.823   3.880  0.00  0.00    -0.203 N 
ATOM      9  N   UNL     1     -32.115  27.285   2.508  0.00  0.00    -0.227 NA
ATOM     10  C   UNL     1     -35.054  26.337   4.327  0.00  0.00    +0.321 C 
ATOM     11  C   UNL     1     -35.285  25.582   2.010  0.00  0.00    +0.074 C 
ATOM     12  C   UNL     1     -34.095  26.065   1.636  0.00  0.00    +0.051 C 
ATOM     13  C   UNL     1     -33.304  26.723   2.600  0.00  0.00    +0.144 C 
ATOM     14  C   UNL     1     -32.878  27.493   4.628  0.00  0.00    +0.096 C 
ATOM     15  C   UNL     1     -31.846  27.764   3.762  0.00  0.00    +0.117 C 
ENDBRANCH   4   7
BRANCH   2  16
ATOM     16  O   UNL     1     -38.778  26.596   2.621  0.00  0.00    -0.378 OA
ATOM     17  H   UNL     1     -39.191  26.619   3.499  0.00  0.00    +0.211 HD
ENDBRANCH   2  16
BRANCH   3  18
ATOM     18  O   UNL     1     -39.883  24.331   3.665  0.00  0.00    -0.379 OA
ATOM     19  H   UNL     1     -40.576  23.655   3.609  0.00  0.00    +0.211 HD
ENDBRANCH   3  18
BRANCH   5  20
ATOM     20  C   UNL     1     -37.341  22.412   1.734  0.00  0.00    +0.186 C 
BRANCH  20  21
ATOM     21  O   UNL     1     -35.984  22.142   2.037  0.00  0.00    -0.271 OA
BRANCH  21  22
ATOM     22  P   UNL     1     -35.596  20.675   2.603  0.00  0.00    +0.473 P 
ATOM     23  O   UNL     1     -34.405  20.039   1.949  0.00  0.00    -0.227 OA
BRANCH  22  24
ATOM     24  O   UNL     1     -36.978  19.841   2.486  0.00  0.00    -0.303 OA
ATOM     25  H   UNL     1     -37.670  20.413   2.120  0.00  0.00    +0.222 HD
ENDBRANCH  22  24
BRANCH  22  26
ATOM     26  O   UNL     1     -35.448  20.929   4.193  0.00  0.00    -0.303 OA
ATOM     27  H   UNL     1     -34.576  20.622   4.490  0.00  0.00    +0.222 HD
ENDBRANCH  22  26
ENDBRANCH  21  22
ENDBRANCH  20  21
ENDBRANCH   5  20
TORSDOF 8
ENDMDL
MODEL 5
REMARK VINA RESULT:      -5.7      3.229      5.304
REMARK  Name = 191090
REMARK  8 active torsions:
REMARK  status: ('A' for Active; 'I' for Inactive)
REMARK    1  A    between atoms: C_2  and  O_16
REMARK    2  A    between atoms: C_3  and  O_18
REMARK    3  A    between atoms: C_4  and  N_7
REMARK    4  A    between atoms: C_5  and  C_20
REMARK    5  A    between atoms: C_20  and  O_21
REMARK    6  A    between atoms: O_21  and  P_22
REMARK    7  A    between atoms: P_22  and  O_24
REMARK    8  A    between atoms: P_22  and  O_26
REMARK                            x       y       z     vdW  Elec       q    Type
REMARK                         _______ _______ _______ _____ _____    ______ ____
ROOT
ATOM      1  O   UNL     1     -36.017  23.291   1.357  0.00  0.00    -0.333 OA
ATOM      2  C   UNL     1     -36.167  21.847   3.229  0.00  0.00    +0.187 C 
ATOM      3  C   UNL     1     -37.056  21.307   2.129  0.00  0.00    +0.171 C 
ATOM      4  C   UNL     1     -35.251  22.785   2.463  0.00  0.00    +0.229 C 
ATOM      5  C   UNL     1     -37.239  22.529   1.239  0.00  0.00    +0.176 C 
ENDROOT
BRANCH   4   7
ATOM      6  O   UNL     1     -33.556  24.963   1.558  0.00  0.00    -0.251 OA
ATOM      7  N   UNL     1     -34.804  23.889   3.264  0.00  0.00    -0.216 N 
ATOM      8  N   UNL     1     -33.638  25.884   3.620  0.00  0.00    -0.203 N 
ATOM      9  N   UNL     1     -33.532  27.025   5.540  0.00  0.00    -0.227 NA
ATOM     10  C   UNL     1     -33.981  24.884   2.701  0.00  0.00    +0.321 C 
ATOM     11  C   UNL     1     -35.208  23.942   4.598  0.00  0.00    +0.074 C 
ATOM     12  C   UNL     1     -34.851  24.923   5.434  0.00  0.00    +0.051 C 
ATOM     13  C   UNL     1     -34.026  25.956   4.947  0.00  0.00    +0.144 C 
ATOM     14  C   UNL     1     -32.851  26.987   3.382  0.00  0.00    +0.096 C 
ATOM     15  C   UNL     1     -32.803  27.667   4.575  0.00  0.00    +0.117 C 
ENDBRANCH   4   7
BRANCH   2  16
ATOM     16  O   UNL     1     -35.459  20.822   3.897  0.00  0.00    -0.378 OA
ATOM     17  H   UNL     1     -35.120  20.187   3.247  0.00  0.00    +0.211 HD
ENDBRANCH   2  16
BRANCH   3  18
ATOM     18  O   UNL     1     -36.364  20.313   1.375  0.00  0.00    -0.379 OA
ATOM     19  H   UNL     1     -35.989  19.652   1.978  0.00  0.00    +0.211 HD
ENDBRANCH   3  18
BRANCH   5  20
ATOM     20  C   UNL     1     -38.397  23.420   1.668  0.00  0.00    +0.186 C 
BRANCH  20  21
ATOM     21  O   UNL     1     -37.981  24.772   1.596  0.00  0.00    -0.271 OA
BRANCH  21  22
ATOM     22  P   UNL     1     -38.399  25.774   2.797  0.00  0.00    +0.473 P 
ATOM     23  O   UNL     1     -39.645  26.573   2.550  0.00  0.00    -0.227 OA
BRANCH  22  24
ATOM     24  O   UNL     1     -37.059  26.644   3.053  0.00  0.00    -0.303 OA
ATOM     25  H   UNL     1     -37.107  27.060   3.928  0.00  0.00    +0.222 HD
ENDBRANCH  22  24
BRANCH  22  26
ATOM     26  O   UNL     1     -38.458  24.794   4.081  0.00  0.00    -0.303 OA
ATOM     27  H   UNL     1     -37.955  23.985   3.894  0.00  0.00    +0.222 HD
ENDBRANCH  22  26
ENDBRANCH  21  22
ENDBRANCH  20  21
ENDBRANCH   5  20
TORSDOF 8
ENDMDL
MODEL 6
REMARK VINA RESULT:      -5.7      1.829      2.465
REMARK  Name = 191090
REMARK  8 active torsions:
REMARK  status: ('A' for Active; 'I' for Inactive)
REMARK    1  A    between atoms: C_2  and  O_16
REMARK    2  A    between atoms: C_3  and  O_18
REMARK    3  A    between atoms: C_4  and  N_7
REMARK    4  A    between atoms: C_5  and  C_20
REMARK    5  A    between atoms: C_20  and  O_21
REMARK    6  A    between atoms: O_21  and  P_22
REMARK    7  A    between atoms: P_22  and  O_24
REMARK    8  A    between atoms: P_22  and  O_26
REMARK                            x       y       z     vdW  Elec       q    Type
REMARK                         _______ _______ _______ _____ _____    ______ ____
ROOT
ATOM      1  O   UNL     1     -36.323  25.211   5.309  0.00  0.00    -0.333 OA
ATOM      2  C   UNL     1     -36.265  23.301   3.908  0.00  0.00    +0.187 C 
ATOM      3  C   UNL     1     -35.332  23.071   5.078  0.00  0.00    +0.171 C 
ATOM      4  C   UNL     1     -37.140  24.433   4.419  0.00  0.00    +0.229 C 
ATOM      5  C   UNL     1     -35.102  24.489   5.586  0.00  0.00    +0.176 C 
ENDROOT
BRANCH   4   7
ATOM      6  O   UNL     1     -39.876  24.576   3.455  0.00  0.00    -0.251 OA
ATOM      7  N   UNL     1     -37.613  25.279   3.361  0.00  0.00    -0.216 N 
ATOM      8  N   UNL     1     -39.261  26.138   1.942  0.00  0.00    -0.203 N 
ATOM      9  N   UNL     1     -38.959  27.682   0.353  0.00  0.00    -0.227 NA
ATOM     10  C   UNL     1     -38.971  25.253   2.989  0.00  0.00    +0.321 C 
ATOM     11  C   UNL     1     -36.696  26.116   2.725  0.00  0.00    +0.074 C 
ATOM     12  C   UNL     1     -37.027  26.944   1.729  0.00  0.00    +0.051 C 
ATOM     13  C   UNL     1     -38.368  26.976   1.296  0.00  0.00    +0.144 C 
ATOM     14  C   UNL     1     -40.487  26.346   1.353  0.00  0.00    +0.096 C 
ATOM     15  C   UNL     1     -40.272  27.296   0.384  0.00  0.00    +0.117 C 
ENDBRANCH   4   7
BRANCH   2  16
ATOM     16  O   UNL     1     -37.008  22.145   3.580  0.00  0.00    -0.378 OA
ATOM     17  H   UNL     1     -37.102  21.587   4.368  0.00  0.00    +0.211 HD
ENDBRANCH   2  16
BRANCH   3  18
ATOM     18  O   UNL     1     -35.998  22.340   6.106  0.00  0.00    -0.379 OA
ATOM     19  H   UNL     1     -36.946  22.288   5.905  0.00  0.00    +0.211 HD
ENDBRANCH   3  18
BRANCH   5  20
ATOM     20  C   UNL     1     -33.958  25.204   4.880  0.00  0.00    +0.186 C 
BRANCH  20  21
ATOM     21  O   UNL     1     -34.047  26.589   5.159  0.00  0.00    -0.271 OA
BRANCH  21  22
ATOM     22  P   UNL     1     -33.094  27.607   4.335  0.00  0.00    +0.473 P 
ATOM     23  O   UNL     1     -32.046  26.945   3.487  0.00  0.00    -0.227 OA
BRANCH  22  24
ATOM     24  O   UNL     1     -32.531  28.610   5.472  0.00  0.00    -0.303 OA
ATOM     25  H   UNL     1     -31.965  29.280   5.059  0.00  0.00    +0.222 HD
ENDBRANCH  22  24
BRANCH  22  26
ATOM     26  O   UNL     1     -34.154  28.518   3.524  0.00  0.00    -0.303 OA
ATOM     27  H   UNL     1     -34.981  28.579   4.028  0.00  0.00    +0.222 HD
ENDBRANCH  22  26
ENDBRANCH  21  22
ENDBRANCH  20  21
ENDBRANCH   5  20
TORSDOF 8
ENDMDL
MODEL 7
REMARK VINA RESULT:      -5.7      3.078      5.648
REMARK  Name = 191090
REMARK  8 active torsions:
REMARK  status: ('A' for Active; 'I' for Inactive)
REMARK    1  A    between atoms: C_2  and  O_16
REMARK    2  A    between atoms: C_3  and  O_18
REMARK    3  A    between atoms: C_4  and  N_7
REMARK    4  A    between atoms: C_5  and  C_20
REMARK    5  A    between atoms: C_20  and  O_21
REMARK    6  A    between atoms: O_21  and  P_22
REMARK    7  A    between atoms: P_22  and  O_24
REMARK    8  A    between atoms: P_22  and  O_26
REMARK                            x       y       z     vdW  Elec       q    Type
REMARK                         _______ _______ _______ _____ _____    ______ ____
ROOT
ATOM      1  O   UNL     1     -36.624  24.357   1.622  0.00  0.00    -0.333 OA
ATOM      2  C   UNL     1     -36.088  23.529   3.776  0.00  0.00    +0.187 C 
ATOM      3  C   UNL     1     -36.837  24.836   3.932  0.00  0.00    +0.171 C 
ATOM      4  C   UNL     1     -36.439  23.133   2.352  0.00  0.00    +0.229 C 
ATOM      5  C   UNL     1     -36.678  25.461   2.552  0.00  0.00    +0.176 C 
ENDROOT
BRANCH   4   7
ATOM      6  O   UNL     1     -35.849  20.334   2.853  0.00  0.00    -0.251 OA
ATOM      7  N   UNL     1     -35.398  22.369   1.725  0.00  0.00    -0.216 N 
ATOM      8  N   UNL     1     -34.159  20.421   1.355  0.00  0.00    -0.203 N 
ATOM      9  N   UNL     1     -32.439  20.200  -0.056  0.00  0.00    -0.227 NA
ATOM     10  C   UNL     1     -35.217  21.013   2.058  0.00  0.00    +0.321 C 
ATOM     11  C   UNL     1     -34.585  23.007   0.787  0.00  0.00    +0.074 C 
ATOM     12  C   UNL     1     -33.587  22.394   0.143  0.00  0.00    +0.051 C 
ATOM     13  C   UNL     1     -33.340  21.034   0.423  0.00  0.00    +0.144 C 
ATOM     14  C   UNL     1     -33.730  19.118   1.455  0.00  0.00    +0.096 C 
ATOM     15  C   UNL     1     -32.676  19.011   0.580  0.00  0.00    +0.117 C 
ENDBRANCH   4   7
BRANCH   2  16
ATOM     16  O   UNL     1     -36.495  22.563   4.724  0.00  0.00    -0.378 OA
ATOM     17  H   UNL     1     -36.264  21.677   4.402  0.00  0.00    +0.211 HD
ENDBRANCH   2  16
BRANCH   3  18
ATOM     18  O   UNL     1     -38.226  24.590   4.145  0.00  0.00    -0.379 OA
ATOM     19  H   UNL     1     -38.711  25.430   4.115  0.00  0.00    +0.211 HD
ENDBRANCH   3  18
BRANCH   5  20
ATOM     20  C   UNL     1     -35.397  26.271   2.401  0.00  0.00    +0.186 C 
BRANCH  20  21
ATOM     21  O   UNL     1     -35.170  26.990   3.600  0.00  0.00    -0.271 OA
BRANCH  21  22
ATOM     22  P   UNL     1     -33.733  26.842   4.330  0.00  0.00    +0.473 P 
ATOM     23  O   UNL     1     -32.803  25.846   3.701  0.00  0.00    -0.227 OA
BRANCH  22  24
ATOM     24  O   UNL     1     -34.116  26.551   5.874  0.00  0.00    -0.303 OA
ATOM     25  H   UNL     1     -34.020  25.603   6.057  0.00  0.00    +0.222 HD
ENDBRANCH  22  24
BRANCH  22  26
ATOM     26  O   UNL     1     -33.185  28.363   4.362  0.00  0.00    -0.303 OA
ATOM     27  H   UNL     1     -33.661  28.892   3.702  0.00  0.00    +0.222 HD
ENDBRANCH  22  26
ENDBRANCH  21  22
ENDBRANCH  20  21
ENDBRANCH   5  20
TORSDOF 8
ENDMDL
MODEL 8
REMARK VINA RESULT:      -5.6      2.172      4.278
REMARK  Name = 191090
REMARK  8 active torsions:
REMARK  status: ('A' for Active; 'I' for Inactive)
REMARK    1  A    between atoms: C_2  and  O_16
REMARK    2  A    between atoms: C_3  and  O_18
REMARK    3  A    between atoms: C_4  and  N_7
REMARK    4  A    between atoms: C_5  and  C_20
REMARK    5  A    between atoms: C_20  and  O_21
REMARK    6  A    between atoms: O_21  and  P_22
REMARK    7  A    between atoms: P_22  and  O_24
REMARK    8  A    between atoms: P_22  and  O_26
REMARK                            x       y       z     vdW  Elec       q    Type
REMARK                         _______ _______ _______ _____ _____    ______ ____
ROOT
ATOM      1  O   UNL     1     -35.715  24.367   2.838  0.00  0.00    -0.333 OA
ATOM      2  C   UNL     1     -36.428  25.335   4.879  0.00  0.00    +0.187 C 
ATOM      3  C   UNL     1     -35.178  24.522   5.140  0.00  0.00    +0.171 C 
ATOM      4  C   UNL     1     -36.370  25.528   3.373  0.00  0.00    +0.229 C 
ATOM      5  C   UNL     1     -35.131  23.609   3.921  0.00  0.00    +0.176 C 
ENDROOT
BRANCH   4   7
ATOM      6  O   UNL     1     -37.096  27.276   1.170  0.00  0.00    -0.251 OA
ATOM      7  N   UNL     1     -37.675  25.639   2.785  0.00  0.00    -0.216 N 
ATOM      8  N   UNL     1     -39.221  26.511   1.264  0.00  0.00    -0.203 N 
ATOM      9  N   UNL     1     -41.382  25.957   1.116  0.00  0.00    -0.227 NA
ATOM     10  C   UNL     1     -37.895  26.529   1.716  0.00  0.00    +0.321 C 
ATOM     11  C   UNL     1     -38.701  24.846   3.301  0.00  0.00    +0.074 C 
ATOM     12  C   UNL     1     -39.952  24.869   2.831  0.00  0.00    +0.051 C 
ATOM     13  C   UNL     1     -40.254  25.735   1.761  0.00  0.00    +0.144 C 
ATOM     14  C   UNL     1     -39.754  27.261   0.241  0.00  0.00    +0.096 C 
ATOM     15  C   UNL     1     -41.078  26.901   0.173  0.00  0.00    +0.117 C 
ENDBRANCH   4   7
BRANCH   2  16
ATOM     16  O   UNL     1     -36.427  26.560   5.584  0.00  0.00    -0.378 OA
ATOM     17  H   UNL     1     -36.926  27.223   5.080  0.00  0.00    +0.211 HD
ENDBRANCH   2  16
BRANCH   3  18
ATOM     18  O   UNL     1     -34.025  25.360   5.106  0.00  0.00    -0.379 OA
ATOM     19  H   UNL     1     -33.866  25.729   5.989  0.00  0.00    +0.211 HD
ENDBRANCH   3  18
BRANCH   5  20
ATOM     20  C   UNL     1     -35.939  22.330   4.094  0.00  0.00    +0.186 C 
BRANCH  20  21
ATOM     21  O   UNL     1     -35.182  21.244   3.590  0.00  0.00    -0.271 OA
BRANCH  21  22
ATOM     22  P   UNL     1     -35.631  20.577   2.184  0.00  0.00    +0.473 P 
ATOM     23  O   UNL     1     -35.862  21.552   1.066  0.00  0.00    -0.227 OA
BRANCH  22  24
ATOM     24  O   UNL     1     -36.906  19.665   2.582  0.00  0.00    -0.303 OA
ATOM     25  H   UNL     1     -36.717  18.737   2.374  0.00  0.00    +0.222 HD
ENDBRANCH  22  24
BRANCH  22  26
ATOM     26  O   UNL     1     -34.465  19.490   1.912  0.00  0.00    -0.303 OA
ATOM     27  H   UNL     1     -34.287  19.439   0.959  0.00  0.00    +0.222 HD
ENDBRANCH  22  26
ENDBRANCH  21  22
ENDBRANCH  20  21
ENDBRANCH   5  20
TORSDOF 8
ENDMDL
MODEL 9
REMARK VINA RESULT:      -5.5      2.647      5.489
REMARK  Name = 191090
REMARK  8 active torsions:
REMARK  status: ('A' for Active; 'I' for Inactive)
REMARK    1  A    between atoms: C_2  and  O_16
REMARK    2  A    between atoms: C_3  and  O_18
REMARK    3  A    between atoms: C_4  and  N_7
REMARK    4  A    between atoms: C_5  and  C_20
REMARK    5  A    between atoms: C_20  and  O_21
REMARK    6  A    between atoms: O_21  and  P_22
REMARK    7  A    between atoms: P_22  and  O_24
REMARK    8  A    between atoms: P_22  and  O_26
REMARK                            x       y       z     vdW  Elec       q    Type
REMARK                         _______ _______ _______ _____ _____    ______ ____
ROOT
ATOM      1  O   UNL     1     -37.828  23.686   1.307  0.00  0.00    -0.333 OA
ATOM      2  C   UNL     1     -39.276  22.002   2.133  0.00  0.00    +0.187 C 
ATOM      3  C   UNL     1     -39.961  23.345   2.281  0.00  0.00    +0.171 C 
ATOM      4  C   UNL     1     -38.196  22.310   1.111  0.00  0.00    +0.229 C 
ATOM      5  C   UNL     1     -38.788  24.312   2.187  0.00  0.00    +0.176 C 
ENDROOT
BRANCH   4   7
ATOM      6  O   UNL     1     -37.102  20.485  -0.866  0.00  0.00    -0.251 OA
ATOM      7  N   UNL     1     -37.031  21.489   1.281  0.00  0.00    -0.216 N 
ATOM      8  N   UNL     1     -35.455  19.914   0.573  0.00  0.00    -0.203 N 
ATOM      9  N   UNL     1     -33.724  19.152   1.766  0.00  0.00    -0.227 NA
ATOM     10  C   UNL     1     -36.604  20.643   0.239  0.00  0.00    +0.321 C 
ATOM     11  C   UNL     1     -36.348  21.556   2.495  0.00  0.00    +0.074 C 
ATOM     12  C   UNL     1     -35.253  20.836   2.763  0.00  0.00    +0.051 C 
ATOM     13  C   UNL     1     -34.762  19.964   1.770  0.00  0.00    +0.144 C 
ATOM     14  C   UNL     1     -34.794  19.007  -0.223  0.00  0.00    +0.096 C 
ATOM     15  C   UNL     1     -33.739  18.556   0.533  0.00  0.00    +0.117 C 
ENDBRANCH   4   7
BRANCH   2  16
ATOM     16  O   UNL     1     -40.165  20.993   1.696  0.00  0.00    -0.378 OA
ATOM     17  H   UNL     1     -39.710  20.414   1.064  0.00  0.00    +0.211 HD
ENDBRANCH   2  16
BRANCH   3  18
ATOM     18  O   UNL     1     -40.822  23.588   1.170  0.00  0.00    -0.379 OA
ATOM     19  H   UNL     1     -41.580  22.983   1.209  0.00  0.00    +0.211 HD
ENDBRANCH   3  18
BRANCH   5  20
ATOM     20  C   UNL     1     -38.108  24.568   3.525  0.00  0.00    +0.186 C 
BRANCH  20  21
ATOM     21  O   UNL     1     -36.800  25.055   3.284  0.00  0.00    -0.271 OA
BRANCH  21  22
ATOM     22  P   UNL     1     -35.806  25.256   4.546  0.00  0.00    +0.473 P 
ATOM     23  O   UNL     1     -34.357  25.418   4.190  0.00  0.00    -0.227 OA
BRANCH  22  24
ATOM     24  O   UNL     1     -36.145  23.998   5.505  0.00  0.00    -0.303 OA
ATOM     25  H   UNL     1     -35.320  23.569   5.780  0.00  0.00    +0.222 HD
ENDBRANCH  22  24
BRANCH  22  26
ATOM     26  O   UNL     1     -36.462  26.509   5.328  0.00  0.00    -0.303 OA
ATOM     27  H   UNL     1     -36.448  27.292   4.754  0.00  0.00    +0.222 HD
ENDBRANCH  22  26
ENDBRANCH  21  22
ENDBRANCH  20  21
ENDBRANCH   5  20
TORSDOF 8
ENDMDL
