MODEL 1
REMARK VINA RESULT:      -6.0      0.000      0.000
REMARK  Name = 195209
REMARK  10 active torsions:
REMARK  status: ('A' for Active; 'I' for Inactive)
REMARK    1  A    between atoms: S_1  and  C_2
REMARK    2  A    between atoms: S_1  and  C_14
REMARK    3  A    between atoms: C_2  and  C_3
REMARK    4  A    between atoms: C_3  and  N_6
REMARK    5  A    between atoms: C_7  and  O_9
REMARK    6  A    between atoms: O_9  and  C_10
REMARK    7  A    between atoms: C_14  and  C_16
REMARK    8  A    between atoms: C_14  and  C_19
REMARK    9  A    between atoms: C_16  and  O_17
REMARK   10  A    between atoms: C_19  and  C_20
REMARK                            x       y       z     vdW  Elec       q    Type
REMARK                         _______ _______ _______ _____ _____    ______ ____
ROOT
ATOM      1  S   UNL     1     -36.609  20.586  -0.137  0.00  0.00    -0.128 S 
ENDROOT
BRANCH   1   2
ATOM      2  C   UNL     1     -36.587  22.364   0.256  0.00  0.00    +0.078 C 
BRANCH   2   3
ATOM      3  C   UNL     1     -37.791  22.851   1.073  0.00  0.00    +0.086 C 
ATOM      4  C   UNL     1     -39.061  22.035   0.847  0.00  0.00    +0.022 C 
BRANCH   3   6
ATOM      5  O   UNL     1     -37.553  25.225   2.731  0.00  0.00    -0.226 OA
ATOM      6  N   UNL     1     -37.468  22.920   2.479  0.00  0.00    -0.271 N 
ATOM      7  C   UNL     1     -37.376  24.100   3.187  0.00  0.00    +0.401 C 
ATOM      8  H   UNL     1     -37.303  22.077   2.960  0.00  0.00    +0.153 HD
BRANCH   7   9
ATOM      9  O   UNL     1     -37.056  23.836   4.491  0.00  0.00    -0.442 OA
BRANCH   9  10
ATOM     10  C   UNL     1     -35.743  24.221   4.903  0.00  0.00    +0.138 C 
ATOM     11  C   UNL     1     -35.825  25.591   5.573  0.00  0.00    +0.044 C 
ATOM     12  C   UNL     1     -35.245  23.168   5.892  0.00  0.00    +0.044 C 
ATOM     13  C   UNL     1     -34.841  24.269   3.671  0.00  0.00    +0.044 C 
ENDBRANCH   9  10
ENDBRANCH   7   9
ENDBRANCH   3   6
ENDBRANCH   2   3
ENDBRANCH   1   2
BRANCH   1  14
ATOM     14  C   UNL     1     -35.291  20.060   0.980  0.00  0.00    +0.151 C 
BRANCH  14  16
ATOM     15  O   UNL     1     -35.131  20.799   3.302  0.00  0.00    -0.249 OA
ATOM     16  C   UNL     1     -35.770  20.256   2.410  0.00  0.00    +0.324 C 
BRANCH  16  17
ATOM     17  O   UNL     1     -36.998  19.713   2.617  0.00  0.00    -0.480 OA
ATOM     18  H   UNL     1     -37.641  20.183   3.111  0.00  0.00    +0.295 HD
ENDBRANCH  16  17
ENDBRANCH  14  16
BRANCH  14  19
ATOM     19  C   UNL     1     -34.021  20.874   0.701  0.00  0.00    +0.048 C 
BRANCH  19  20
ATOM     20  C   UNL     1     -32.787  20.009   0.579  0.00  0.00    -0.021 C 
ATOM     21  C   UNL     1     -32.754  18.753   1.185  0.00  0.00    -0.004 C 
ATOM     22  C   UNL     1     -31.683  20.465  -0.141  0.00  0.00    -0.004 C 
ATOM     23  C   UNL     1     -31.616  17.955   1.073  0.00  0.00    -0.000 C 
ATOM     24  C   UNL     1     -30.545  19.666  -0.254  0.00  0.00    -0.000 C 
ATOM     25  C   UNL     1     -30.512  18.411   0.353  0.00  0.00    -0.000 C 
ENDBRANCH  19  20
ENDBRANCH  14  19
ENDBRANCH   1  14
TORSDOF 10
ENDMDL
MODEL 2
REMARK VINA RESULT:      -5.8      1.435      1.757
REMARK  Name = 195209
REMARK  10 active torsions:
REMARK  status: ('A' for Active; 'I' for Inactive)
REMARK    1  A    between atoms: S_1  and  C_2
REMARK    2  A    between atoms: S_1  and  C_14
REMARK    3  A    between atoms: C_2  and  C_3
REMARK    4  A    between atoms: C_3  and  N_6
REMARK    5  A    between atoms: C_7  and  O_9
REMARK    6  A    between atoms: O_9  and  C_10
REMARK    7  A    between atoms: C_14  and  C_16
REMARK    8  A    between atoms: C_14  and  C_19
REMARK    9  A    between atoms: C_16  and  O_17
REMARK   10  A    between atoms: C_19  and  C_20
REMARK                            x       y       z     vdW  Elec       q    Type
REMARK                         _______ _______ _______ _____ _____    ______ ____
ROOT
ATOM      1  S   UNL     1     -37.840  20.981   1.414  0.00  0.00    -0.128 S 
ENDROOT
BRANCH   1   2
ATOM      2  C   UNL     1     -37.761  22.737   0.938  0.00  0.00    +0.078 C 
BRANCH   2   3
ATOM      3  C   UNL     1     -38.494  23.689   1.890  0.00  0.00    +0.086 C 
ATOM      4  C   UNL     1     -39.998  23.439   1.976  0.00  0.00    +0.022 C 
BRANCH   3   6
ATOM      5  O   UNL     1     -37.021  25.820   3.205  0.00  0.00    -0.226 OA
ATOM      6  N   UNL     1     -37.894  23.670   3.204  0.00  0.00    -0.271 N 
ATOM      7  C   UNL     1     -37.209  24.736   3.748  0.00  0.00    +0.401 C 
ATOM      8  H   UNL     1     -37.978  22.849   3.741  0.00  0.00    +0.153 HD
BRANCH   7   9
ATOM      9  O   UNL     1     -36.761  24.410   5.000  0.00  0.00    -0.442 OA
BRANCH   9  10
ATOM     10  C   UNL     1     -35.404  23.974   5.085  0.00  0.00    +0.138 C 
ATOM     11  C   UNL     1     -34.558  25.119   5.639  0.00  0.00    +0.044 C 
ATOM     12  C   UNL     1     -35.365  22.773   6.027  0.00  0.00    +0.044 C 
ATOM     13  C   UNL     1     -34.932  23.576   3.687  0.00  0.00    +0.044 C 
ENDBRANCH   9  10
ENDBRANCH   7   9
ENDBRANCH   3   6
ENDBRANCH   2   3
ENDBRANCH   1   2
BRANCH   1  14
ATOM     14  C   UNL     1     -36.285  20.443   0.669  0.00  0.00    +0.151 C 
BRANCH  14  16
ATOM     15  O   UNL     1     -36.186  18.900  -1.221  0.00  0.00    -0.249 OA
ATOM     16  C   UNL     1     -36.537  19.140  -0.072  0.00  0.00    +0.324 C 
BRANCH  16  17
ATOM     17  O   UNL     1     -37.248  18.256   0.674  0.00  0.00    -0.480 OA
ATOM     18  H   UNL     1     -37.209  18.293   1.610  0.00  0.00    +0.295 HD
ENDBRANCH  16  17
ENDBRANCH  14  16
BRANCH  14  19
ATOM     19  C   UNL     1     -35.221  20.268   1.760  0.00  0.00    +0.048 C 
BRANCH  19  20
ATOM     20  C   UNL     1     -33.855  19.947   1.198  0.00  0.00    -0.021 C 
ATOM     21  C   UNL     1     -33.237  18.738   1.516  0.00  0.00    -0.004 C 
ATOM     22  C   UNL     1     -33.212  20.860   0.362  0.00  0.00    -0.004 C 
ATOM     23  C   UNL     1     -31.976  18.442   0.999  0.00  0.00    -0.000 C 
ATOM     24  C   UNL     1     -31.951  20.563  -0.156  0.00  0.00    -0.000 C 
ATOM     25  C   UNL     1     -31.334  19.354   0.163  0.00  0.00    -0.000 C 
ENDBRANCH  19  20
ENDBRANCH  14  19
ENDBRANCH   1  14
TORSDOF 10
ENDMDL
MODEL 3
REMARK VINA RESULT:      -5.7      4.377      6.397
REMARK  Name = 195209
REMARK  10 active torsions:
REMARK  status: ('A' for Active; 'I' for Inactive)
REMARK    1  A    between atoms: S_1  and  C_2
REMARK    2  A    between atoms: S_1  and  C_14
REMARK    3  A    between atoms: C_2  and  C_3
REMARK    4  A    between atoms: C_3  and  N_6
REMARK    5  A    between atoms: C_7  and  O_9
REMARK    6  A    between atoms: O_9  and  C_10
REMARK    7  A    between atoms: C_14  and  C_16
REMARK    8  A    between atoms: C_14  and  C_19
REMARK    9  A    between atoms: C_16  and  O_17
REMARK   10  A    between atoms: C_19  and  C_20
REMARK                            x       y       z     vdW  Elec       q    Type
REMARK                         _______ _______ _______ _____ _____    ______ ____
ROOT
ATOM      1  S   UNL     1     -35.979  26.806   2.179  0.00  0.00    -0.128 S 
ENDROOT
BRANCH   1   2
ATOM      2  C   UNL     1     -34.577  25.841   1.532  0.00  0.00    +0.078 C 
BRANCH   2   3
ATOM      3  C   UNL     1     -33.271  26.008   2.320  0.00  0.00    +0.086 C 
ATOM      4  C   UNL     1     -32.013  25.877   1.465  0.00  0.00    +0.022 C 
BRANCH   3   6
ATOM      5  O   UNL     1     -32.932  26.383   5.181  0.00  0.00    -0.226 OA
ATOM      6  N   UNL     1     -33.267  27.251   3.055  0.00  0.00    -0.271 N 
ATOM      7  C   UNL     1     -33.098  27.332   4.422  0.00  0.00    +0.401 C 
ATOM      8  H   UNL     1     -33.391  28.089   2.553  0.00  0.00    +0.153 HD
BRANCH   7   9
ATOM      9  O   UNL     1     -33.141  28.641   4.818  0.00  0.00    -0.442 OA
BRANCH   9  10
ATOM     10  C   UNL     1     -31.893  29.221   5.201  0.00  0.00    +0.138 C 
ATOM     11  C   UNL     1     -31.889  30.690   4.781  0.00  0.00    +0.044 C 
ATOM     12  C   UNL     1     -31.774  29.096   6.718  0.00  0.00    +0.044 C 
ATOM     13  C   UNL     1     -30.768  28.453   4.509  0.00  0.00    +0.044 C 
ENDBRANCH   9  10
ENDBRANCH   7   9
ENDBRANCH   3   6
ENDBRANCH   2   3
ENDBRANCH   1   2
BRANCH   1  14
ATOM     14  C   UNL     1     -36.854  25.462   3.010  0.00  0.00    +0.151 C 
BRANCH  14  16
ATOM     15  O   UNL     1     -38.885  26.626   2.316  0.00  0.00    -0.249 OA
ATOM     16  C   UNL     1     -38.336  25.802   3.036  0.00  0.00    +0.324 C 
BRANCH  16  17
ATOM     17  O   UNL     1     -39.003  25.110   3.996  0.00  0.00    -0.480 OA
ATOM     18  H   UNL     1     -39.441  25.570   4.686  0.00  0.00    +0.295 HD
ENDBRANCH  16  17
ENDBRANCH  14  16
BRANCH  14  19
ATOM     19  C   UNL     1     -36.298  25.281   4.428  0.00  0.00    +0.048 C 
BRANCH  19  20
ATOM     20  C   UNL     1     -35.868  23.860   4.709  0.00  0.00    -0.021 C 
ATOM     21  C   UNL     1     -35.474  23.493   5.996  0.00  0.00    -0.004 C 
ATOM     22  C   UNL     1     -35.865  22.915   3.683  0.00  0.00    -0.004 C 
ATOM     23  C   UNL     1     -35.075  22.182   6.256  0.00  0.00    -0.000 C 
ATOM     24  C   UNL     1     -35.467  21.603   3.944  0.00  0.00    -0.000 C 
ATOM     25  C   UNL     1     -35.073  21.237   5.230  0.00  0.00    -0.000 C 
ENDBRANCH  19  20
ENDBRANCH  14  19
ENDBRANCH   1  14
TORSDOF 10
ENDMDL
MODEL 4
REMARK VINA RESULT:      -5.6      2.187      3.365
REMARK  Name = 195209
REMARK  10 active torsions:
REMARK  status: ('A' for Active; 'I' for Inactive)
REMARK    1  A    between atoms: S_1  and  C_2
REMARK    2  A    between atoms: S_1  and  C_14
REMARK    3  A    between atoms: C_2  and  C_3
REMARK    4  A    between atoms: C_3  and  N_6
REMARK    5  A    between atoms: C_7  and  O_9
REMARK    6  A    between atoms: O_9  and  C_10
REMARK    7  A    between atoms: C_14  and  C_16
REMARK    8  A    between atoms: C_14  and  C_19
REMARK    9  A    between atoms: C_16  and  O_17
REMARK   10  A    between atoms: C_19  and  C_20
REMARK                            x       y       z     vdW  Elec       q    Type
REMARK                         _______ _______ _______ _____ _____    ______ ____
ROOT
ATOM      1  S   UNL     1     -35.700  22.445   2.160  0.00  0.00    -0.128 S 
ENDROOT
BRANCH   1   2
ATOM      2  C   UNL     1     -35.528  21.711   3.817  0.00  0.00    +0.078 C 
BRANCH   2   3
ATOM      3  C   UNL     1     -35.544  22.725   4.968  0.00  0.00    +0.086 C 
ATOM      4  C   UNL     1     -35.458  22.088   6.353  0.00  0.00    +0.022 C 
BRANCH   3   6
ATOM      5  O   UNL     1     -35.610  25.515   5.773  0.00  0.00    -0.226 OA
ATOM      6  N   UNL     1     -34.513  23.721   4.794  0.00  0.00    -0.271 N 
ATOM      7  C   UNL     1     -34.634  25.030   5.211  0.00  0.00    +0.401 C 
ATOM      8  H   UNL     1     -33.675  23.450   4.352  0.00  0.00    +0.153 HD
BRANCH   7   9
ATOM      9  O   UNL     1     -33.494  25.722   4.905  0.00  0.00    -0.442 OA
BRANCH   9  10
ATOM     10  C   UNL     1     -33.568  26.577   3.763  0.00  0.00    +0.138 C 
ATOM     11  C   UNL     1     -32.892  25.877   2.585  0.00  0.00    +0.044 C 
ATOM     12  C   UNL     1     -35.047  26.820   3.466  0.00  0.00    +0.044 C 
ATOM     13  C   UNL     1     -32.864  27.891   4.093  0.00  0.00    +0.044 C 
ENDBRANCH   9  10
ENDBRANCH   7   9
ENDBRANCH   3   6
ENDBRANCH   2   3
ENDBRANCH   1   2
BRANCH   1  14
ATOM     14  C   UNL     1     -35.558  20.927   1.191  0.00  0.00    +0.151 C 
BRANCH  14  16
ATOM     15  O   UNL     1     -37.921  21.077   0.594  0.00  0.00    -0.249 OA
ATOM     16  C   UNL     1     -36.958  20.397   0.926  0.00  0.00    +0.324 C 
BRANCH  16  17
ATOM     17  O   UNL     1     -37.048  19.059   1.142  0.00  0.00    -0.480 OA
ATOM     18  H   UNL     1     -37.857  18.685   1.434  0.00  0.00    +0.295 HD
ENDBRANCH  16  17
ENDBRANCH  14  16
BRANCH  14  19
ATOM     19  C   UNL     1     -34.709  19.904   1.954  0.00  0.00    +0.048 C 
BRANCH  19  20
ATOM     20  C   UNL     1     -33.402  19.595   1.261  0.00  0.00    -0.021 C 
ATOM     21  C   UNL     1     -32.834  20.529   0.396  0.00  0.00    -0.004 C 
ATOM     22  C   UNL     1     -32.763  18.375   1.487  0.00  0.00    -0.004 C 
ATOM     23  C   UNL     1     -31.628  20.245  -0.245  0.00  0.00    -0.000 C 
ATOM     24  C   UNL     1     -31.556  18.091   0.846  0.00  0.00    -0.000 C 
ATOM     25  C   UNL     1     -30.989  19.026  -0.019  0.00  0.00    -0.000 C 
ENDBRANCH  19  20
ENDBRANCH  14  19
ENDBRANCH   1  14
TORSDOF 10
ENDMDL
MODEL 5
REMARK VINA RESULT:      -5.6      1.369      1.883
REMARK  Name = 195209
REMARK  10 active torsions:
REMARK  status: ('A' for Active; 'I' for Inactive)
REMARK    1  A    between atoms: S_1  and  C_2
REMARK    2  A    between atoms: S_1  and  C_14
REMARK    3  A    between atoms: C_2  and  C_3
REMARK    4  A    between atoms: C_3  and  N_6
REMARK    5  A    between atoms: C_7  and  O_9
REMARK    6  A    between atoms: O_9  and  C_10
REMARK    7  A    between atoms: C_14  and  C_16
REMARK    8  A    between atoms: C_14  and  C_19
REMARK    9  A    between atoms: C_16  and  O_17
REMARK   10  A    between atoms: C_19  and  C_20
REMARK                            x       y       z     vdW  Elec       q    Type
REMARK                         _______ _______ _______ _____ _____    ______ ____
ROOT
ATOM      1  S   UNL     1     -36.714  21.659  -0.103  0.00  0.00    -0.128 S 
ENDROOT
BRANCH   1   2
ATOM      2  C   UNL     1     -35.804  23.233   0.006  0.00  0.00    +0.078 C 
BRANCH   2   3
ATOM      3  C   UNL     1     -36.350  24.212   1.053  0.00  0.00    +0.086 C 
ATOM      4  C   UNL     1     -37.795  23.938   1.461  0.00  0.00    +0.022 C 
BRANCH   3   6
ATOM      5  O   UNL     1     -35.301  26.567   2.393  0.00  0.00    -0.226 OA
ATOM      6  N   UNL     1     -35.489  24.261   2.212  0.00  0.00    -0.271 N 
ATOM      7  C   UNL     1     -35.038  25.434   2.782  0.00  0.00    +0.401 C 
ATOM      8  H   UNL     1     -35.207  23.410   2.619  0.00  0.00    +0.153 HD
BRANCH   7   9
ATOM      9  O   UNL     1     -34.245  25.151   3.860  0.00  0.00    -0.442 OA
BRANCH   9  10
ATOM     10  C   UNL     1     -34.885  25.196   5.137  0.00  0.00    +0.138 C 
ATOM     11  C   UNL     1     -36.295  25.754   4.955  0.00  0.00    +0.044 C 
ATOM     12  C   UNL     1     -34.937  23.768   5.676  0.00  0.00    +0.044 C 
ATOM     13  C   UNL     1     -34.060  26.090   6.062  0.00  0.00    +0.044 C 
ENDBRANCH   9  10
ENDBRANCH   7   9
ENDBRANCH   3   6
ENDBRANCH   2   3
ENDBRANCH   1   2
BRANCH   1  14
ATOM     14  C   UNL     1     -35.577  20.638   0.861  0.00  0.00    +0.151 C 
BRANCH  14  16
ATOM     15  O   UNL     1     -35.721  21.422   3.169  0.00  0.00    -0.249 OA
ATOM     16  C   UNL     1     -36.057  20.623   2.304  0.00  0.00    +0.324 C 
BRANCH  16  17
ATOM     17  O   UNL     1     -36.887  19.578   2.557  0.00  0.00    -0.480 OA
ATOM     18  H   UNL     1     -37.816  19.694   2.504  0.00  0.00    +0.295 HD
ENDBRANCH  16  17
ENDBRANCH  14  16
BRANCH  14  19
ATOM     19  C   UNL     1     -34.156  21.202   0.752  0.00  0.00    +0.048 C 
BRANCH  19  20
ATOM     20  C   UNL     1     -33.099  20.122   0.729  0.00  0.00    -0.021 C 
ATOM     21  C   UNL     1     -31.899  20.334   0.050  0.00  0.00    -0.004 C 
ATOM     22  C   UNL     1     -33.322  18.912   1.388  0.00  0.00    -0.004 C 
ATOM     23  C   UNL     1     -30.924  19.338   0.028  0.00  0.00    -0.000 C 
ATOM     24  C   UNL     1     -32.346  17.916   1.366  0.00  0.00    -0.000 C 
ATOM     25  C   UNL     1     -31.147  18.129   0.687  0.00  0.00    -0.000 C 
ENDBRANCH  19  20
ENDBRANCH  14  19
ENDBRANCH   1  14
TORSDOF 10
ENDMDL
MODEL 6
REMARK VINA RESULT:      -5.6      4.350      6.638
REMARK  Name = 195209
REMARK  10 active torsions:
REMARK  status: ('A' for Active; 'I' for Inactive)
REMARK    1  A    between atoms: S_1  and  C_2
REMARK    2  A    between atoms: S_1  and  C_14
REMARK    3  A    between atoms: C_2  and  C_3
REMARK    4  A    between atoms: C_3  and  N_6
REMARK    5  A    between atoms: C_7  and  O_9
REMARK    6  A    between atoms: O_9  and  C_10
REMARK    7  A    between atoms: C_14  and  C_16
REMARK    8  A    between atoms: C_14  and  C_19
REMARK    9  A    between atoms: C_16  and  O_17
REMARK   10  A    between atoms: C_19  and  C_20
REMARK                            x       y       z     vdW  Elec       q    Type
REMARK                         _______ _______ _______ _____ _____    ______ ____
ROOT
ATOM      1  S   UNL     1     -36.690  26.880   1.766  0.00  0.00    -0.128 S 
ENDROOT
BRANCH   1   2
ATOM      2  C   UNL     1     -34.895  27.123   1.950  0.00  0.00    +0.078 C 
BRANCH   2   3
ATOM      3  C   UNL     1     -34.481  28.548   2.338  0.00  0.00    +0.086 C 
ATOM      4  C   UNL     1     -35.582  29.586   2.138  0.00  0.00    +0.022 C 
BRANCH   3   6
ATOM      5  O   UNL     1     -31.747  28.131   3.228  0.00  0.00    -0.226 OA
ATOM      6  N   UNL     1     -33.974  28.589   3.690  0.00  0.00    -0.271 N 
ATOM      7  C   UNL     1     -32.652  28.377   4.019  0.00  0.00    +0.401 C 
ATOM      8  H   UNL     1     -34.609  28.779   4.419  0.00  0.00    +0.153 HD
BRANCH   7   9
ATOM      9  O   UNL     1     -32.488  28.482   5.373  0.00  0.00    -0.442 OA
BRANCH   9  10
ATOM     10  C   UNL     1     -31.559  29.472   5.817  0.00  0.00    +0.138 C 
ATOM     11  C   UNL     1     -31.890  30.795   5.128  0.00  0.00    +0.044 C 
ATOM     12  C   UNL     1     -31.712  29.601   7.331  0.00  0.00    +0.044 C 
ATOM     13  C   UNL     1     -30.148  29.009   5.458  0.00  0.00    +0.044 C 
ENDBRANCH   9  10
ENDBRANCH   7   9
ENDBRANCH   3   6
ENDBRANCH   2   3
ENDBRANCH   1   2
BRANCH   1  14
ATOM     14  C   UNL     1     -36.835  25.332   2.685  0.00  0.00    +0.151 C 
BRANCH  14  16
ATOM     15  O   UNL     1     -38.865  24.200   3.432  0.00  0.00    -0.249 OA
ATOM     16  C   UNL     1     -38.245  25.239   3.245  0.00  0.00    +0.324 C 
BRANCH  16  17
ATOM     17  O   UNL     1     -38.782  26.464   3.485  0.00  0.00    -0.480 OA
ATOM     18  H   UNL     1     -39.226  26.924   2.799  0.00  0.00    +0.295 HD
ENDBRANCH  16  17
ENDBRANCH  14  16
BRANCH  14  19
ATOM     19  C   UNL     1     -35.787  25.294   3.804  0.00  0.00    +0.048 C 
BRANCH  19  20
ATOM     20  C   UNL     1     -35.575  23.904   4.360  0.00  0.00    -0.021 C 
ATOM     21  C   UNL     1     -35.500  22.812   3.497  0.00  0.00    -0.004 C 
ATOM     22  C   UNL     1     -35.455  23.715   5.737  0.00  0.00    -0.004 C 
ATOM     23  C   UNL     1     -35.306  21.530   4.010  0.00  0.00    -0.000 C 
ATOM     24  C   UNL     1     -35.260  22.432   6.250  0.00  0.00    -0.000 C 
ATOM     25  C   UNL     1     -35.185  21.340   5.386  0.00  0.00    -0.000 C 
ENDBRANCH  19  20
ENDBRANCH  14  19
ENDBRANCH   1  14
TORSDOF 10
ENDMDL
MODEL 7
REMARK VINA RESULT:      -5.6      2.360      3.340
REMARK  Name = 195209
REMARK  10 active torsions:
REMARK  status: ('A' for Active; 'I' for Inactive)
REMARK    1  A    between atoms: S_1  and  C_2
REMARK    2  A    between atoms: S_1  and  C_14
REMARK    3  A    between atoms: C_2  and  C_3
REMARK    4  A    between atoms: C_3  and  N_6
REMARK    5  A    between atoms: C_7  and  O_9
REMARK    6  A    between atoms: O_9  and  C_10
REMARK    7  A    between atoms: C_14  and  C_16
REMARK    8  A    between atoms: C_14  and  C_19
REMARK    9  A    between atoms: C_16  and  O_17
REMARK   10  A    between atoms: C_19  and  C_20
REMARK                            x       y       z     vdW  Elec       q    Type
REMARK                         _______ _______ _______ _____ _____    ______ ____
ROOT
ATOM      1  S   UNL     1     -35.238  23.004   2.366  0.00  0.00    -0.128 S 
ENDROOT
BRANCH   1   2
ATOM      2  C   UNL     1     -36.010  22.330   3.871  0.00  0.00    +0.078 C 
BRANCH   2   3
ATOM      3  C   UNL     1     -35.603  23.040   5.168  0.00  0.00    +0.086 C 
ATOM      4  C   UNL     1     -35.251  22.088   6.309  0.00  0.00    +0.022 C 
BRANCH   3   6
ATOM      5  O   UNL     1     -35.490  25.845   5.913  0.00  0.00    -0.226 OA
ATOM      6  N   UNL     1     -34.530  23.977   4.930  0.00  0.00    -0.271 N 
ATOM      7  C   UNL     1     -34.565  25.298   5.322  0.00  0.00    +0.401 C 
ATOM      8  H   UNL     1     -33.727  23.654   4.461  0.00  0.00    +0.153 HD
BRANCH   7   9
ATOM      9  O   UNL     1     -33.405  25.923   4.955  0.00  0.00    -0.442 OA
BRANCH   9  10
ATOM     10  C   UNL     1     -33.470  26.715   3.767  0.00  0.00    +0.138 C 
ATOM     11  C   UNL     1     -34.938  26.930   3.405  0.00  0.00    +0.044 C 
ATOM     12  C   UNL     1     -32.790  28.049   4.067  0.00  0.00    +0.044 C 
ATOM     13  C   UNL     1     -32.735  25.977   2.650  0.00  0.00    +0.044 C 
ENDBRANCH   9  10
ENDBRANCH   7   9
ENDBRANCH   3   6
ENDBRANCH   2   3
ENDBRANCH   1   2
BRANCH   1  14
ATOM     14  C   UNL     1     -35.650  21.653   1.239  0.00  0.00    +0.151 C 
BRANCH  14  16
ATOM     15  O   UNL     1     -37.832  22.545   0.601  0.00  0.00    -0.249 OA
ATOM     16  C   UNL     1     -37.159  21.628   1.056  0.00  0.00    +0.324 C 
BRANCH  16  17
ATOM     17  O   UNL     1     -37.710  20.469   1.500  0.00  0.00    -0.480 OA
ATOM     18  H   UNL     1     -37.323  20.011   2.221  0.00  0.00    +0.295 HD
ENDBRANCH  16  17
ENDBRANCH  14  16
BRANCH  14  19
ATOM     19  C   UNL     1     -35.136  20.327   1.812  0.00  0.00    +0.048 C 
BRANCH  19  20
ATOM     20  C   UNL     1     -33.799  19.921   1.235  0.00  0.00    -0.021 C 
ATOM     21  C   UNL     1     -33.228  18.699   1.591  0.00  0.00    -0.004 C 
ATOM     22  C   UNL     1     -33.137  20.767   0.345  0.00  0.00    -0.004 C 
ATOM     23  C   UNL     1     -31.995  18.325   1.060  0.00  0.00    -0.000 C 
ATOM     24  C   UNL     1     -31.903  20.392  -0.186  0.00  0.00    -0.000 C 
ATOM     25  C   UNL     1     -31.332  19.170   0.171  0.00  0.00    -0.000 C 
ENDBRANCH  19  20
ENDBRANCH  14  19
ENDBRANCH   1  14
TORSDOF 10
ENDMDL
MODEL 8
REMARK VINA RESULT:      -5.4      2.235      3.590
REMARK  Name = 195209
REMARK  10 active torsions:
REMARK  status: ('A' for Active; 'I' for Inactive)
REMARK    1  A    between atoms: S_1  and  C_2
REMARK    2  A    between atoms: S_1  and  C_14
REMARK    3  A    between atoms: C_2  and  C_3
REMARK    4  A    between atoms: C_3  and  N_6
REMARK    5  A    between atoms: C_7  and  O_9
REMARK    6  A    between atoms: O_9  and  C_10
REMARK    7  A    between atoms: C_14  and  C_16
REMARK    8  A    between atoms: C_14  and  C_19
REMARK    9  A    between atoms: C_16  and  O_17
REMARK   10  A    between atoms: C_19  and  C_20
REMARK                            x       y       z     vdW  Elec       q    Type
REMARK                         _______ _______ _______ _____ _____    ______ ____
ROOT
ATOM      1  S   UNL     1     -38.993  23.623   0.390  0.00  0.00    -0.128 S 
ENDROOT
BRANCH   1   2
ATOM      2  C   UNL     1     -39.952  24.021   1.887  0.00  0.00    +0.078 C 
BRANCH   2   3
ATOM      3  C   UNL     1     -39.407  25.205   2.696  0.00  0.00    +0.086 C 
ATOM      4  C   UNL     1     -40.488  26.153   3.207  0.00  0.00    +0.022 C 
BRANCH   3   6
ATOM      5  O   UNL     1     -36.736  26.115   3.388  0.00  0.00    -0.226 OA
ATOM      6  N   UNL     1     -38.569  24.747   3.780  0.00  0.00    -0.271 N 
ATOM      7  C   UNL     1     -37.307  25.241   4.033  0.00  0.00    +0.401 C 
ATOM      8  H   UNL     1     -38.919  24.043   4.372  0.00  0.00    +0.153 HD
BRANCH   7   9
ATOM      9  O   UNL     1     -36.771  24.609   5.122  0.00  0.00    -0.442 OA
BRANCH   9  10
ATOM     10  C   UNL     1     -35.418  24.169   4.987  0.00  0.00    +0.138 C 
ATOM     11  C   UNL     1     -35.242  22.883   5.793  0.00  0.00    +0.044 C 
ATOM     12  C   UNL     1     -35.164  23.912   3.503  0.00  0.00    +0.044 C 
ATOM     13  C   UNL     1     -34.495  25.269   5.507  0.00  0.00    +0.044 C 
ENDBRANCH   9  10
ENDBRANCH   7   9
ENDBRANCH   3   6
ENDBRANCH   2   3
ENDBRANCH   1   2
BRANCH   1  14
ATOM     14  C   UNL     1     -38.706  21.872   0.729  0.00  0.00    +0.151 C 
BRANCH  14  16
ATOM     15  O   UNL     1     -40.937  21.035   0.195  0.00  0.00    -0.249 OA
ATOM     16  C   UNL     1     -40.046  21.215   1.016  0.00  0.00    +0.324 C 
BRANCH  16  17
ATOM     17  O   UNL     1     -40.179  20.875   2.325  0.00  0.00    -0.480 OA
ATOM     18  H   UNL     1     -40.110  19.976   2.585  0.00  0.00    +0.295 HD
ENDBRANCH  16  17
ENDBRANCH  14  16
BRANCH  14  19
ATOM     19  C   UNL     1     -37.746  21.725   1.916  0.00  0.00    +0.048 C 
BRANCH  19  20
ATOM     20  C   UNL     1     -36.374  21.244   1.503  0.00  0.00    -0.021 C 
ATOM     21  C   UNL     1     -35.676  20.349   2.313  0.00  0.00    -0.004 C 
ATOM     22  C   UNL     1     -35.806  21.695   0.310  0.00  0.00    -0.004 C 
ATOM     23  C   UNL     1     -34.410  19.905   1.932  0.00  0.00    -0.000 C 
ATOM     24  C   UNL     1     -34.540  21.250  -0.070  0.00  0.00    -0.000 C 
ATOM     25  C   UNL     1     -33.842  20.355   0.741  0.00  0.00    -0.000 C 
ENDBRANCH  19  20
ENDBRANCH  14  19
ENDBRANCH   1  14
TORSDOF 10
ENDMDL
MODEL 9
REMARK VINA RESULT:      -5.4      1.936      2.698
REMARK  Name = 195209
REMARK  10 active torsions:
REMARK  status: ('A' for Active; 'I' for Inactive)
REMARK    1  A    between atoms: S_1  and  C_2
REMARK    2  A    between atoms: S_1  and  C_14
REMARK    3  A    between atoms: C_2  and  C_3
REMARK    4  A    between atoms: C_3  and  N_6
REMARK    5  A    between atoms: C_7  and  O_9
REMARK    6  A    between atoms: O_9  and  C_10
REMARK    7  A    between atoms: C_14  and  C_16
REMARK    8  A    between atoms: C_14  and  C_19
REMARK    9  A    between atoms: C_16  and  O_17
REMARK   10  A    between atoms: C_19  and  C_20
REMARK                            x       y       z     vdW  Elec       q    Type
REMARK                         _______ _______ _______ _____ _____    ______ ____
ROOT
ATOM      1  S   UNL     1     -36.364  20.828   1.798  0.00  0.00    -0.128 S 
ENDROOT
BRANCH   1   2
ATOM      2  C   UNL     1     -35.386  20.886   3.333  0.00  0.00    +0.078 C 
BRANCH   2   3
ATOM      3  C   UNL     1     -35.752  22.037   4.278  0.00  0.00    +0.086 C 
ATOM      4  C   UNL     1     -35.094  21.940   5.652  0.00  0.00    +0.022 C 
BRANCH   3   6
ATOM      5  O   UNL     1     -37.480  24.370   4.175  0.00  0.00    -0.226 OA
ATOM      6  N   UNL     1     -35.477  23.316   3.665  0.00  0.00    -0.271 N 
ATOM      7  C   UNL     1     -36.364  24.372   3.666  0.00  0.00    +0.401 C 
ATOM      8  H   UNL     1     -34.607  23.442   3.222  0.00  0.00    +0.153 HD
BRANCH   7   9
ATOM      9  O   UNL     1     -35.815  25.440   3.010  0.00  0.00    -0.442 OA
BRANCH   9  10
ATOM     10  C   UNL     1     -34.871  26.213   3.752  0.00  0.00    +0.138 C 
ATOM     11  C   UNL     1     -35.215  26.109   5.237  0.00  0.00    +0.044 C 
ATOM     12  C   UNL     1     -33.485  25.632   3.480  0.00  0.00    +0.044 C 
ATOM     13  C   UNL     1     -34.948  27.663   3.276  0.00  0.00    +0.044 C 
ENDBRANCH   9  10
ENDBRANCH   7   9
ENDBRANCH   3   6
ENDBRANCH   2   3
ENDBRANCH   1   2
BRANCH   1  14
ATOM     14  C   UNL     1     -35.186  19.914   0.777  0.00  0.00    +0.151 C 
BRANCH  14  16
ATOM     15  O   UNL     1     -35.652  18.360  -1.047  0.00  0.00    -0.249 OA
ATOM     16  C   UNL     1     -35.937  18.807   0.057  0.00  0.00    +0.324 C 
BRANCH  16  17
ATOM     17  O   UNL     1     -37.015  18.376   0.763  0.00  0.00    -0.480 OA
ATOM     18  H   UNL     1     -37.863  18.740   0.593  0.00  0.00    +0.295 HD
ENDBRANCH  16  17
ENDBRANCH  14  16
BRANCH  14  19
ATOM     19  C   UNL     1     -34.067  19.347   1.661  0.00  0.00    +0.048 C 
BRANCH  19  20
ATOM     20  C   UNL     1     -32.725  19.332   0.966  0.00  0.00    -0.021 C 
ATOM     21  C   UNL     1     -31.875  18.237   1.116  0.00  0.00    -0.004 C 
ATOM     22  C   UNL     1     -32.336  20.414   0.175  0.00  0.00    -0.004 C 
ATOM     23  C   UNL     1     -30.636  18.223   0.476  0.00  0.00    -0.000 C 
ATOM     24  C   UNL     1     -31.097  20.399  -0.466  0.00  0.00    -0.000 C 
ATOM     25  C   UNL     1     -30.247  19.303  -0.315  0.00  0.00    -0.000 C 
ENDBRANCH  19  20
ENDBRANCH  14  19
ENDBRANCH   1  14
TORSDOF 10
ENDMDL
