MODEL 1
REMARK VINA RESULT:      -5.0      0.000      0.000
REMARK  Name = 566344
REMARK  6 active torsions:
REMARK  status: ('A' for Active; 'I' for Inactive)
REMARK    1  A    between atoms: C_7  and  C_13
REMARK    2  A    between atoms: C_13  and  C_14
REMARK    3  A    between atoms: C_14  and  C_15
REMARK    4  A    between atoms: C_15  and  C_16
REMARK    5  A    between atoms: C_16  and  C_18
REMARK    6  A    between atoms: C_18  and  O_19
REMARK                            x       y       z     vdW  Elec       q    Type
REMARK                         _______ _______ _______ _____ _____    ______ ____
ROOT
ATOM      1  S   UNL     1     -34.844  25.624   3.204  0.00  0.00    +0.044 S 
ATOM      2  O   UNL     1     -34.464  24.424   2.388  0.00  0.00    -0.256 OA
ATOM      3  O   UNL     1     -35.361  20.980   4.213  0.00  0.00    -0.253 OA
ATOM      4  N   UNL     1     -36.643  22.941   4.203  0.00  0.00    -0.288 N 
ATOM      5  N   UNL     1     -34.692  22.931   5.325  0.00  0.00    -0.288 N 
ATOM      6  C   UNL     1     -36.563  24.265   4.787  0.00  0.00    +0.104 C 
ATOM      7  C   UNL     1     -36.578  25.406   3.764  0.00  0.00    +0.099 C 
ATOM      8  C   UNL     1     -35.210  24.269   5.522  0.00  0.00    +0.105 C 
ATOM      9  C   UNL     1     -34.290  25.325   4.919  0.00  0.00    +0.113 C 
ATOM     10  C   UNL     1     -35.543  22.145   4.539  0.00  0.00    +0.301 C 
ATOM     11  H   UNL     1     -37.387  22.637   3.635  0.00  0.00    +0.151 HD
ATOM     12  H   UNL     1     -33.840  22.611   5.700  0.00  0.00    +0.151 HD
ENDROOT
BRANCH   7  13
ATOM     13  C   UNL     1     -37.528  25.233   2.592  0.00  0.00    +0.015 C 
BRANCH  13  14
ATOM     14  C   UNL     1     -39.005  25.225   2.995  0.00  0.00    +0.002 C 
BRANCH  14  15
ATOM     15  C   UNL     1     -39.847  24.091   2.404  0.00  0.00    +0.012 C 
BRANCH  15  16
ATOM     16  C   UNL     1     -39.030  23.093   1.582  0.00  0.00    +0.109 C 
BRANCH  16  18
ATOM     17  O   UNL     1     -40.362  21.111   2.055  0.00  0.00    -0.250 OA
ATOM     18  C   UNL     1     -39.274  21.668   2.023  0.00  0.00    +0.314 C 
BRANCH  18  19
ATOM     19  O   UNL     1     -38.118  21.060   2.397  0.00  0.00    -0.480 OA
ATOM     20  H   UNL     1     -38.027  20.132   2.312  0.00  0.00    +0.295 HD
ENDBRANCH  18  19
ENDBRANCH  16  18
ENDBRANCH  15  16
ENDBRANCH  14  15
ENDBRANCH  13  14
ENDBRANCH   7  13
TORSDOF 6
ENDMDL
MODEL 2
REMARK VINA RESULT:      -5.0      2.649      5.274
REMARK  Name = 566344
REMARK  6 active torsions:
REMARK  status: ('A' for Active; 'I' for Inactive)
REMARK    1  A    between atoms: C_7  and  C_13
REMARK    2  A    between atoms: C_13  and  C_14
REMARK    3  A    between atoms: C_14  and  C_15
REMARK    4  A    between atoms: C_15  and  C_16
REMARK    5  A    between atoms: C_16  and  C_18
REMARK    6  A    between atoms: C_18  and  O_19
REMARK                            x       y       z     vdW  Elec       q    Type
REMARK                         _______ _______ _______ _____ _____    ______ ____
ROOT
ATOM      1  S   UNL     1     -36.533  24.010   1.812  0.00  0.00    +0.044 S 
ATOM      2  O   UNL     1     -37.805  24.225   2.578  0.00  0.00    -0.256 OA
ATOM      3  O   UNL     1     -40.402  21.218   2.119  0.00  0.00    -0.253 OA
ATOM      4  N   UNL     1     -38.075  21.046   2.333  0.00  0.00    -0.288 N 
ATOM      5  N   UNL     1     -38.924  21.954   0.457  0.00  0.00    -0.288 N 
ATOM      6  C   UNL     1     -36.909  21.348   1.527  0.00  0.00    +0.104 C 
ATOM      7  C   UNL     1     -35.923  22.320   2.184  0.00  0.00    +0.099 C 
ATOM      8  C   UNL     1     -37.490  22.004   0.260  0.00  0.00    +0.105 C 
ATOM      9  C   UNL     1     -36.987  23.438   0.136  0.00  0.00    +0.113 C 
ATOM     10  C   UNL     1     -39.269  21.387   1.689  0.00  0.00    +0.301 C 
ATOM     11  H   UNL     1     -38.031  20.645   3.231  0.00  0.00    +0.151 HD
ATOM     12  H   UNL     1     -39.580  22.281  -0.200  0.00  0.00    +0.151 HD
ENDROOT
BRANCH   7  13
ATOM     13  C   UNL     1     -35.693  22.123   3.672  0.00  0.00    +0.015 C 
BRANCH  13  14
ATOM     14  C   UNL     1     -34.907  23.263   4.327  0.00  0.00    +0.002 C 
BRANCH  14  15
ATOM     15  C   UNL     1     -35.561  23.897   5.557  0.00  0.00    +0.012 C 
BRANCH  15  16
ATOM     16  C   UNL     1     -35.101  25.332   5.819  0.00  0.00    +0.109 C 
BRANCH  16  18
ATOM     17  O   UNL     1     -35.080  27.147   4.196  0.00  0.00    -0.250 OA
ATOM     18  C   UNL     1     -35.701  26.304   4.828  0.00  0.00    +0.314 C 
BRANCH  18  19
ATOM     19  O   UNL     1     -37.045  26.138   4.722  0.00  0.00    -0.480 OA
ATOM     20  H   UNL     1     -37.515  26.550   4.024  0.00  0.00    +0.295 HD
ENDBRANCH  18  19
ENDBRANCH  16  18
ENDBRANCH  15  16
ENDBRANCH  14  15
ENDBRANCH  13  14
ENDBRANCH   7  13
TORSDOF 6
ENDMDL
MODEL 3
REMARK VINA RESULT:      -4.9      3.051      5.839
REMARK  Name = 566344
REMARK  6 active torsions:
REMARK  status: ('A' for Active; 'I' for Inactive)
REMARK    1  A    between atoms: C_7  and  C_13
REMARK    2  A    between atoms: C_13  and  C_14
REMARK    3  A    between atoms: C_14  and  C_15
REMARK    4  A    between atoms: C_15  and  C_16
REMARK    5  A    between atoms: C_16  and  C_18
REMARK    6  A    between atoms: C_18  and  O_19
REMARK                            x       y       z     vdW  Elec       q    Type
REMARK                         _______ _______ _______ _____ _____    ______ ____
ROOT
ATOM      1  S   UNL     1     -37.320  24.550   2.745  0.00  0.00    +0.044 S 
ATOM      2  O   UNL     1     -37.973  24.410   4.089  0.00  0.00    -0.256 OA
ATOM      3  O   UNL     1     -35.834  22.153   6.605  0.00  0.00    -0.253 OA
ATOM      4  N   UNL     1     -35.005  23.708   5.061  0.00  0.00    -0.288 N 
ATOM      5  N   UNL     1     -35.942  21.812   4.289  0.00  0.00    -0.288 N 
ATOM      6  C   UNL     1     -34.873  23.808   3.620  0.00  0.00    +0.104 C 
ATOM      7  C   UNL     1     -35.569  25.028   3.008  0.00  0.00    +0.099 C 
ATOM      8  C   UNL     1     -35.548  22.528   3.093  0.00  0.00    +0.105 C 
ATOM      9  C   UNL     1     -36.753  22.890   2.230  0.00  0.00    +0.113 C 
ATOM     10  C   UNL     1     -35.621  22.516   5.456  0.00  0.00    +0.301 C 
ATOM     11  H   UNL     1     -34.696  24.400   5.689  0.00  0.00    +0.151 HD
ATOM     12  H   UNL     1     -36.384  20.933   4.282  0.00  0.00    +0.151 HD
ENDROOT
BRANCH   7  13
ATOM     13  C   UNL     1     -35.454  26.321   3.796  0.00  0.00    +0.015 C 
BRANCH  13  14
ATOM     14  C   UNL     1     -34.558  27.369   3.129  0.00  0.00    +0.002 C 
BRANCH  14  15
ATOM     15  C   UNL     1     -33.266  27.708   3.877  0.00  0.00    +0.012 C 
BRANCH  15  16
ATOM     16  C   UNL     1     -33.193  27.092   5.274  0.00  0.00    +0.109 C 
BRANCH  16  18
ATOM     17  O   UNL     1     -32.251  29.099   6.279  0.00  0.00    -0.250 OA
ATOM     18  C   UNL     1     -32.285  27.880   6.190  0.00  0.00    +0.314 C 
BRANCH  18  19
ATOM     19  O   UNL     1     -31.483  27.060   6.919  0.00  0.00    -0.480 OA
ATOM     20  H   UNL     1     -30.997  27.403   7.643  0.00  0.00    +0.295 HD
ENDBRANCH  18  19
ENDBRANCH  16  18
ENDBRANCH  15  16
ENDBRANCH  14  15
ENDBRANCH  13  14
ENDBRANCH   7  13
TORSDOF 6
ENDMDL
MODEL 4
REMARK VINA RESULT:      -4.8      4.126      5.905
REMARK  Name = 566344
REMARK  6 active torsions:
REMARK  status: ('A' for Active; 'I' for Inactive)
REMARK    1  A    between atoms: C_7  and  C_13
REMARK    2  A    between atoms: C_13  and  C_14
REMARK    3  A    between atoms: C_14  and  C_15
REMARK    4  A    between atoms: C_15  and  C_16
REMARK    5  A    between atoms: C_16  and  C_18
REMARK    6  A    between atoms: C_18  and  O_19
REMARK                            x       y       z     vdW  Elec       q    Type
REMARK                         _______ _______ _______ _____ _____    ______ ____
ROOT
ATOM      1  S   UNL     1     -31.911  28.211   4.619  0.00  0.00    +0.044 S 
ATOM      2  O   UNL     1     -32.621  29.280   5.395  0.00  0.00    -0.256 OA
ATOM      3  O   UNL     1     -35.626  30.931   3.334  0.00  0.00    -0.253 OA
ATOM      4  N   UNL     1     -35.015  28.669   3.360  0.00  0.00    -0.288 N 
ATOM      5  N   UNL     1     -33.636  30.150   2.374  0.00  0.00    -0.288 N 
ATOM      6  C   UNL     1     -33.927  27.857   2.854  0.00  0.00    +0.104 C 
ATOM      7  C   UNL     1     -33.174  27.071   3.931  0.00  0.00    +0.099 C 
ATOM      8  C   UNL     1     -32.966  28.876   2.213  0.00  0.00    +0.105 C 
ATOM      9  C   UNL     1     -31.621  28.850   2.932  0.00  0.00    +0.113 C 
ATOM     10  C   UNL     1     -34.851  30.025   3.058  0.00  0.00    +0.301 C 
ATOM     11  H   UNL     1     -35.783  28.308   3.859  0.00  0.00    +0.151 HD
ATOM     12  H   UNL     1     -33.278  31.004   2.042  0.00  0.00    +0.151 HD
ENDROOT
BRANCH   7  13
ATOM     13  C   UNL     1     -34.031  26.459   5.026  0.00  0.00    +0.015 C 
BRANCH  13  14
ATOM     14  C   UNL     1     -34.127  24.932   4.948  0.00  0.00    +0.002 C 
BRANCH  14  15
ATOM     15  C   UNL     1     -35.466  24.331   5.385  0.00  0.00    +0.012 C 
BRANCH  15  16
ATOM     16  C   UNL     1     -35.330  22.956   6.040  0.00  0.00    +0.109 C 
BRANCH  16  18
ATOM     17  O   UNL     1     -35.657  21.977   3.835  0.00  0.00    -0.250 OA
ATOM     18  C   UNL     1     -35.419  21.838   5.026  0.00  0.00    +0.314 C 
BRANCH  18  19
ATOM     19  O   UNL     1     -35.206  20.627   5.604  0.00  0.00    -0.480 OA
ATOM     20  H   UNL     1     -35.788  19.914   5.426  0.00  0.00    +0.295 HD
ENDBRANCH  18  19
ENDBRANCH  16  18
ENDBRANCH  15  16
ENDBRANCH  14  15
ENDBRANCH  13  14
ENDBRANCH   7  13
TORSDOF 6
ENDMDL
MODEL 5
REMARK VINA RESULT:      -4.8      2.558      3.284
REMARK  Name = 566344
REMARK  6 active torsions:
REMARK  status: ('A' for Active; 'I' for Inactive)
REMARK    1  A    between atoms: C_7  and  C_13
REMARK    2  A    between atoms: C_13  and  C_14
REMARK    3  A    between atoms: C_14  and  C_15
REMARK    4  A    between atoms: C_15  and  C_16
REMARK    5  A    between atoms: C_16  and  C_18
REMARK    6  A    between atoms: C_18  and  O_19
REMARK                            x       y       z     vdW  Elec       q    Type
REMARK                         _______ _______ _______ _____ _____    ______ ____
ROOT
ATOM      1  S   UNL     1     -34.433  25.625   3.269  0.00  0.00    +0.044 S 
ATOM      2  O   UNL     1     -33.417  24.981   4.166  0.00  0.00    -0.256 OA
ATOM      3  O   UNL     1     -34.938  21.941   6.274  0.00  0.00    -0.253 OA
ATOM      4  N   UNL     1     -35.415  22.484   4.045  0.00  0.00    -0.288 N 
ATOM      5  N   UNL     1     -36.136  23.863   5.671  0.00  0.00    -0.288 N 
ATOM      6  C   UNL     1     -36.133  23.524   3.335  0.00  0.00    +0.104 C 
ATOM      7  C   UNL     1     -35.281  24.299   2.325  0.00  0.00    +0.099 C 
ATOM      8  C   UNL     1     -36.593  24.486   4.446  0.00  0.00    +0.105 C 
ATOM      9  C   UNL     1     -35.962  25.859   4.243  0.00  0.00    +0.113 C 
ATOM     10  C   UNL     1     -35.435  22.675   5.430  0.00  0.00    +0.301 C 
ATOM     11  H   UNL     1     -34.966  21.728   3.602  0.00  0.00    +0.151 HD
ATOM     12  H   UNL     1     -36.300  24.231   6.569  0.00  0.00    +0.151 HD
ENDROOT
BRANCH   7  13
ATOM     13  C   UNL     1     -34.298  23.473   1.515  0.00  0.00    +0.015 C 
BRANCH  13  14
ATOM     14  C   UNL     1     -34.967  22.411   0.635  0.00  0.00    +0.002 C 
BRANCH  14  15
ATOM     15  C   UNL     1     -34.217  21.083   0.515  0.00  0.00    +0.012 C 
BRANCH  15  16
ATOM     16  C   UNL     1     -34.628  20.055   1.569  0.00  0.00    +0.109 C 
BRANCH  16  18
ATOM     17  O   UNL     1     -36.747  19.441   0.541  0.00  0.00    -0.250 OA
ATOM     18  C   UNL     1     -36.113  19.773   1.531  0.00  0.00    +0.314 C 
BRANCH  18  19
ATOM     19  O   UNL     1     -36.681  19.943   2.754  0.00  0.00    -0.480 OA
ATOM     20  H   UNL     1     -36.603  20.764   3.197  0.00  0.00    +0.295 HD
ENDBRANCH  18  19
ENDBRANCH  16  18
ENDBRANCH  15  16
ENDBRANCH  14  15
ENDBRANCH  13  14
ENDBRANCH   7  13
TORSDOF 6
ENDMDL
MODEL 6
REMARK VINA RESULT:      -4.8      2.785      5.623
REMARK  Name = 566344
REMARK  6 active torsions:
REMARK  status: ('A' for Active; 'I' for Inactive)
REMARK    1  A    between atoms: C_7  and  C_13
REMARK    2  A    between atoms: C_13  and  C_14
REMARK    3  A    between atoms: C_14  and  C_15
REMARK    4  A    between atoms: C_15  and  C_16
REMARK    5  A    between atoms: C_16  and  C_18
REMARK    6  A    between atoms: C_18  and  O_19
REMARK                            x       y       z     vdW  Elec       q    Type
REMARK                         _______ _______ _______ _____ _____    ______ ____
ROOT
ATOM      1  S   UNL     1     -38.060  22.622   1.341  0.00  0.00    +0.044 S 
ATOM      2  O   UNL     1     -37.389  23.577   0.397  0.00  0.00    -0.256 OA
ATOM      3  O   UNL     1     -37.698  27.382   1.589  0.00  0.00    -0.253 OA
ATOM      4  N   UNL     1     -37.341  25.508   2.949  0.00  0.00    -0.288 N 
ATOM      5  N   UNL     1     -39.340  25.749   1.943  0.00  0.00    -0.288 N 
ATOM      6  C   UNL     1     -38.107  24.366   3.406  0.00  0.00    +0.104 C 
ATOM      7  C   UNL     1     -37.493  23.010   3.043  0.00  0.00    +0.099 C 
ATOM      8  C   UNL     1     -39.461  24.512   2.687  0.00  0.00    +0.105 C 
ATOM      9  C   UNL     1     -39.695  23.320   1.765  0.00  0.00    +0.113 C 
ATOM     10  C   UNL     1     -38.079  26.337   2.098  0.00  0.00    +0.301 C 
ATOM     11  H   UNL     1     -36.407  25.681   3.208  0.00  0.00    +0.151 HD
ATOM     12  H   UNL     1     -40.060  26.131   1.392  0.00  0.00    +0.151 HD
ENDROOT
BRANCH   7  13
ATOM     13  C   UNL     1     -35.983  22.912   3.165  0.00  0.00    +0.015 C 
BRANCH  13  14
ATOM     14  C   UNL     1     -35.507  22.478   4.555  0.00  0.00    +0.002 C 
BRANCH  14  15
ATOM     15  C   UNL     1     -35.141  23.614   5.514  0.00  0.00    +0.012 C 
BRANCH  15  16
ATOM     16  C   UNL     1     -34.320  24.724   4.857  0.00  0.00    +0.109 C 
BRANCH  16  18
ATOM     17  O   UNL     1     -33.754  26.611   6.287  0.00  0.00    -0.250 OA
ATOM     18  C   UNL     1     -34.540  26.059   5.530  0.00  0.00    +0.314 C 
BRANCH  18  19
ATOM     19  O   UNL     1     -35.746  26.589   5.198  0.00  0.00    -0.480 OA
ATOM     20  H   UNL     1     -36.432  26.033   4.884  0.00  0.00    +0.295 HD
ENDBRANCH  18  19
ENDBRANCH  16  18
ENDBRANCH  15  16
ENDBRANCH  14  15
ENDBRANCH  13  14
ENDBRANCH   7  13
TORSDOF 6
ENDMDL
MODEL 7
REMARK VINA RESULT:      -4.7      3.054      5.343
REMARK  Name = 566344
REMARK  6 active torsions:
REMARK  status: ('A' for Active; 'I' for Inactive)
REMARK    1  A    between atoms: C_7  and  C_13
REMARK    2  A    between atoms: C_13  and  C_14
REMARK    3  A    between atoms: C_14  and  C_15
REMARK    4  A    between atoms: C_15  and  C_16
REMARK    5  A    between atoms: C_16  and  C_18
REMARK    6  A    between atoms: C_18  and  O_19
REMARK                            x       y       z     vdW  Elec       q    Type
REMARK                         _______ _______ _______ _____ _____    ______ ____
ROOT
ATOM      1  S   UNL     1     -34.866  21.674   0.675  0.00  0.00    +0.044 S 
ATOM      2  O   UNL     1     -35.911  22.637   0.192  0.00  0.00    -0.256 OA
ATOM      3  O   UNL     1     -39.628  21.247   0.693  0.00  0.00    -0.253 OA
ATOM      4  N   UNL     1     -37.824  21.000   2.168  0.00  0.00    -0.288 N 
ATOM      5  N   UNL     1     -37.770  19.906   0.202  0.00  0.00    -0.288 N 
ATOM      6  C   UNL     1     -36.580  20.257   2.211  0.00  0.00    +0.104 C 
ATOM      7  C   UNL     1     -35.330  21.129   2.364  0.00  0.00    +0.099 C 
ATOM      8  C   UNL     1     -36.527  19.539   0.849  0.00  0.00    +0.105 C 
ATOM      9  C   UNL     1     -35.315  20.014   0.055  0.00  0.00    +0.113 C 
ATOM     10  C   UNL     1     -38.537  20.776   0.986  0.00  0.00    +0.301 C 
ATOM     11  H   UNL     1     -38.132  21.595   2.890  0.00  0.00    +0.151 HD
ATOM     12  H   UNL     1     -38.043  19.582  -0.686  0.00  0.00    +0.151 HD
ENDROOT
BRANCH   7  13
ATOM     13  C   UNL     1     -35.456  22.305   3.317  0.00  0.00    +0.015 C 
BRANCH  13  14
ATOM     14  C   UNL     1     -35.271  21.925   4.789  0.00  0.00    +0.002 C 
BRANCH  14  15
ATOM     15  C   UNL     1     -35.525  23.047   5.799  0.00  0.00    +0.012 C 
BRANCH  15  16
ATOM     16  C   UNL     1     -35.213  24.439   5.252  0.00  0.00    +0.109 C 
BRANCH  16  18
ATOM     17  O   UNL     1     -37.487  24.799   4.458  0.00  0.00    -0.250 OA
ATOM     18  C   UNL     1     -36.472  25.233   4.982  0.00  0.00    +0.314 C 
BRANCH  18  19
ATOM     19  O   UNL     1     -36.342  26.522   5.393  0.00  0.00    -0.480 OA
ATOM     20  H   UNL     1     -36.355  27.217   4.765  0.00  0.00    +0.295 HD
ENDBRANCH  18  19
ENDBRANCH  16  18
ENDBRANCH  15  16
ENDBRANCH  14  15
ENDBRANCH  13  14
ENDBRANCH   7  13
TORSDOF 6
ENDMDL
MODEL 8
REMARK VINA RESULT:      -4.7      3.097      5.521
REMARK  Name = 566344
REMARK  6 active torsions:
REMARK  status: ('A' for Active; 'I' for Inactive)
REMARK    1  A    between atoms: C_7  and  C_13
REMARK    2  A    between atoms: C_13  and  C_14
REMARK    3  A    between atoms: C_14  and  C_15
REMARK    4  A    between atoms: C_15  and  C_16
REMARK    5  A    between atoms: C_16  and  C_18
REMARK    6  A    between atoms: C_18  and  O_19
REMARK                            x       y       z     vdW  Elec       q    Type
REMARK                         _______ _______ _______ _____ _____    ______ ____
ROOT
ATOM      1  S   UNL     1     -37.827  25.587   1.468  0.00  0.00    +0.044 S 
ATOM      2  O   UNL     1     -38.135  26.997   1.878  0.00  0.00    -0.256 OA
ATOM      3  O   UNL     1     -41.745  27.352   3.562  0.00  0.00    -0.253 OA
ATOM      4  N   UNL     1     -40.227  25.591   3.849  0.00  0.00    -0.288 N 
ATOM      5  N   UNL     1     -41.228  25.840   1.848  0.00  0.00    -0.288 N 
ATOM      6  C   UNL     1     -39.717  24.489   3.058  0.00  0.00    +0.104 C 
ATOM      7  C   UNL     1     -38.194  24.487   2.890  0.00  0.00    +0.099 C 
ATOM      8  C   UNL     1     -40.373  24.683   1.678  0.00  0.00    +0.105 C 
ATOM      9  C   UNL     1     -39.303  24.923   0.619  0.00  0.00    +0.113 C 
ATOM     10  C   UNL     1     -41.138  26.379   3.137  0.00  0.00    +0.301 C 
ATOM     11  H   UNL     1     -39.964  25.765   4.781  0.00  0.00    +0.151 HD
ATOM     12  H   UNL     1     -41.806  26.205   1.140  0.00  0.00    +0.151 HD
ENDROOT
BRANCH   7  13
ATOM     13  C   UNL     1     -37.391  24.875   4.119  0.00  0.00    +0.015 C 
BRANCH  13  14
ATOM     14  C   UNL     1     -35.922  24.447   4.053  0.00  0.00    +0.002 C 
BRANCH  14  15
ATOM     15  C   UNL     1     -35.202  24.341   5.400  0.00  0.00    +0.012 C 
BRANCH  15  16
ATOM     16  C   UNL     1     -34.380  23.061   5.551  0.00  0.00    +0.109 C 
BRANCH  16  18
ATOM     17  O   UNL     1     -35.145  20.860   4.845  0.00  0.00    -0.250 OA
ATOM     18  C   UNL     1     -35.257  21.830   5.580  0.00  0.00    +0.314 C 
BRANCH  18  19
ATOM     19  O   UNL     1     -36.216  21.928   6.538  0.00  0.00    -0.480 OA
ATOM     20  H   UNL     1     -37.104  22.104   6.296  0.00  0.00    +0.295 HD
ENDBRANCH  18  19
ENDBRANCH  16  18
ENDBRANCH  15  16
ENDBRANCH  14  15
ENDBRANCH  13  14
ENDBRANCH   7  13
TORSDOF 6
ENDMDL
MODEL 9
REMARK VINA RESULT:      -4.7      2.726      3.871
REMARK  Name = 566344
REMARK  6 active torsions:
REMARK  status: ('A' for Active; 'I' for Inactive)
REMARK    1  A    between atoms: C_7  and  C_13
REMARK    2  A    between atoms: C_13  and  C_14
REMARK    3  A    between atoms: C_14  and  C_15
REMARK    4  A    between atoms: C_15  and  C_16
REMARK    5  A    between atoms: C_16  and  C_18
REMARK    6  A    between atoms: C_18  and  O_19
REMARK                            x       y       z     vdW  Elec       q    Type
REMARK                         _______ _______ _______ _____ _____    ______ ____
ROOT
ATOM      1  S   UNL     1     -36.554  25.404   1.893  0.00  0.00    +0.044 S 
ATOM      2  O   UNL     1     -35.410  26.368   2.008  0.00  0.00    -0.256 OA
ATOM      3  O   UNL     1     -34.082  26.732   5.763  0.00  0.00    -0.253 OA
ATOM      4  N   UNL     1     -34.796  24.765   4.709  0.00  0.00    -0.288 N 
ATOM      5  N   UNL     1     -36.320  26.352   5.183  0.00  0.00    -0.288 N 
ATOM      6  C   UNL     1     -36.051  24.197   4.258  0.00  0.00    +0.104 C 
ATOM      7  C   UNL     1     -36.088  23.858   2.764  0.00  0.00    +0.099 C 
ATOM      8  C   UNL     1     -37.087  25.299   4.548  0.00  0.00    +0.105 C 
ATOM      9  C   UNL     1     -37.725  25.772   3.247  0.00  0.00    +0.113 C 
ATOM     10  C   UNL     1     -34.960  26.033   5.275  0.00  0.00    +0.301 C 
ATOM     11  H   UNL     1     -33.927  24.309   4.627  0.00  0.00    +0.151 HD
ATOM     12  H   UNL     1     -36.710  27.194   5.511  0.00  0.00    +0.151 HD
ENDROOT
BRANCH   7  13
ATOM     13  C   UNL     1     -34.819  23.253   2.190  0.00  0.00    +0.015 C 
BRANCH  13  14
ATOM     14  C   UNL     1     -35.047  22.459   0.900  0.00  0.00    +0.002 C 
BRANCH  14  15
ATOM     15  C   UNL     1     -34.213  21.184   0.752  0.00  0.00    +0.012 C 
BRANCH  15  16
ATOM     16  C   UNL     1     -34.657  20.056   1.684  0.00  0.00    +0.109 C 
BRANCH  16  18
ATOM     17  O   UNL     1     -36.682  19.411   0.495  0.00  0.00    -0.250 OA
ATOM     18  C   UNL     1     -36.130  19.748   1.532  0.00  0.00    +0.314 C 
BRANCH  18  19
ATOM     19  O   UNL     1     -36.791  19.901   2.709  0.00  0.00    -0.480 OA
ATOM     20  H   UNL     1     -36.311  19.986   3.509  0.00  0.00    +0.295 HD
ENDBRANCH  18  19
ENDBRANCH  16  18
ENDBRANCH  15  16
ENDBRANCH  14  15
ENDBRANCH  13  14
ENDBRANCH   7  13
TORSDOF 6
ENDMDL
